@<TRIPOS>MOLECULE
ZINC53151269
   44    45     0     0     0
SMALL
USER_CHARGES

@<TRIPOS>ATOM
      1 C1         -0.0167    1.3781    0.0096 C.ar      1 <0>        -0.1210
      2 C2          1.1709    2.0855    0.0021 C.ar      1 <0>        -0.1140
      3 C3          2.3773    1.4107   -0.0130 C.ar      1 <0>        -0.1206
      4 C4          2.3960    0.0285   -0.0201 C.ar      1 <0>        -0.0854
      5 C5          1.2084   -0.6789   -0.0117 C.ar      1 <0>        -0.1145
      6 C6          0.0021   -0.0041    0.0020 C.ar      1 <0>        -0.1153
      7 C7          3.7112   -0.7071   -0.0376 C.3       1 <0>        -0.1103
      8 C8          4.1714   -0.9633    1.3989 C.3       1 <0>         0.0872
      9 H1          3.3868   -1.4885    1.9436 H         1 <0>         0.1030
     10 C9          5.4216   -1.8045    1.3834 C.2       1 <0>         0.5327
     11 O1          6.5063   -1.2815    1.5277 O.2       1 <0>        -0.5237
     12 N1          5.3344   -3.1381    1.2093 N.am      1 <0>        -0.7063
     13 C10         6.5498   -3.9559    1.1942 C.3       1 <0>         0.1352
     14 H2          7.2752   -3.5416    1.8944 H         1 <0>         0.1188
     15 C11         6.2054   -5.3890    1.6050 C.3       1 <0>        -0.0835
     16 C12         5.7340   -5.4017    3.0363 C.ar      1 <0>        -0.0869
     17 C13         6.6452   -5.5668    4.0626 C.ar      1 <0>        -0.1133
     18 C14         6.2128   -5.5785    5.3755 C.ar      1 <0>        -0.1155
     19 C15         4.8693   -5.4247    5.6622 C.ar      1 <0>        -0.1181
     20 C16         3.9582   -5.2587    4.6359 C.ar      1 <0>        -0.1157
     21 C17         4.3911   -5.2427    3.3232 C.ar      1 <0>        -0.1111
     22 C18         7.1364   -3.9585   -0.1940 C.2       1 <0>         0.5065
     23 O2          6.5927   -3.3382   -1.0831 O.2       1 <0>        -0.5293
     24 N2          8.2651   -4.6500   -0.4473 N.am      1 <0>        -0.8529
     25 N3          4.4519    0.3186    2.0592 N.3       1 <0>        -0.8259
     26 H3         -0.9591    1.9053    0.0259 H         1 <0>         0.1227
     27 H4          1.1563    3.1654    0.0076 H         1 <0>         0.1237
     28 H5          3.3051    1.9634   -0.0196 H         1 <0>         0.1202
     29 H6          1.2231   -1.7588   -0.0176 H         1 <0>         0.1222
     30 H7         -0.9258   -0.5567    0.0082 H         1 <0>         0.1234
     31 H8          3.5884   -1.6586   -0.5549 H         1 <0>         0.0850
     32 H9          4.4573   -0.1052   -0.5563 H         1 <0>         0.0805
     33 H10         4.4669   -3.5565    1.0939 H         1 <0>         0.4028
     34 H11         5.4156   -5.7723    0.9589 H         1 <0>         0.0870
     35 H12         7.0908   -6.0173    1.5084 H         1 <0>         0.0949
     36 H13         7.6949   -5.6869    3.8387 H         1 <0>         0.1227
     37 H14         6.9246   -5.7081    6.1774 H         1 <0>         0.1234
     38 H15         4.5314   -5.4346    6.6879 H         1 <0>         0.1223
     39 H16         2.9085   -5.1389    4.8598 H         1 <0>         0.1230
     40 H17         3.6798   -5.1094    2.5215 H         1 <0>         0.1187
     41 H18         8.6999   -5.1461    0.2639 H         1 <0>         0.4015
     42 H19         8.6427   -4.6516   -1.3408 H         1 <0>         0.4042
     43 H20         5.1765    0.8250    1.5728 H         1 <0>         0.3514
     44 H21         3.6139    0.8748    2.1399 H         1 <0>         0.3503
@<TRIPOS>BOND
     1    1    6 ar
     2    1    2 ar
     3    1   26 1
     4    2    3 ar
     5    2   27 1
     6    3    4 ar
     7    3   28 1
     8    4    5 ar
     9    4    7 1
    10    5    6 ar
    11    5   29 1
    12    6   30 1
    13    7    8 1
    14    7   31 1
    15    7   32 1
    16    8    9 1
    17    8   10 1
    18    8   25 1
    19   10   11 2
    20   10   12 am
    21   12   13 1
    22   12   33 1
    23   13   14 1
    24   13   15 1
    25   13   22 1
    26   15   16 1
    27   15   34 1
    28   15   35 1
    29   16   21 ar
    30   16   17 ar
    31   17   18 ar
    32   17   36 1
    33   18   19 ar
    34   18   37 1
    35   19   20 ar
    36   19   38 1
    37   20   21 ar
    38   20   39 1
    39   21   40 1
    40   22   23 2
    41   22   24 am
    42   24   41 1
    43   24   42 1
    44   25   43 1
    45   25   44 1
@<TRIPOS>MOLECULE
ZINC13448389
   66    72     0     0     0
SMALL
USER_CHARGES
ethynyl-dimethyl-BLAHol
@<TRIPOS>ATOM
      1 C1          4.4731    3.6252   -4.1153 C.3       1 <0>        -0.1360
      2 C2          5.4413    3.5269   -2.9348 C.3       1 <0>        -0.0425
      3 C3          5.7137    2.0702   -2.6147 C.3       1 <0>        -0.1006
      4 C4          4.3532    1.3897   -2.3894 C.3       1 <0>        -0.1220
      5 C5          3.5636    2.0756   -1.2793 C.3       1 <0>        -0.0678
      6 H1          4.1099    1.9387   -0.3461 H         1 <0>         0.0688
      7 C6          3.4057    3.5790   -1.5402 C.3       1 <0>        -0.0735
      8 H2          2.8309    3.7421   -2.4518 H         1 <0>         0.0880
      9 C7          4.7986    4.1656   -1.6738 C.3       1 <0>        -0.0817
     10 H3          5.3867    3.9530   -0.7811 H         1 <0>         0.0770
     11 C8          4.8652    5.6584   -2.0141 C.3       1 <0>        -0.1134
     12 C9          6.2744    5.8075   -2.6502 C.3       1 <0>        -0.1454
     13 C10         6.6593    4.4080   -3.1918 C.3       1 <0>         0.2495
     14 C11         7.8305    3.8859   -2.4690 C.1       1 <0>        -0.2077
     15 C12         8.7646    3.4695   -1.8925 C.1       1 <0>        -0.1829
     16 O1          6.9334    4.4774   -4.5926 O.3       1 <0>        -0.5409
     17 C13         2.6826    4.2053   -0.3444 C.3       1 <0>        -0.1138
     18 C14         1.2931    3.5819   -0.2302 C.3       1 <0>        -0.1147
     19 C15         1.4027    2.0717   -0.0002 C.3       1 <0>        -0.0708
     20 H4          1.8930    1.8672    0.9516 H         1 <0>         0.0815
     21 C16         2.1868    1.4183   -1.1424 C.3       1 <0>        -0.0432
     22 C17         2.4106   -0.0587   -0.8014 C.3       1 <0>        -0.0604
     23 C18         1.1296   -0.7261   -0.3907 C.2       1 <0>        -0.1685
     24 C19         1.0805   -2.0862   -0.3909 C.2       1 <0>         0.1295
     25 N1         -0.0584   -2.7224    0.0025 N.pl3     1 <0>        -0.4159
     26 C20        -0.4068   -4.0427    0.1129 C.ar      1 <0>        -0.0068
     27 C21         0.2863   -5.2201   -0.1453 C.ar      1 <0>        -0.0821
     28 C22        -0.3894   -6.4077    0.0829 C.ar      1 <0>        -0.1205
     29 C23        -1.6941   -6.4325    0.5477 C.ar      1 <0>        -0.1013
     30 C24        -2.4002   -5.2859    0.8098 C.ar      1 <0>        -0.0789
     31 C25        -1.7424   -4.0671    0.5871 C.ar      1 <0>         0.1116
     32 N2         -2.1377   -2.8011    0.7376 N.2       1 <0>        -0.4802
     33 C26        -1.1506   -1.9813    0.3940 C.2       1 <0>         0.4394
     34 N3         -1.0882   -0.6431    0.3797 N.2       1 <0>        -0.4608
     35 C27         0.0021   -0.0041    0.0020 C.2       1 <0>         0.2419
     36 C28        -0.0183    1.4991    0.0103 C.3       1 <0>        -0.0738
     37 C29         1.4162    1.5401   -2.4585 C.3       1 <0>        -0.1499
     38 H5          4.2498    4.6731   -4.3158 H         1 <0>         0.0570
     39 H6          4.9289    3.1757   -4.9975 H         1 <0>         0.0612
     40 H7          3.5508    3.0970   -3.8738 H         1 <0>         0.0658
     41 H8          6.2311    1.5975   -3.4495 H         1 <0>         0.0645
     42 H9          6.3196    1.9959   -1.7117 H         1 <0>         0.0634
     43 H10         4.5169    0.3468   -2.1182 H         1 <0>         0.0628
     44 H11         3.7771    1.4301   -3.3139 H         1 <0>         0.0728
     45 H12         4.0884    5.9257   -2.7305 H         1 <0>         0.0744
     46 H13         4.7804    6.2638   -1.1116 H         1 <0>         0.0701
     47 H14         6.2418    6.5288   -3.4668 H         1 <0>         0.0801
     48 H15         6.9931    6.1286   -1.8963 H         1 <0>         0.0718
     49 H16         9.6000    3.0970   -1.3770 H         1 <0>         0.2175
     50 H17         7.6735    5.0567   -4.8203 H         1 <0>         0.3781
     51 H18         3.2470    4.0099    0.5674 H         1 <0>         0.0630
     52 H19         2.5918    5.2811   -0.4946 H         1 <0>         0.0670
     53 H20         0.7617    4.0364    0.6060 H         1 <0>         0.0668
     54 H21         0.7381    3.7671   -1.1499 H         1 <0>         0.0685
     55 H22         3.1284   -0.1313    0.0156 H         1 <0>         0.0848
     56 H23         2.8138   -0.5686   -1.6764 H         1 <0>         0.0847
     57 H24         1.9415   -2.6594   -0.7017 H         1 <0>         0.1732
     58 H25         1.3038   -5.2093   -0.5074 H         1 <0>         0.1320
     59 H26         0.1167   -7.3428   -0.1066 H         1 <0>         0.1314
     60 H27        -2.1720   -7.3875    0.7089 H         1 <0>         0.1319
     61 H28        -3.4173   -5.3201    1.1713 H         1 <0>         0.1441
     62 H29        -0.5532    1.8541   -0.8706 H         1 <0>         0.1017
     63 H30        -0.5362    1.8446    0.9050 H         1 <0>         0.0975
     64 H31         0.4505    1.0441   -2.3614 H         1 <0>         0.0547
     65 H32         1.2617    2.5934   -2.6929 H         1 <0>         0.0662
     66 H33         1.9874    1.0698   -3.2589 H         1 <0>         0.0619
@<TRIPOS>BOND
     1    1    2 1
     2    1   38 1
     3    1   39 1
     4    1   40 1
     5    2    9 1
     6    2   13 1
     7    2    3 1
     8    3    4 1
     9    3   41 1
    10    3   42 1
    11    4    5 1
    12    4   43 1
    13    4   44 1
    14    5    6 1
    15    5   21 1
    16    5    7 1
    17    7    8 1
    18    7    9 1
    19    7   17 1
    20    9   10 1
    21    9   11 1
    22   11   12 1
    23   11   45 1
    24   11   46 1
    25   12   13 1
    26   12   47 1
    27   12   48 1
    28   13   14 1
    29   13   16 1
    30   14   15 3
    31   15   49 1
    32   16   50 1
    33   17   18 1
    34   17   51 1
    35   17   52 1
    36   18   19 1
    37   18   53 1
    38   18   54 1
    39   19   20 1
    40   19   36 1
    41   19   21 1
    42   21   22 1
    43   21   37 1
    44   22   23 1
    45   22   55 1
    46   22   56 1
    47   23   35 1
    48   23   24 2
    49   24   25 1
    50   24   57 1
    51   25   33 1
    52   25   26 1
    53   26   31 ar
    54   26   27 ar
    55   27   28 ar
    56   27   58 1
    57   28   29 ar
    58   28   59 1
    59   29   30 ar
    60   29   60 1
    61   30   31 ar
    62   30   61 1
    63   31   32 1
    64   32   33 2
    65   33   34 1
    66   34   35 2
    67   35   36 1
    68   36   62 1
    69   36   63 1
    70   37   64 1
    71   37   65 1
    72   37   66 1
@<TRIPOS>MOLECULE
ZINC03795331
   64    68     0     0     0
SMALL
USER_CHARGES

@<TRIPOS>ATOM
      1 C1          0.3212    1.0082   -0.8934 C.3       1 <0>         0.0206
      2 O1          0.2942   -0.3984   -0.6425 O.3       1 <0>        -0.3288
      3 C2         -0.9225   -1.0035   -0.6520 C.ar      1 <0>         0.1432
      4 C3         -2.0666   -0.2598   -0.9033 C.ar      1 <0>        -0.1980
      5 C4         -3.3021   -0.8773   -0.9127 C.ar      1 <0>        -0.0558
      6 C5         -3.3994   -2.2356   -0.6721 C.ar      1 <0>        -0.1459
      7 C6         -2.2611   -2.9787   -0.4210 C.ar      1 <0>        -0.0752
      8 C7         -1.0223   -2.3668   -0.4160 C.ar      1 <0>        -0.1465
      9 C8          0.2188   -3.1786   -0.1484 C.3       1 <0>        -0.0647
     10 C9          0.5650   -3.0991    1.3161 C.cat     1 <0>         0.5654
     11 N1          1.1731   -2.0567    1.7812 N.pl3     1 <0>        -0.7214
     12 N2          0.2356   -4.1310    2.1549 N.pl3     1 <0>        -0.5676
     13 C10        -0.7544   -5.1868    1.8858 C.3       1 <0>         0.1073
     14 C11        -1.1082   -5.8225    3.2314 C.3       1 <0>        -0.1470
     15 H1         -0.7332   -6.8459    3.2230 H         1 <0>         0.1264
     16 C12        -0.3358   -5.0538    4.2959 C.3       1 <0>        -0.0733
     17 H2          0.0804   -5.7469    5.0270 H         1 <0>         0.1270
     18 C13         0.8130   -4.3875    3.4862 C.3       1 <0>         0.0776
     19 C14        -1.1199   -3.9713    5.0001 C.3       1 <0>         0.0330
     20 C15        -2.5621   -4.2962    5.3123 C.3       1 <0>        -0.0993
     21 C16        -3.3102   -4.7179    4.0460 C.3       1 <0>        -0.1927
     22 C17        -2.5764   -5.8757    3.4788 C.2       1 <0>         0.3672
     23 O2         -3.1989   -6.8803    3.2303 O.2       1 <0>        -0.4250
     24 C18        -1.0922   -2.7348    4.1392 C.ar      1 <0>        -0.0790
     25 C19        -0.4901   -1.5812    4.6057 C.ar      1 <0>        -0.1205
     26 C20        -0.4646   -0.4469    3.8160 C.ar      1 <0>        -0.1211
     27 C21        -1.0408   -0.4663    2.5596 C.ar      1 <0>        -0.1176
     28 C22        -1.6421   -1.6202    2.0927 C.ar      1 <0>        -0.1520
     29 C23        -1.6638   -2.7557    2.8807 C.ar      1 <0>        -0.1402
     30 C24        -0.4193   -3.6498    6.2950 C.ar      1 <0>        -0.0869
     31 C25        -1.0186   -2.8101    7.2151 C.ar      1 <0>        -0.1094
     32 C26        -0.3760   -2.5151    8.4029 C.ar      1 <0>        -0.1102
     33 C27         0.8658   -3.0602    8.6708 C.ar      1 <0>        -0.1117
     34 C28         1.4647   -3.9006    7.7510 C.ar      1 <0>        -0.1106
     35 C29         0.8202   -4.1990    6.5651 C.ar      1 <0>        -0.1298
     36 H3          1.3509    1.3640   -0.8572 H         1 <0>         0.1109
     37 H4         -0.0984    1.2096   -1.8790 H         1 <0>         0.0676
     38 H5         -0.2682    1.5238   -0.1352 H         1 <0>         0.0627
     39 H6         -1.9912    0.8011   -1.0909 H         1 <0>         0.1404
     40 H7         -4.1930   -0.2988   -1.1080 H         1 <0>         0.1381
     41 H8         -4.3664   -2.7165   -0.6799 H         1 <0>         0.1383
     42 H9         -2.3397   -4.0393   -0.2329 H         1 <0>         0.1347
     43 H10         0.0394   -4.2180   -0.4234 H         1 <0>         0.1307
     44 H11         1.0455   -2.7840   -0.7391 H         1 <0>         0.1409
     45 H12         1.4602   -2.0357    2.7075 H         1 <0>         0.4243
     46 H13        -1.6464   -4.7530    1.4339 H         1 <0>         0.1009
     47 H14        -0.3257   -5.9373    1.2217 H         1 <0>         0.1151
     48 H15         1.6648   -5.0628    3.4060 H         1 <0>         0.1123
     49 H16         1.1138   -3.4508    3.9555 H         1 <0>         0.1012
     50 H17        -2.5978   -5.1091    6.0376 H         1 <0>         0.0835
     51 H18        -3.0442   -3.4159    5.7374 H         1 <0>         0.0910
     52 H19        -4.3348   -4.9951    4.2939 H         1 <0>         0.1095
     53 H20        -3.3086   -3.9017    3.3236 H         1 <0>         0.1159
     54 H21        -0.0399   -1.5660    5.5873 H         1 <0>         0.1369
     55 H22         0.0051    0.4546    4.1808 H         1 <0>         0.1272
     56 H23        -1.0216    0.4201    1.9429 H         1 <0>         0.1194
     57 H24        -2.0926   -1.6352    1.1113 H         1 <0>         0.1483
     58 H25        -2.1303   -3.6583    2.5145 H         1 <0>         0.1347
     59 H26        -1.9888   -2.3842    7.0058 H         1 <0>         0.1246
     60 H27        -0.8439   -1.8585    9.1215 H         1 <0>         0.1274
     61 H28         1.3682   -2.8292    9.5985 H         1 <0>         0.1270
     62 H29         2.4351   -4.3262    7.9602 H         1 <0>         0.1267
     63 H30         1.2864   -4.8585    5.8482 H         1 <0>         0.1236
     64 H31         1.3420   -1.2959    1.2037 H         1 <0>         0.4487
@<TRIPOS>BOND
     1    1    2 1
     2    1   36 1
     3    1   37 1
     4    1   38 1
     5    2    3 1
     6    3    8 ar
     7    3    4 ar
     8    4    5 ar
     9    4   39 1
    10    5    6 ar
    11    5   40 1
    12    6    7 ar
    13    6   41 1
    14    7    8 ar
    15    7   42 1
    16    8    9 1
    17    9   10 1
    18    9   43 1
    19    9   44 1
    20   10   11 2
    21   10   12 1
    22   11   45 1
    23   11   64 1
    24   12   18 1
    25   12   13 1
    26   13   14 1
    27   13   46 1
    28   13   47 1
    29   14   15 1
    30   14   22 1
    31   14   16 1
    32   16   17 1
    33   16   18 1
    34   16   19 1
    35   18   48 1
    36   18   49 1
    37   19   20 1
    38   19   24 1
    39   19   30 1
    40   20   21 1
    41   20   50 1
    42   20   51 1
    43   21   22 1
    44   21   52 1
    45   21   53 1
    46   22   23 2
    47   24   29 ar
    48   24   25 ar
    49   25   26 ar
    50   25   54 1
    51   26   27 ar
    52   26   55 1
    53   27   28 ar
    54   27   56 1
    55   28   29 ar
    56   28   57 1
    57   29   58 1
    58   30   35 ar
    59   30   31 ar
    60   31   32 ar
    61   31   59 1
    62   32   33 ar
    63   32   60 1
    64   33   34 ar
    65   33   61 1
    66   34   35 ar
    67   34   62 1
    68   35   63 1
@<TRIPOS>MOLECULE
ZINC19361055
   64    68     0     0     0
SMALL
USER_CHARGES

@<TRIPOS>ATOM
      1 C1         -0.9467    0.1313   -0.9819 C.3       1 <0>         0.0256
      2 O1         -0.5538   -1.2133   -0.6997 O.3       1 <0>        -0.3241
      3 C2         -1.5433   -2.1413   -0.6194 C.ar      1 <0>         0.1300
      4 C3         -2.8650   -1.7665   -0.8140 C.ar      1 <0>        -0.2074
      5 C4         -3.8689   -2.7116   -0.7323 C.ar      1 <0>        -0.0718
      6 C5         -3.5576   -4.0306   -0.4568 C.ar      1 <0>        -0.1546
      7 C6         -2.2416   -4.4065   -0.2620 C.ar      1 <0>        -0.0537
      8 C7         -1.2333   -3.4659   -0.3483 C.ar      1 <0>        -0.1206
      9 C8          0.2017   -3.8775   -0.1421 C.3       1 <0>         0.1126
     10 N1          0.6164   -3.5390    1.2259 N.3       1 <0>        -0.6601
     11 C9          2.0132   -3.9268    1.4637 C.3       1 <0>         0.0857
     12 H1          2.2033   -4.9015    1.0143 H         1 <0>         0.1168
     13 C10         2.2770   -3.9961    2.9695 C.3       1 <0>         0.0405
     14 H2          2.5883   -5.0061    3.2360 H         1 <0>         0.1391
     15 N2          3.3320   -3.0491    3.3380 N.4       1 <0>        -0.3734
     16 C11         2.9249   -1.6769    3.0267 C.3       1 <0>        -0.0127
     17 C12         2.6825   -1.5305    1.5228 C.3       1 <0>        -0.1377
     18 C13         2.9497   -2.8825    0.8418 C.3       1 <0>        -0.1333
     19 C14         4.3979   -3.2940    1.1379 C.3       1 <0>        -0.1316
     20 C15         4.5852   -3.3826    2.6569 C.3       1 <0>        -0.0072
     21 C16         0.9948   -3.6438    3.7262 C.3       1 <0>         0.0059
     22 C17        -0.0483   -4.7000    3.4662 C.ar      1 <0>        -0.0395
     23 C18         0.2639   -6.0360    3.6346 C.ar      1 <0>        -0.1264
     24 C19        -0.6928   -7.0048    3.3961 C.ar      1 <0>        -0.1155
     25 C20        -1.9620   -6.6375    2.9896 C.ar      1 <0>        -0.1153
     26 C21        -2.2745   -5.3014    2.8220 C.ar      1 <0>        -0.1105
     27 C22        -1.3190   -4.3324    3.0647 C.ar      1 <0>        -0.0668
     28 C23         1.2853   -3.5778    5.2035 C.ar      1 <0>        -0.1274
     29 C24         0.9386   -2.4517    5.9264 C.ar      1 <0>        -0.1107
     30 C25         1.2051   -2.3911    7.2815 C.ar      1 <0>        -0.1084
     31 C26         1.8180   -3.4568    7.9137 C.ar      1 <0>        -0.1043
     32 C27         2.1640   -4.5832    7.1909 C.ar      1 <0>        -0.1090
     33 C28         1.8935   -4.6455    5.8367 C.ar      1 <0>        -0.1238
     34 H3         -0.0628    0.7681   -1.0185 H         1 <0>         0.1002
     35 H4         -1.4594    0.1659   -1.9432 H         1 <0>         0.0589
     36 H5         -1.6177    0.4856   -0.1994 H         1 <0>         0.0573
     37 H6         -3.1087   -0.7365   -1.0288 H         1 <0>         0.1280
     38 H7         -4.8978   -2.4203   -0.8833 H         1 <0>         0.1264
     39 H8         -4.3440   -4.7681   -0.3933 H         1 <0>         0.1257
     40 H9         -2.0011   -5.4371   -0.0466 H         1 <0>         0.1282
     41 H10         0.2969   -4.9525   -0.2952 H         1 <0>         0.0843
     42 H11         0.8366   -3.3514   -0.8549 H         1 <0>         0.0482
     43 H12         0.4766   -2.5576    1.4138 H         1 <0>         0.3456
     44 H13         2.0073   -1.4408    3.5655 H         1 <0>         0.1280
     45 H14         3.7110   -0.9876    3.3351 H         1 <0>         0.1305
     46 H15         1.6493   -1.2314    1.3467 H         1 <0>         0.0985
     47 H16         3.3573   -0.7775    1.1156 H         1 <0>         0.1028
     48 H17         2.7744   -2.8096   -0.2315 H         1 <0>         0.1182
     49 H18         4.6007   -4.2660    0.6883 H         1 <0>         0.1002
     50 H19         5.0803   -2.5499    0.7271 H         1 <0>         0.1006
     51 H20         5.3625   -2.6844    2.9674 H         1 <0>         0.1305
     52 H21         4.8838   -4.3961    2.9247 H         1 <0>         0.1291
     53 H22         0.6255   -2.6767    3.3850 H         1 <0>         0.1036
     54 H23         1.2555   -6.3230    3.9522 H         1 <0>         0.1094
     55 H24        -0.4487   -8.0487    3.5269 H         1 <0>         0.1193
     56 H25        -2.7093   -7.3945    2.8025 H         1 <0>         0.1201
     57 H26        -3.2660   -5.0145    2.5041 H         1 <0>         0.1195
     58 H27        -1.5642   -3.2883    2.9374 H         1 <0>         0.1121
     59 H28         0.4597   -1.6191    5.4325 H         1 <0>         0.1255
     60 H29         0.9349   -1.5111    7.8462 H         1 <0>         0.1306
     61 H30         2.0269   -3.4091    8.9722 H         1 <0>         0.1304
     62 H31         2.6431   -5.4156    7.6848 H         1 <0>         0.1302
     63 H32         2.1604   -5.5270    5.2727 H         1 <0>         0.1249
     64 H33         3.4834   -3.1113    4.3336 H         1 <0>         0.4228
@<TRIPOS>BOND
     1    1    2 1
     2    1   34 1
     3    1   35 1
     4    1   36 1
     5    2    3 1
     6    3    8 ar
     7    3    4 ar
     8    4    5 ar
     9    4   37 1
    10    5    6 ar
    11    5   38 1
    12    6    7 ar
    13    6   39 1
    14    7    8 ar
    15    7   40 1
    16    8    9 1
    17    9   10 1
    18    9   41 1
    19    9   42 1
    20   10   11 1
    21   10   43 1
    22   11   12 1
    23   11   18 1
    24   11   13 1
    25   13   14 1
    26   13   15 1
    27   13   21 1
    28   15   20 1
    29   15   16 1
    30   15   64 1
    31   16   17 1
    32   16   44 1
    33   16   45 1
    34   17   18 1
    35   17   46 1
    36   17   47 1
    37   18   19 1
    38   18   48 1
    39   19   20 1
    40   19   49 1
    41   19   50 1
    42   20   51 1
    43   20   52 1
    44   21   22 1
    45   21   28 1
    46   21   53 1
    47   22   27 ar
    48   22   23 ar
    49   23   24 ar
    50   23   54 1
    51   24   25 ar
    52   24   55 1
    53   25   26 ar
    54   25   56 1
    55   26   27 ar
    56   26   57 1
    57   27   58 1
    58   28   33 ar
    59   28   29 ar
    60   29   30 ar
    61   29   59 1
    62   30   31 ar
    63   30   60 1
    64   31   32 ar
    65   31   61 1
    66   32   33 ar
    67   32   62 1
    68   33   63 1
@<TRIPOS>MOLECULE
ZINC19361055
   64    68     0     0     0
SMALL
USER_CHARGES

@<TRIPOS>ATOM
      1 C1         -0.7272    0.0235   -0.8992 C.3       1 <0>         0.0215
      2 O1         -0.2937   -1.3085   -0.6164 O.3       1 <0>        -0.3280
      3 C2         -1.2509   -2.2722   -0.5708 C.ar      1 <0>         0.1490
      4 C3         -2.5794   -1.9436   -0.7995 C.ar      1 <0>        -0.2025
      5 C4         -3.5502   -2.9250   -0.7532 C.ar      1 <0>        -0.0445
      6 C5         -3.1991   -4.2341   -0.4791 C.ar      1 <0>        -0.1484
      7 C6         -1.8762   -4.5641   -0.2504 C.ar      1 <0>        -0.0511
      8 C7         -0.9006   -3.5870   -0.3013 C.ar      1 <0>        -0.1934
      9 C8          0.5421   -3.9485   -0.0581 C.3       1 <0>         0.0449
     10 N1          0.9062   -3.6071    1.3235 N.4       1 <0>        -0.5103
     11 C9          2.3125   -3.9594    1.5606 C.3       1 <0>        -0.0043
     12 H1          2.4507   -5.0304    1.4121 H         1 <0>         0.1418
     13 C10         2.7005   -3.5857    2.9941 C.3       1 <0>         0.0806
     14 H2          3.0227   -4.4795    3.5284 H         1 <0>         0.1238
     15 N2          3.7988   -2.6106    2.9632 N.3       1 <0>        -0.4995
     16 C11         3.3857   -1.3713    2.2903 C.3       1 <0>         0.0375
     17 C12         3.0163   -1.6818    0.8371 C.3       1 <0>        -0.1685
     18 C13         3.2078   -3.1855    0.5848 C.3       1 <0>        -0.1027
     19 C14         4.6707   -3.5463    0.8720 C.3       1 <0>        -0.1468
     20 C15         4.9938   -3.1814    2.3265 C.3       1 <0>         0.0451
     21 C16         1.4931   -2.9728    3.7064 C.3       1 <0>        -0.0158
     22 C17         0.4319   -4.0263    3.8932 C.ar      1 <0>        -0.1306
     23 C18         0.7836   -5.2939    4.3181 C.ar      1 <0>        -0.1081
     24 C19        -0.1899   -6.2603    4.4894 C.ar      1 <0>        -0.1029
     25 C20        -1.5150   -5.9590    4.2364 C.ar      1 <0>        -0.1015
     26 C21        -1.8668   -4.6912    3.8124 C.ar      1 <0>        -0.1020
     27 C22        -0.8939   -3.7236    3.6451 C.ar      1 <0>        -0.1374
     28 C23         1.9186   -2.4443    5.0520 C.ar      1 <0>        -0.0590
     29 C24         1.6492   -1.1329    5.3962 C.ar      1 <0>        -0.1127
     30 C25         2.0396   -0.6481    6.6305 C.ar      1 <0>        -0.1123
     31 C26         2.6989   -1.4749    7.5208 C.ar      1 <0>        -0.1112
     32 C27         2.9675   -2.7866    7.1769 C.ar      1 <0>        -0.1118
     33 C28         2.5733   -3.2726    5.9443 C.ar      1 <0>        -0.0986
     34 H3          0.1337    0.6920   -0.9062 H         1 <0>         0.1104
     35 H4         -1.2139    0.0478   -1.8742 H         1 <0>         0.0668
     36 H5         -1.4320    0.3466   -0.1331 H         1 <0>         0.0646
     37 H6         -2.8541   -0.9212   -1.0133 H         1 <0>         0.1407
     38 H7         -4.5844   -2.6696   -0.9308 H         1 <0>         0.1385
     39 H8         -3.9597   -5.0001   -0.4433 H         1 <0>         0.1382
     40 H9         -1.6046   -5.5872   -0.0362 H         1 <0>         0.1378
     41 H10         0.6804   -5.0180   -0.2166 H         1 <0>         0.1348
     42 H11         1.1770   -3.3937   -0.7488 H         1 <0>         0.1378
     43 H12         0.7781   -2.6171    1.4702 H         1 <0>         0.4191
     44 H13         2.5212   -0.9498    2.8033 H         1 <0>         0.0837
     45 H14         4.2067   -0.6547    2.3117 H         1 <0>         0.0963
     46 H15         1.9753   -1.4120    0.6593 H         1 <0>         0.0678
     47 H16         3.6621   -1.1145    0.1669 H         1 <0>         0.0954
     48 H17         2.9434   -3.4330   -0.4433 H         1 <0>         0.1046
     49 H18         4.8191   -4.6158    0.7230 H         1 <0>         0.0800
     50 H19         5.3231   -2.9881    0.2005 H         1 <0>         0.0894
     51 H20         5.8017   -2.4500    2.3478 H         1 <0>         0.0941
     52 H21         5.3001   -4.0779    2.8656 H         1 <0>         0.0884
     53 H22         1.0926   -2.1563    3.1055 H         1 <0>         0.0798
     54 H23         1.8189   -5.5293    4.5158 H         1 <0>         0.1326
     55 H24         0.0850   -7.2508    4.8207 H         1 <0>         0.1358
     56 H25        -2.2755   -6.7143    4.3696 H         1 <0>         0.1350
     57 H26        -2.9021   -4.4560    3.6143 H         1 <0>         0.1344
     58 H27        -1.1692   -2.7320    3.3174 H         1 <0>         0.1268
     59 H28         1.1341   -0.4869    4.7007 H         1 <0>         0.1148
     60 H29         1.8298    0.3767    6.8992 H         1 <0>         0.1242
     61 H30         3.0045   -1.0960    8.4849 H         1 <0>         0.1246
     62 H31         3.4829   -3.4324    7.8724 H         1 <0>         0.1241
     63 H32         2.7799   -4.2984    5.6771 H         1 <0>         0.1156
     64 H33         0.3184   -4.1207    1.9629 H         1 <0>         0.4234
@<TRIPOS>BOND
     1    1    2 1
     2    1   34 1
     3    1   35 1
     4    1   36 1
     5    2    3 1
     6    3    8 ar
     7    3    4 ar
     8    4    5 ar
     9    4   37 1
    10    5    6 ar
    11    5   38 1
    12    6    7 ar
    13    6   39 1
    14    7    8 ar
    15    7   40 1
    16    8    9 1
    17    9   10 1
    18    9   41 1
    19    9   42 1
    20   10   11 1
    21   10   43 1
    22   10   64 1
    23   11   12 1
    24   11   18 1
    25   11   13 1
    26   13   14 1
    27   13   15 1
    28   13   21 1
    29   15   20 1
    30   15   16 1
    31   16   17 1
    32   16   44 1
    33   16   45 1
    34   17   18 1
    35   17   46 1
    36   17   47 1
    37   18   19 1
    38   18   48 1
    39   19   20 1
    40   19   49 1
    41   19   50 1
    42   20   51 1
    43   20   52 1
    44   21   22 1
    45   21   28 1
    46   21   53 1
    47   22   27 ar
    48   22   23 ar
    49   23   24 ar
    50   23   54 1
    51   24   25 ar
    52   24   55 1
    53   25   26 ar
    54   25   56 1
    55   26   27 ar
    56   26   57 1
    57   27   58 1
    58   28   33 ar
    59   28   29 ar
    60   29   30 ar
    61   29   59 1
    62   30   31 ar
    63   30   60 1
    64   31   32 ar
    65   31   61 1
    66   32   33 ar
    67   32   62 1
    68   33   63 1
@<TRIPOS>MOLECULE
ZINC00598586
   51    53     0     0     0
SMALL
USER_CHARGES

@<TRIPOS>ATOM
      1 C1         -0.0184    1.5028    0.0103 C.3       1 <0>        -0.1785
      2 C2          0.0021   -0.0041    0.0020 C.2       1 <0>         0.5204
      3 O1          0.0203   -0.6160    1.0489 O.2       1 <0>        -0.5178
      4 N1          0.0001   -0.6716   -1.1688 N.am      1 <0>        -0.7177
      5 C3          0.0199   -2.1365   -1.1769 C.3       1 <0>         0.1729
      6 H1          0.0151   -2.4942   -2.2065 H         1 <0>         0.1225
      7 C4          1.2828   -2.6333   -0.4703 C.3       1 <0>        -0.0574
      8 C5          2.4971   -2.2137   -1.2580 C.2       1 <0>        -0.1697
      9 C6          3.1457   -2.9471   -2.1764 C.2       1 <0>         0.0606
     10 N2          4.2007   -2.2366   -2.6808 N.pl3     1 <0>        -0.5941
     11 H2          4.8163   -2.5582   -3.3579 H         1 <0>         0.4171
     12 C7          4.2583   -0.9970   -2.0841 C.ar      1 <0>         0.0940
     13 C8          3.1899   -0.9259   -1.1712 C.ar      1 <0>        -0.0922
     14 C9          2.9941    0.2322   -0.4170 C.ar      1 <0>        -0.0776
     15 C10         3.8405    1.2940   -0.5720 C.ar      1 <0>        -0.1458
     16 C11         4.8933    1.2304   -1.4741 C.ar      1 <0>        -0.0973
     17 C12         5.1104    0.0936   -2.2220 C.ar      1 <0>        -0.1297
     18 C13        -1.1968   -2.6593   -0.4576 C.2       1 <0>         0.4464
     19 O2         -1.7975   -1.9459    0.3106 O.2       1 <0>        -0.4684
     20 O3         -1.6132   -3.9175   -0.6704 O.3       1 <0>        -0.3500
     21 C14        -2.7734   -4.3466    0.0450 C.3       1 <0>         0.1082
     22 C15        -3.0881   -5.7748   -0.3187 C.ar      1 <0>        -0.0942
     23 C16        -3.9224   -6.0483   -1.3864 C.ar      1 <0>        -0.0137
     24 C17        -4.2111   -7.3584   -1.7201 C.ar      1 <0>        -0.1860
     25 C18        -3.6652   -8.3949   -0.9863 C.ar      1 <0>        -0.0127
     26 C19        -2.8301   -8.1214    0.0808 C.ar      1 <0>        -0.1852
     27 C20        -2.5380   -6.8114    0.4118 C.ar      1 <0>        -0.0115
     28 C21        -2.2353   -9.2514    0.8810 C.3       1 <0>         0.5128
     29 F1         -2.6707  -10.4734    0.3573 F         1 <0>        -0.1722
     30 F2         -0.8394   -9.1861    0.8139 F         1 <0>        -0.1704
     31 F3         -2.6436   -9.1437    2.2148 F         1 <0>        -0.1705
     32 C22        -5.1215   -7.6565   -2.8835 C.3       1 <0>         0.5129
     33 F4         -4.3617   -7.7723   -4.0524 F         1 <0>        -0.1705
     34 F5         -5.8010   -8.8566   -2.6482 F         1 <0>        -0.1715
     35 F6         -6.0468   -6.6176   -3.0297 F         1 <0>        -0.1718
     36 H3          1.0042    1.8801    0.0026 H         1 <0>         0.0959
     37 H4         -0.5455    1.8639   -0.8728 H         1 <0>         0.0795
     38 H5         -0.5286    1.8543    0.9071 H         1 <0>         0.0950
     39 H6         -0.0145   -0.1822   -2.0061 H         1 <0>         0.4088
     40 H7          1.3324   -2.2034    0.5301 H         1 <0>         0.1014
     41 H8          1.2546   -3.7205   -0.3977 H         1 <0>         0.0882
     42 H9          2.8751   -3.9497   -2.4730 H         1 <0>         0.1716
     43 H10         2.1765    0.2892    0.2864 H         1 <0>         0.1216
     44 H11         3.6886    2.1898    0.0117 H         1 <0>         0.1219
     45 H12         5.5533    2.0779   -1.5860 H         1 <0>         0.1251
     46 H13         5.9317    0.0543   -2.9221 H         1 <0>         0.1193
     47 H14        -2.5858   -4.2775    1.1165 H         1 <0>         0.0879
     48 H15        -3.6183   -3.7101   -0.2177 H         1 <0>         0.0863
     49 H16        -4.3490   -5.2385   -1.9597 H         1 <0>         0.1503
     50 H17        -3.8913   -9.4184   -1.2466 H         1 <0>         0.1563
     51 H18        -1.8826   -6.5978    1.2432 H         1 <0>         0.1495
@<TRIPOS>BOND
     1    1    2 1
     2    1   36 1
     3    1   37 1
     4    1   38 1
     5    2    3 2
     6    2    4 am
     7    4    5 1
     8    4   39 1
     9    5    6 1
    10    5    7 1
    11    5   18 1
    12    7    8 1
    13    7   40 1
    14    7   41 1
    15    8   13 1
    16    8    9 2
    17    9   10 1
    18    9   42 1
    19   10   11 1
    20   10   12 1
    21   12   17 ar
    22   12   13 ar
    23   13   14 ar
    24   14   15 ar
    25   14   43 1
    26   15   16 ar
    27   15   44 1
    28   16   17 ar
    29   16   45 1
    30   17   46 1
    31   18   19 2
    32   18   20 1
    33   20   21 1
    34   21   22 1
    35   21   47 1
    36   21   48 1
    37   22   27 ar
    38   22   23 ar
    39   23   24 ar
    40   23   49 1
    41   24   25 ar
    42   24   32 1
    43   25   26 ar
    44   25   50 1
    45   26   27 ar
    46   26   28 1
    47   27   51 1
    48   28   29 1
    49   28   30 1
    50   28   31 1
    51   32   33 1
    52   32   34 1
    53   32   35 1
@<TRIPOS>MOLECULE
ZINC14951634
   79    82     0     0     0
SMALL
USER_CHARGES

@<TRIPOS>ATOM
      1 C1          1.9517   -1.5464   -0.2337 C.ar      1 <0>        -0.1169
      2 C2          2.3865   -0.2352   -0.2842 C.ar      1 <0>        -0.1137
      3 C3          3.7298    0.0539   -0.1328 C.ar      1 <0>        -0.1108
      4 C4          4.6382   -0.9682    0.0695 C.ar      1 <0>        -0.0879
      5 C5          4.2033   -2.2793    0.1209 C.ar      1 <0>        -0.1137
      6 C6          2.8602   -2.5685   -0.0319 C.ar      1 <0>        -0.1154
      7 C7          6.1028   -0.6531    0.2336 C.3       1 <0>        -0.0836
      8 C8          6.4134   -0.4287    1.7148 C.3       1 <0>         0.1354
      9 H1          6.0883   -1.2959    2.2896 H         1 <0>         0.1175
     10 C9          7.8972   -0.2352    1.8932 C.2       1 <0>         0.5074
     11 O1          8.3214    0.7970    2.3681 O.2       1 <0>        -0.5284
     12 N1          8.7529   -1.2093    1.5251 N.am      1 <0>        -0.8529
     13 N2          5.7052    0.7636    2.1871 N.am      1 <0>        -0.7039
     14 C10         5.4004    0.8931    3.4935 C.2       1 <0>         0.5162
     15 O2          5.7125    0.0226    4.2782 O.2       1 <0>        -0.5249
     16 C11         4.6719    2.1196    3.9794 C.3       1 <0>         0.1415
     17 H2          3.7081    2.1931    3.4756 H         1 <0>         0.1171
     18 C12         5.5057    3.3644    3.6691 C.3       1 <0>        -0.0819
     19 C13         4.7418    4.5963    4.0814 C.ar      1 <0>        -0.0827
     20 C14         3.8040    5.1461    3.2276 C.ar      1 <0>        -0.1123
     21 C15         3.1033    6.2760    3.6058 C.ar      1 <0>        -0.1140
     22 C16         3.3401    6.8560    4.8381 C.ar      1 <0>        -0.1172
     23 C17         4.2773    6.3057    5.6923 C.ar      1 <0>        -0.1138
     24 C18         4.9750    5.1732    5.3158 C.ar      1 <0>        -0.1107
     25 N3          4.4608    2.0213    5.4257 N.am      1 <0>        -0.7019
     26 C19         3.3749    1.3840    5.9064 C.2       1 <0>         0.5262
     27 O3          2.5258    0.9733    5.1440 O.2       1 <0>        -0.5234
     28 C20         3.2157    1.1818    7.3913 C.3       1 <0>         0.1205
     29 H3          3.6102    2.0451    7.9272 H         1 <0>         0.0932
     30 C21         3.9632   -0.0950    7.8302 C.3       1 <0>        -0.1185
     31 C22         3.0148   -0.7036    8.8968 C.3       1 <0>        -0.1312
     32 C23         1.6238   -0.3464    8.3162 C.3       1 <0>         0.0966
     33 N4          1.7951    0.9949    7.7210 N.am      1 <0>        -0.5969
     34 C24         0.8155    1.8972    7.5142 C.2       1 <0>         0.5010
     35 O4          1.0615    2.9397    6.9455 O.2       1 <0>        -0.5303
     36 C25        -0.5855    1.6105    7.9897 C.3       1 <0>         0.0897
     37 H4         -0.5463    1.1302    8.9674 H         1 <0>         0.1032
     38 C26        -1.2824    0.6822    6.9930 C.3       1 <0>        -0.0652
     39 C27        -2.6375    0.2971    7.5281 C.ar      1 <0>        -0.0769
     40 C28        -2.7719   -0.8261    8.3232 C.ar      1 <0>        -0.1026
     41 C29        -4.0131   -1.1815    8.8146 C.ar      1 <0>        -0.1458
     42 C30        -5.1252   -0.4102    8.5100 C.ar      1 <0>         0.1003
     43 C31        -4.9877    0.7165    7.7124 C.ar      1 <0>        -0.1452
     44 C32        -3.7435    1.0706    7.2278 C.ar      1 <0>        -0.0732
     45 O5         -6.3474   -0.7580    8.9919 O.3       1 <0>        -0.5017
     46 N5         -1.3350    2.8698    8.0926 N.3       1 <0>        -0.8131
     47 H5          0.9017   -1.7719   -0.3475 H         1 <0>         0.1222
     48 H6          1.6768    0.5634   -0.4423 H         1 <0>         0.1228
     49 H7          4.0696    1.0783   -0.1730 H         1 <0>         0.1183
     50 H8          4.9131   -3.0779    0.2787 H         1 <0>         0.1220
     51 H9          2.5205   -3.5929    0.0079 H         1 <0>         0.1230
     52 H10         6.6978   -1.4864   -0.1402 H         1 <0>         0.0950
     53 H11         6.3458    0.2481   -0.3292 H         1 <0>         0.0875
     54 H12         8.4136   -2.0348    1.1453 H         1 <0>         0.4014
     55 H13         9.7080   -1.0847    1.6399 H         1 <0>         0.4043
     56 H14         5.4555    1.4598    1.5595 H         1 <0>         0.4029
     57 H15         6.4456    3.3186    4.2193 H         1 <0>         0.0879
     58 H16         5.7124    3.4060    2.5997 H         1 <0>         0.0933
     59 H17         3.6190    4.6930    2.2649 H         1 <0>         0.1200
     60 H18         2.3711    6.7060    2.9384 H         1 <0>         0.1215
     61 H19         2.7932    7.7392    5.1333 H         1 <0>         0.1205
     62 H20         4.4626    6.7589    6.6549 H         1 <0>         0.1207
     63 H21         5.7045    4.7411    5.9847 H         1 <0>         0.1176
     64 H22         5.1025    2.4149    6.0374 H         1 <0>         0.4024
     65 H23         4.0868   -0.7777    6.9896 H         1 <0>         0.0868
     66 H24         4.9285    0.1553    8.2703 H         1 <0>         0.0923
     67 H25         3.1445   -1.7837    8.9641 H         1 <0>         0.0919
     68 H26         3.1655   -0.2323    9.8680 H         1 <0>         0.0818
     69 H27         1.3352   -1.0679    7.5517 H         1 <0>         0.0763
     70 H28         0.8779   -0.3151    9.1104 H         1 <0>         0.0835
     71 H29        -1.4011    1.1965    6.0393 H         1 <0>         0.0795
     72 H30        -0.6801   -0.2148    6.8495 H         1 <0>         0.0816
     73 H31        -1.9057   -1.4262    8.5600 H         1 <0>         0.1232
     74 H32        -4.1176   -2.0594    9.4350 H         1 <0>         0.1264
     75 H33        -5.8521    1.3186    7.4739 H         1 <0>         0.1265
     76 H34        -3.6352    1.9502    6.6104 H         1 <0>         0.1254
     77 H35        -6.5573   -0.3671    9.8511 H         1 <0>         0.3899
     78 H36        -0.9315    3.4746    8.7922 H         1 <0>         0.3457
     79 H37        -1.3855    3.3345    7.1984 H         1 <0>         0.3507
@<TRIPOS>BOND
     1    1    6 ar
     2    1    2 ar
     3    1   47 1
     4    2    3 ar
     5    2   48 1
     6    3    4 ar
     7    3   49 1
     8    4    5 ar
     9    4    7 1
    10    5    6 ar
    11    5   50 1
    12    6   51 1
    13    7    8 1
    14    7   52 1
    15    7   53 1
    16    8    9 1
    17    8   10 1
    18    8   13 1
    19   10   11 2
    20   10   12 am
    21   12   54 1
    22   12   55 1
    23   13   14 am
    24   13   56 1
    25   14   15 2
    26   14   16 1
    27   16   17 1
    28   16   18 1
    29   16   25 1
    30   18   19 1
    31   18   57 1
    32   18   58 1
    33   19   24 ar
    34   19   20 ar
    35   20   21 ar
    36   20   59 1
    37   21   22 ar
    38   21   60 1
    39   22   23 ar
    40   22   61 1
    41   23   24 ar
    42   23   62 1
    43   24   63 1
    44   25   26 am
    45   25   64 1
    46   26   27 2
    47   26   28 1
    48   28   29 1
    49   28   33 1
    50   28   30 1
    51   30   31 1
    52   30   65 1
    53   30   66 1
    54   31   32 1
    55   31   67 1
    56   31   68 1
    57   32   33 1
    58   32   69 1
    59   32   70 1
    60   33   34 am
    61   34   35 2
    62   34   36 1
    63   36   37 1
    64   36   38 1
    65   36   46 1
    66   38   39 1
    67   38   71 1
    68   38   72 1
    69   39   44 ar
    70   39   40 ar
    71   40   41 ar
    72   40   73 1
    73   41   42 ar
    74   41   74 1
    75   42   43 ar
    76   42   45 1
    77   43   44 ar
    78   43   75 1
    79   44   76 1
    80   45   77 1
    81   46   78 1
    82   46   79 1
@<TRIPOS>MOLECULE
ZINC16051972
   25    25     0     0     0
SMALL
USER_CHARGES

@<TRIPOS>ATOM
      1 C1         -0.0167    1.3781    0.0096 C.ar      1 <0>        -0.0996
      2 C2          1.1709    2.0855    0.0021 C.ar      1 <0>        -0.1063
      3 C3          2.3773    1.4107   -0.0130 C.ar      1 <0>        -0.1386
      4 C4          2.3960    0.0285   -0.0201 C.ar      1 <0>        -0.1331
      5 C5          1.2084   -0.6789   -0.0117 C.ar      1 <0>        -0.1030
      6 C6          0.0021   -0.0041    0.0020 C.ar      1 <0>        -0.1052
      7 C7          3.7112   -0.7071   -0.0376 C.3       1 <0>        -0.0928
      8 C8          4.1714   -0.9633    1.3989 C.3       1 <0>         0.0135
      9 H1          3.3868   -1.4885    1.9436 H         1 <0>         0.1671
     10 C9          5.4216   -1.8045    1.3834 C.2       1 <0>         0.5102
     11 O1          6.5063   -1.2815    1.5277 O.2       1 <0>        -0.5223
     12 N1          5.3344   -3.1381    1.2093 N.am      1 <0>        -0.8227
     13 N2          4.4519    0.3186    2.0592 N.4       1 <0>        -0.6217
     14 H2         -0.9591    1.9053    0.0259 H         1 <0>         0.1339
     15 H3          1.1563    3.1654    0.0076 H         1 <0>         0.1338
     16 H4          3.3051    1.9634   -0.0196 H         1 <0>         0.1243
     17 H5          1.2231   -1.7588   -0.0176 H         1 <0>         0.1310
     18 H6         -0.9258   -0.5567    0.0082 H         1 <0>         0.1343
     19 H7          3.5884   -1.6586   -0.5549 H         1 <0>         0.1253
     20 H8          4.4573   -0.1052   -0.5563 H         1 <0>         0.1080
     21 H9          4.4669   -3.5565    1.0939 H         1 <0>         0.4139
     22 H10         6.1391   -3.6796    1.1993 H         1 <0>         0.4259
     23 H11         3.6148    0.8819    2.0696 H         1 <0>         0.4410
     24 H12         4.7554    0.1497    3.0065 H         1 <0>         0.4414
     25 H13         5.1782    0.8048    1.5550 H         1 <0>         0.4418
@<TRIPOS>BOND
     1    1    6 ar
     2    1    2 ar
     3    1   14 1
     4    2    3 ar
     5    2   15 1
     6    3    4 ar
     7    3   16 1
     8    4    5 ar
     9    4    7 1
    10    5    6 ar
    11    5   17 1
    12    6   18 1
    13    7    8 1
    14    7   19 1
    15    7   20 1
    16    8    9 1
    17    8   10 1
    18    8   13 1
    19   10   11 2
    20   10   12 am
    21   12   21 1
    22   12   22 1
    23   13   23 1
    24   13   24 1
    25   13   25 1
@<TRIPOS>MOLECULE
ZINC16051972
   24    24     0     0     0
SMALL
USER_CHARGES
(2S)-2-amino-3-phenyl-propanamide
@<TRIPOS>ATOM
      1 C1          1.1563    3.1654    0.0076 C.ar      1 <0>        -0.1229
      2 C2          1.1750    1.7832    0.0004 C.ar      1 <0>        -0.1210
      3 C3         -0.0126    1.0758    0.0080 C.ar      1 <0>        -0.0907
      4 C4         -1.2190    1.7506    0.0173 C.ar      1 <0>        -0.0724
      5 C5         -1.2377    3.1328    0.0299 C.ar      1 <0>        -0.1204
      6 C6         -0.0501    3.8402    0.0223 C.ar      1 <0>        -0.1222
      7 C7         -2.5137    0.9795    0.0193 C.3       1 <0>        -0.0663
      8 C8         -2.9450    0.7107    1.4624 C.3       1 <0>         0.0683
      9 H1         -2.9866    1.6451    2.0414 H         1 <0>         0.1030
     10 C9         -4.2988    0.0485    1.4671 C.2       1 <0>         0.4846
     11 O1         -4.3860   -1.1522    1.6140 O.2       1 <0>        -0.5546
     12 N1         -5.4125    0.7906    1.3080 N.am      1 <0>        -0.8750
     13 N2         -1.9657   -0.1724    2.1098 N.3       1 <0>        -0.8001
     14 H2          2.0841    3.7181    0.0014 H         1 <0>         0.1194
     15 H3          2.1175    1.2560   -0.0115 H         1 <0>         0.1203
     16 H4          0.0021   -0.0041    0.0020 H         1 <0>         0.1207
     17 H5         -2.1802    3.6600    0.0410 H         1 <0>         0.1179
     18 H6         -0.0647    4.9201    0.0276 H         1 <0>         0.1198
     19 H7         -3.2908    1.5663   -0.4924 H         1 <0>         0.0799
     20 H8         -2.3717    0.0231   -0.5051 H         1 <0>         0.0792
     21 H9         -6.4006    0.3073    1.3114 H         1 <0>         0.4199
     22 H10        -5.3334    1.8796    1.1747 H         1 <0>         0.4212
     23 H11        -2.2758   -0.3656    3.1473 H         1 <0>         0.3440
     24 H12        -1.9104   -1.1238    1.5604 H         1 <0>         0.3475
@<TRIPOS>BOND
     1    1    6 ar
     2    1    2 ar
     3    1   14 1
     4    2    3 ar
     5    2   15 1
     6    3    4 ar
     7    3   16 1
     8    4    5 ar
     9    4    7 1
    10    5    6 ar
    11    5   17 1
    12    6   18 1
    13    7    8 1
    14    7   19 1
    15    7   20 1
    16    8    9 1
    17    8   10 1
    18    8   13 1
    19   10   11 2
    20   10   12 am
    21   12   21 1
    22   12   22 1
    23   13   23 1
    24   13   24 1
@<TRIPOS>MOLECULE
ZINC38334038
   61    65     0     0     0
SMALL
USER_CHARGES

@<TRIPOS>ATOM
      1 C1          0.1805    1.2630   -1.1231 C.ar      1 <0>        -0.0870
      2 C2          1.3276    2.0189   -0.9692 C.ar      1 <0>        -0.1019
      3 C3          2.5281    1.4008   -0.6732 C.ar      1 <0>        -0.1071
      4 C4          2.5814    0.0269   -0.5307 C.ar      1 <0>        -0.1404
      5 C5          1.4342   -0.7290   -0.6837 C.ar      1 <0>        -0.1187
      6 C6          0.2339   -0.1110   -0.9811 C.ar      1 <0>        -0.1022
      7 C7          3.8904   -0.6470   -0.2090 C.3       1 <0>        -0.0269
      8 C8          3.8054   -1.2850    1.1537 C.ar      1 <0>        -0.1531
      9 C9          4.3718   -0.6574    2.2473 C.ar      1 <0>        -0.1268
     10 C10         4.2938   -1.2426    3.4972 C.ar      1 <0>        -0.0911
     11 C11         3.6490   -2.4552    3.6536 C.ar      1 <0>        -0.0802
     12 C12         3.0817   -3.0825    2.5602 C.ar      1 <0>        -0.0970
     13 C13         3.1560   -2.4952    1.3110 C.ar      1 <0>        -0.1128
     14 C14         4.1820   -1.7219   -1.2580 C.3       1 <0>         0.0143
     15 H1          3.4580   -2.5306   -1.1582 H         1 <0>         0.1752
     16 C15         5.5928   -2.2738   -1.0410 C.3       1 <0>         0.0217
     17 H2          5.5397   -3.3443   -0.8427 H         1 <0>         0.1772
     18 C16         6.4215   -2.0261   -2.3083 C.3       1 <0>        -0.1193
     19 C17         5.7241   -2.7197   -3.4859 C.3       1 <0>        -0.1317
     20 C18         4.3091   -2.1536   -3.6244 C.3       1 <0>        -0.0168
     21 N1          4.0753   -1.1364   -2.5965 N.4       1 <0>        -0.3707
     22 C19         5.0132   -0.0215   -2.7480 C.3       1 <0>        -0.0273
     23 C20         6.4471   -0.5166   -2.5825 C.3       1 <0>        -0.1547
     24 N2          6.2179   -1.5921    0.1002 N.4       1 <0>        -0.5171
     25 C21         7.5833   -2.1009    0.2866 C.3       1 <0>         0.0316
     26 C22         8.1772   -1.5004    1.5347 C.ar      1 <0>        -0.1657
     27 C23         9.0274   -0.4144    1.4423 C.ar      1 <0>        -0.0764
     28 C24         9.5722    0.1365    2.5870 C.ar      1 <0>        -0.1046
     29 C25         9.2671   -0.3983    3.8250 C.ar      1 <0>        -0.0616
     30 C26         8.4172   -1.4840    3.9186 C.ar      1 <0>        -0.0995
     31 C27         7.8671   -2.0324    2.7734 C.ar      1 <0>        -0.0201
     32 Cl1         6.7942   -3.3921    2.8907 Cl        1 <0>        -0.0524
     33 H3         -0.7583    1.7463   -1.3499 H         1 <0>         0.1396
     34 H4          1.2859    3.0923   -1.0805 H         1 <0>         0.1392
     35 H5          3.4244    1.9913   -0.5536 H         1 <0>         0.1282
     36 H6          1.4760   -1.8025   -0.5731 H         1 <0>         0.1255
     37 H7         -0.6623   -0.7016   -1.1011 H         1 <0>         0.1385
     38 H8          4.6909    0.0927   -0.2145 H         1 <0>         0.1011
     39 H9          4.8757    0.2901    2.1251 H         1 <0>         0.1324
     40 H10         4.7371   -0.7525    4.3515 H         1 <0>         0.1417
     41 H11         3.5886   -2.9128    4.6301 H         1 <0>         0.1426
     42 H12         2.5782   -4.0301    2.6823 H         1 <0>         0.1420
     43 H13         2.7095   -2.9834    0.4573 H         1 <0>         0.1290
     44 H14         7.4357   -2.4031   -2.1760 H         1 <0>         0.1465
     45 H15         6.2833   -2.5335   -4.4028 H         1 <0>         0.1264
     46 H16         5.6717   -3.7923   -3.2991 H         1 <0>         0.1165
     47 H17         4.1942   -1.7042   -4.6107 H         1 <0>         0.1491
     48 H18         3.5842   -2.9595   -3.5094 H         1 <0>         0.1426
     49 H19         4.8966    0.4172   -3.7389 H         1 <0>         0.1543
     50 H20         4.8011    0.7348   -1.9922 H         1 <0>         0.1347
     51 H21         6.9160   -0.0010   -1.7444 H         1 <0>         0.0937
     52 H22         7.0095   -0.3207   -3.4954 H         1 <0>         0.1358
     53 H23         6.2503   -0.5994   -0.0776 H         1 <0>         0.4190
     54 H24         7.5565   -3.1863    0.3828 H         1 <0>         0.1473
     55 H25         8.1936   -1.8274   -0.5741 H         1 <0>         0.1494
     56 H26         9.2663    0.0035    0.4756 H         1 <0>         0.1432
     57 H27        10.2367    0.9847    2.5143 H         1 <0>         0.1486
     58 H28         9.6933    0.0323    4.7190 H         1 <0>         0.1516
     59 H29         8.1793   -1.9019    4.8856 H         1 <0>         0.1512
     60 H30         3.1403   -0.7755   -2.7135 H         1 <0>         0.4403
     61 H31         5.6771   -1.7670    0.9339 H         1 <0>         0.4329
@<TRIPOS>BOND
     1    1    6 ar
     2    1    2 ar
     3    1   33 1
     4    2    3 ar
     5    2   34 1
     6    3    4 ar
     7    3   35 1
     8    4    5 ar
     9    4    7 1
    10    5    6 ar
    11    5   36 1
    12    6   37 1
    13    7    8 1
    14    7   14 1
    15    7   38 1
    16    8   13 ar
    17    8    9 ar
    18    9   10 ar
    19    9   39 1
    20   10   11 ar
    21   10   40 1
    22   11   12 ar
    23   11   41 1
    24   12   13 ar
    25   12   42 1
    26   13   43 1
    27   14   15 1
    28   14   21 1
    29   14   16 1
    30   16   17 1
    31   16   18 1
    32   16   24 1
    33   18   23 1
    34   18   19 1
    35   18   44 1
    36   19   20 1
    37   19   45 1
    38   19   46 1
    39   20   21 1
    40   20   47 1
    41   20   48 1
    42   21   22 1
    43   21   60 1
    44   22   23 1
    45   22   49 1
    46   22   50 1
    47   23   51 1
    48   23   52 1
    49   24   25 1
    50   24   53 1
    51   24   61 1
    52   25   26 1
    53   25   54 1
    54   25   55 1
    55   26   31 ar
    56   26   27 ar
    57   27   28 ar
    58   27   56 1
    59   28   29 ar
    60   28   57 1
    61   29   30 ar
    62   29   58 1
    63   30   31 ar
    64   30   59 1
    65   31   32 1
@<TRIPOS>MOLECULE
ZINC38334038
   60    64     0     0     0
SMALL
USER_CHARGES

@<TRIPOS>ATOM
      1 C1          0.1339    1.1908   -1.0569 C.ar      1 <0>        -0.1107
      2 C2          1.2685    1.9645   -0.8990 C.ar      1 <0>        -0.1122
      3 C3          2.4818    1.3634   -0.6206 C.ar      1 <0>        -0.1129
      4 C4          2.5604   -0.0114   -0.4995 C.ar      1 <0>        -0.0593
      5 C5          1.4256   -0.7850   -0.6565 C.ar      1 <0>        -0.0975
      6 C6          0.2126   -0.1840   -0.9364 C.ar      1 <0>        -0.1117
      7 C7          3.8832   -0.6667   -0.1969 C.3       1 <0>        -0.0151
      8 C8          3.8240   -1.3136    1.1629 C.ar      1 <0>        -0.1336
      9 C9          4.3987   -0.6862    2.2524 C.ar      1 <0>        -0.1367
     10 C10         4.3444   -1.2796    3.4997 C.ar      1 <0>        -0.0978
     11 C11         3.7148   -2.5001    3.6576 C.ar      1 <0>        -0.0965
     12 C12         3.1392   -3.1270    2.5683 C.ar      1 <0>        -0.1035
     13 C13         3.1899   -2.5316    1.3218 C.ar      1 <0>        -0.1089
     14 C14         4.1791   -1.7310   -1.2555 C.3       1 <0>         0.0797
     15 H1          3.4718   -2.5539   -1.1515 H         1 <0>         0.1252
     16 C15         5.6052   -2.2562   -1.0673 C.3       1 <0>        -0.0051
     17 H2          5.5772   -3.3291   -0.8769 H         1 <0>         0.1428
     18 C16         6.4066   -1.9819   -2.3461 C.3       1 <0>        -0.1042
     19 C17         5.7107   -2.6834   -3.5194 C.3       1 <0>        -0.1466
     20 C18         4.2820   -2.1457   -3.6401 C.3       1 <0>         0.0443
     21 N1          4.0498   -1.1400   -2.5942 N.3       1 <0>        -0.4982
     22 C19         4.9566    0.0050   -2.7557 C.3       1 <0>         0.0362
     23 C20         6.4056   -0.4708   -2.6093 C.3       1 <0>        -0.1682
     24 N2          6.2362   -1.5711    0.0687 N.4       1 <0>        -0.5108
     25 C21         7.6109   -2.0618    0.2343 C.3       1 <0>         0.0306
     26 C22         8.2132   -1.4588    1.4772 C.ar      1 <0>        -0.1549
     27 C23         9.0484   -0.3617    1.3784 C.ar      1 <0>        -0.0780
     28 C24         9.6008    0.1914    2.5183 C.ar      1 <0>        -0.1071
     29 C25         9.3185   -0.3521    3.7578 C.ar      1 <0>        -0.0708
     30 C26         8.4837   -1.4488    3.8578 C.ar      1 <0>        -0.1020
     31 C27         7.9258   -1.9996    2.7176 C.ar      1 <0>        -0.0201
     32 Cl1         6.8718   -3.3732    2.8430 Cl        1 <0>        -0.0512
     33 H3         -0.8148    1.6608   -1.2701 H         1 <0>         0.1248
     34 H4          1.2071    3.0386   -0.9936 H         1 <0>         0.1245
     35 H5          3.3683    1.9679   -0.4979 H         1 <0>         0.1152
     36 H6          1.4871   -1.8592   -0.5627 H         1 <0>         0.1152
     37 H7         -0.6739   -0.7885   -1.0594 H         1 <0>         0.1242
     38 H8          4.6721    0.0854   -0.2074 H         1 <0>         0.0783
     39 H9          4.8906    0.2673    2.1289 H         1 <0>         0.1267
     40 H10         4.7941   -0.7898    4.3507 H         1 <0>         0.1330
     41 H11         3.6730   -2.9640    4.6320 H         1 <0>         0.1336
     42 H12         2.6477   -4.0808    2.6917 H         1 <0>         0.1345
     43 H13         2.7369   -3.0196    0.4715 H         1 <0>         0.1315
     44 H14         7.4291   -2.3419   -2.2322 H         1 <0>         0.1050
     45 H15         6.2561   -2.4811   -4.4412 H         1 <0>         0.0912
     46 H16         5.6825   -3.7578   -3.3378 H         1 <0>         0.0812
     47 H17         4.1470   -1.6888   -4.6204 H         1 <0>         0.0955
     48 H18         3.5736   -2.9653   -3.5197 H         1 <0>         0.0893
     49 H19         4.8156    0.4441   -3.7433 H         1 <0>         0.0986
     50 H20         4.7400    0.7511   -1.9912 H         1 <0>         0.0856
     51 H21         6.8771    0.0458   -1.7733 H         1 <0>         0.0595
     52 H22         6.9537   -0.2596   -3.5275 H         1 <0>         0.0993
     53 H23         6.2525   -0.5772   -0.1049 H         1 <0>         0.4180
     54 H24         7.6004   -3.1479    0.3258 H         1 <0>         0.1393
     55 H25         8.2057   -1.7760   -0.6332 H         1 <0>         0.1434
     56 H26         9.2695    0.0630    0.4104 H         1 <0>         0.1423
     57 H27        10.2536    1.0483    2.4406 H         1 <0>         0.1449
     58 H28         9.7508    0.0804    4.6481 H         1 <0>         0.1473
     59 H29         8.2635   -1.8735    4.8261 H         1 <0>         0.1477
     60 H30         5.7091   -1.7572    0.9087 H         1 <0>         0.4255
@<TRIPOS>BOND
     1    1    6 ar
     2    1    2 ar
     3    1   33 1
     4    2    3 ar
     5    2   34 1
     6    3    4 ar
     7    3   35 1
     8    4    5 ar
     9    4    7 1
    10    5    6 ar
    11    5   36 1
    12    6   37 1
    13    7    8 1
    14    7   14 1
    15    7   38 1
    16    8   13 ar
    17    8    9 ar
    18    9   10 ar
    19    9   39 1
    20   10   11 ar
    21   10   40 1
    22   11   12 ar
    23   11   41 1
    24   12   13 ar
    25   12   42 1
    26   13   43 1
    27   14   15 1
    28   14   21 1
    29   14   16 1
    30   16   17 1
    31   16   18 1
    32   16   24 1
    33   18   23 1
    34   18   19 1
    35   18   44 1
    36   19   20 1
    37   19   45 1
    38   19   46 1
    39   20   21 1
    40   20   47 1
    41   20   48 1
    42   21   22 1
    43   22   23 1
    44   22   49 1
    45   22   50 1
    46   23   51 1
    47   23   52 1
    48   24   25 1
    49   24   53 1
    50   24   60 1
    51   25   26 1
    52   25   54 1
    53   25   55 1
    54   26   31 ar
    55   26   27 ar
    56   27   28 ar
    57   27   56 1
    58   28   29 ar
    59   28   57 1
    60   29   30 ar
    61   29   58 1
    62   30   31 ar
    63   30   59 1
    64   31   32 1
@<TRIPOS>MOLECULE
ZINC38334038
   60    64     0     0     0
SMALL
USER_CHARGES

@<TRIPOS>ATOM
      1 C1          1.3276    1.9721   -2.6983 C.ar      1 <0>        -0.1038
      2 C2          2.5630    2.5404   -2.4495 C.ar      1 <0>        -0.1091
      3 C3          3.5319    1.8204   -1.7760 C.ar      1 <0>        -0.1120
      4 C4          3.2653    0.5323   -1.3509 C.ar      1 <0>        -0.1260
      5 C5          2.0297   -0.0356   -1.5989 C.ar      1 <0>        -0.1180
      6 C6          1.0612    0.6839   -2.2737 C.ar      1 <0>        -0.1092
      7 C7          4.3220   -0.2530   -0.6175 C.3       1 <0>         0.0006
      8 C8          3.8645   -0.5141    0.7944 C.ar      1 <0>        -0.0328
      9 C9          4.3967    0.2172    1.8398 C.ar      1 <0>        -0.0807
     10 C10         3.9770   -0.0223    3.1350 C.ar      1 <0>        -0.1020
     11 C11         3.0247   -0.9927    3.3847 C.ar      1 <0>        -0.0996
     12 C12         2.4918   -1.7233    2.3392 C.ar      1 <0>        -0.1143
     13 C13         2.9084   -1.4809    1.0435 C.ar      1 <0>        -0.1193
     14 C14         4.5555   -1.5853   -1.3325 C.3       1 <0>         0.0381
     15 H1          3.6360   -2.1705   -1.3162 H         1 <0>         0.1420
     16 C15         5.6631   -2.3597   -0.6146 C.3       1 <0>         0.0891
     17 H2          5.2717   -3.3137   -0.2613 H         1 <0>         0.1199
     18 C16         6.8121   -2.6087   -1.6005 C.3       1 <0>        -0.1390
     19 C17         6.2617   -3.3978   -2.7958 C.3       1 <0>        -0.1317
     20 C18         5.1348   -2.5901   -3.4437 C.3       1 <0>        -0.0067
     21 N1          4.9445   -1.3299   -2.7215 N.4       1 <0>        -0.3736
     22 C19         6.1595   -0.5135   -2.7749 C.3       1 <0>        -0.0129
     23 C20         7.3167   -1.2515   -2.1081 C.3       1 <0>        -0.1388
     24 N2          6.1518   -1.5750    0.5271 N.3       1 <0>        -0.6531
     25 C21         7.1228   -2.3437    1.3171 C.3       1 <0>         0.0975
     26 C22         7.4800   -1.5730    2.5620 C.ar      1 <0>        -0.0860
     27 C23         8.6125   -0.7807    2.5834 C.ar      1 <0>        -0.1030
     28 C24         8.9402   -0.0738    3.7251 C.ar      1 <0>        -0.1167
     29 C25         8.1356   -0.1587    4.8462 C.ar      1 <0>        -0.0980
     30 C26         7.0031   -0.9504    4.8260 C.ar      1 <0>        -0.1142
     31 C27         6.6715   -1.6539    3.6815 C.ar      1 <0>        -0.0052
     32 Cl1         5.2454   -2.6435    3.6531 Cl        1 <0>        -0.0496
     33 H3          0.5690    2.5363   -3.2206 H         1 <0>         0.1302
     34 H4          2.7712    3.5467   -2.7816 H         1 <0>         0.1304
     35 H5          4.4973    2.2641   -1.5822 H         1 <0>         0.1247
     36 H6          1.8217   -1.0422   -1.2674 H         1 <0>         0.1243
     37 H7          0.0960    0.2400   -2.4678 H         1 <0>         0.1299
     38 H8          5.2509    0.3170   -0.5989 H         1 <0>         0.1006
     39 H9          5.1407    0.9754    1.6447 H         1 <0>         0.1086
     40 H10         4.3934    0.5486    3.9518 H         1 <0>         0.1150
     41 H11         2.6974   -1.1803    4.3966 H         1 <0>         0.1165
     42 H12         1.7481   -2.4818    2.5343 H         1 <0>         0.1151
     43 H13         2.4893   -2.0491    0.2263 H         1 <0>         0.1051
     44 H14         7.6194   -3.1524   -1.1100 H         1 <0>         0.1187
     45 H15         7.0574   -3.5625   -3.5223 H         1 <0>         0.1010
     46 H16         5.8732   -4.3567   -2.4527 H         1 <0>         0.1011
     47 H17         5.3928   -2.3771   -4.4811 H         1 <0>         0.1311
     48 H18         4.2117   -3.1689   -3.4138 H         1 <0>         0.1300
     49 H19         6.4139   -0.3113   -3.8153 H         1 <0>         0.1319
     50 H20         5.9845    0.4297   -2.2573 H         1 <0>         0.1288
     51 H21         7.6890   -0.6632   -1.2694 H         1 <0>         0.0939
     52 H22         8.1170   -1.4068   -2.8317 H         1 <0>         0.1045
     53 H23         6.6862   -3.3026    1.5962 H         1 <0>         0.0929
     54 H24         8.0215   -2.5125    0.7239 H         1 <0>         0.0481
     55 H25         9.2416   -0.7143    1.7081 H         1 <0>         0.1247
     56 H26         9.8253    0.5448    3.7415 H         1 <0>         0.1291
     57 H27         8.3923    0.3936    5.7381 H         1 <0>         0.1327
     58 H28         6.3749   -1.0169    5.7019 H         1 <0>         0.1331
     59 H29         4.2025   -0.8149   -3.1713 H         1 <0>         0.4242
     60 H30         6.5476   -0.6989    0.2207 H         1 <0>         0.3417
@<TRIPOS>BOND
     1    1    6 ar
     2    1    2 ar
     3    1   33 1
     4    2    3 ar
     5    2   34 1
     6    3    4 ar
     7    3   35 1
     8    4    5 ar
     9    4    7 1
    10    5    6 ar
    11    5   36 1
    12    6   37 1
    13    7    8 1
    14    7   14 1
    15    7   38 1
    16    8   13 ar
    17    8    9 ar
    18    9   10 ar
    19    9   39 1
    20   10   11 ar
    21   10   40 1
    22   11   12 ar
    23   11   41 1
    24   12   13 ar
    25   12   42 1
    26   13   43 1
    27   14   15 1
    28   14   21 1
    29   14   16 1
    30   16   17 1
    31   16   18 1
    32   16   24 1
    33   18   23 1
    34   18   19 1
    35   18   44 1
    36   19   20 1
    37   19   45 1
    38   19   46 1
    39   20   21 1
    40   20   47 1
    41   20   48 1
    42   21   22 1
    43   21   59 1
    44   22   23 1
    45   22   49 1
    46   22   50 1
    47   23   51 1
    48   23   52 1
    49   24   25 1
    50   24   60 1
    51   25   26 1
    52   25   53 1
    53   25   54 1
    54   26   31 ar
    55   26   27 ar
    56   27   28 ar
    57   27   55 1
    58   28   29 ar
    59   28   56 1
    60   29   30 ar
    61   29   57 1
    62   30   31 ar
    63   30   58 1
    64   31   32 1
@<TRIPOS>MOLECULE
ZINC01605748
   44    44     0     0     0
SMALL
USER_CHARGES
2-amino-N-(1-carbamoyl-2-phenyl-ethyl)-4-methyl-pentanamide
@<TRIPOS>ATOM
      1 C1          5.8724   -1.5476    4.7439 C.3       1 <0>        -0.1550
      2 C2          4.9429   -0.3369    4.6379 C.3       1 <0>        -0.1016
      3 C3          5.5940    0.7301    3.7556 C.3       1 <0>        -0.1657
      4 C4          3.6121   -0.7684    4.0185 C.3       1 <0>        -0.1393
      5 C5          2.6322    0.4064    4.0458 C.3       1 <0>         0.0129
      6 H1          3.0707    1.2575    3.5247 H         1 <0>         0.1640
      7 C6          1.3493    0.0064    3.3637 C.2       1 <0>         0.5146
      8 O1          0.3880   -0.3235    4.0254 O.2       1 <0>        -0.5197
      9 N1          1.2703    0.0154    2.0183 N.am      1 <0>        -0.6783
     10 C7          0.0231   -0.3735    1.3552 C.3       1 <0>         0.1328
     11 H2         -0.8253   -0.0450    1.9555 H         1 <0>         0.1270
     12 C8         -0.0456    0.2810   -0.0260 C.3       1 <0>        -0.0870
     13 C9         -0.1273    1.7776    0.1308 C.ar      1 <0>        -0.0942
     14 C10        -1.3598    2.3966    0.2242 C.ar      1 <0>        -0.1110
     15 C11        -1.4346    3.7689    0.3729 C.ar      1 <0>        -0.1115
     16 C12        -0.2771    4.5233    0.4176 C.ar      1 <0>        -0.1143
     17 C13         0.9552    3.9049    0.3188 C.ar      1 <0>        -0.1176
     18 C14         1.0302    2.5321    0.1754 C.ar      1 <0>        -0.1191
     19 C15        -0.0190   -1.8722    1.2035 C.2       1 <0>         0.5083
     20 O2          0.9020   -2.5489    1.6094 O.2       1 <0>        -0.5335
     21 N2         -1.0802   -2.4606    0.6169 N.am      1 <0>        -0.8451
     22 H3          6.8366   -1.2316    5.1422 H         1 <0>         0.0702
     23 H4          5.4295   -2.2885    5.4095 H         1 <0>         0.0632
     24 H5          6.0132   -1.9852    3.7556 H         1 <0>         0.0674
     25 H6          4.7651    0.0728    5.6322 H         1 <0>         0.0656
     26 H7          4.9318    1.5926    3.6800 H         1 <0>         0.0523
     27 H8          6.5421    1.0375    4.1968 H         1 <0>         0.0738
     28 H9          5.7718    0.3204    2.7613 H         1 <0>         0.0715
     29 H10         3.1984   -1.5998    4.5891 H         1 <0>         0.1012
     30 H11         3.7757   -1.0811    2.9873 H         1 <0>         0.1205
     31 H12         2.0391    0.2793    1.4890 H         1 <0>         0.4132
     32 H13        -0.9289   -0.0777   -0.5545 H         1 <0>         0.1038
     33 H14         0.8477    0.0235   -0.5950 H         1 <0>         0.0924
     34 H15        -2.2642    1.8076    0.1848 H         1 <0>         0.1257
     35 H16        -2.3974    4.2520    0.4497 H         1 <0>         0.1275
     36 H17        -0.3357    5.5959    0.5293 H         1 <0>         0.1259
     37 H18         1.8595    4.4944    0.3534 H         1 <0>         0.1247
     38 H19         1.9930    2.0490    0.0979 H         1 <0>         0.1178
     39 H20        -1.8169   -1.9194    0.2923 H         1 <0>         0.4053
     40 H21        -1.1074   -3.4253    0.5193 H         1 <0>         0.4112
     41 H22         1.7569    1.5916    5.4837 H         1 <0>         0.4420
     42 H23         1.9436    0.0044    5.9438 H         1 <0>         0.4449
     43 N3          2.3745    0.7824    5.4471 N.4       1 <0>        -0.6307
     44 H24         3.2640    1.0189    5.9021 H         1 <0>         0.4439
@<TRIPOS>BOND
     1    1    2 1
     2    1   22 1
     3    1   23 1
     4    1   24 1
     5    2    3 1
     6    2    4 1
     7    2   25 1
     8    3   26 1
     9    3   27 1
    10    3   28 1
    11    4    5 1
    12    4   29 1
    13    4   30 1
    14    5    6 1
    15    5    7 1
    16    5   43 1
    17    7    8 2
    18    7    9 am
    19    9   10 1
    20    9   31 1
    21   10   11 1
    22   10   12 1
    23   10   19 1
    24   12   13 1
    25   12   32 1
    26   12   33 1
    27   13   18 ar
    28   13   14 ar
    29   14   15 ar
    30   14   34 1
    31   15   16 ar
    32   15   35 1
    33   16   17 ar
    34   16   36 1
    35   17   18 ar
    36   17   37 1
    37   18   38 1
    38   19   20 2
    39   19   21 am
    40   21   39 1
    41   21   40 1
    42   41   43 1
    43   42   43 1
    44   43   44 1
