@<TRIPOS>MOLECULE
ZINC02105298
   50    53     0     0     0
SMALL
USER_CHARGES
2-phenyl-N-(1-phenylpropyl)quinoline-4-carboxamide
@<TRIPOS>ATOM
      1 C1         -4.4343    1.0496    2.0764 C.3       1 <0>        -0.1473
      2 C2         -5.3944    0.0711    1.3971 C.3       1 <0>        -0.1286
      3 C3         -4.9543   -0.1529   -0.0511 C.3       1 <0>         0.1873
      4 H1         -4.8800    0.8077   -0.5609 H         1 <0>         0.1021
      5 C4         -5.9668   -1.0185   -0.7556 C.ar      1 <0>        -0.0955
      6 C5         -5.9462   -2.3894   -0.5793 C.ar      1 <0>        -0.1164
      7 C6         -6.8777   -3.1831   -1.2222 C.ar      1 <0>        -0.1141
      8 C7         -7.8242   -2.6067   -2.0485 C.ar      1 <0>        -0.1165
      9 C8         -7.8416   -1.2363   -2.2290 C.ar      1 <0>        -0.1137
     10 C9         -6.9127   -0.4422   -1.5827 C.ar      1 <0>        -0.1056
     11 N1         -3.6485   -0.8167   -0.0675 N.am      1 <0>        -0.7143
     12 C10        -2.5198   -0.0861    0.0265 C.2       1 <0>         0.5663
     13 O1         -2.5854    1.1235    0.1249 O.2       1 <0>        -0.5131
     14 C11        -1.2014   -0.7564    0.0099 C.ar      1 <0>        -0.0687
     15 C12        -1.1022   -2.1389    0.0203 C.ar      1 <0>        -0.1280
     16 C13         0.1657   -2.7407    0.0044 C.ar      1 <0>         0.1953
     17 N2          1.2710   -2.0233   -0.0207 N.ar      1 <0>        -0.4486
     18 C14         1.2424   -0.6893   -0.0314 C.ar      1 <0>         0.1341
     19 C15         0.0018   -0.0041   -0.0167 C.ar      1 <0>        -0.0668
     20 C16        -0.0174    1.3963   -0.0281 C.ar      1 <0>        -0.1030
     21 C17         1.1571    2.0871   -0.0532 C.ar      1 <0>        -0.1139
     22 C18         2.3792    1.4179   -0.0687 C.ar      1 <0>        -0.0938
     23 C19         2.4349    0.0584   -0.0579 C.ar      1 <0>        -0.0976
     24 C20         0.2640   -4.2203    0.0157 C.ar      1 <0>        -0.0569
     25 C21        -0.8924   -4.9981    0.0475 C.ar      1 <0>        -0.0995
     26 C22        -0.7949   -6.3747    0.0520 C.ar      1 <0>        -0.1223
     27 C23         0.4476   -6.9828    0.0371 C.ar      1 <0>        -0.1042
     28 C24         1.5986   -6.2159    0.0108 C.ar      1 <0>        -0.1241
     29 C25         1.5132   -4.8386    0.0003 C.ar      1 <0>        -0.0749
     30 H2         -4.7478    1.2092    3.1080 H         1 <0>         0.0502
     31 H3         -3.4254    0.6372    2.0629 H         1 <0>         0.0548
     32 H4         -4.4456    1.9997    1.5421 H         1 <0>         0.0626
     33 H5         -6.4033    0.4835    1.4106 H         1 <0>         0.0761
     34 H6         -5.3831   -0.8790    1.9313 H         1 <0>         0.0658
     35 H7         -5.2043   -2.8401    0.0633 H         1 <0>         0.1183
     36 H8         -6.8643   -4.2538   -1.0809 H         1 <0>         0.1251
     37 H9         -8.5503   -3.2270   -2.5529 H         1 <0>         0.1243
     38 H10        -8.5810   -0.7860   -2.8746 H         1 <0>         0.1259
     39 H11        -6.9263    0.6284   -1.7237 H         1 <0>         0.1257
     40 H12        -3.5961   -1.7821   -0.1461 H         1 <0>         0.3995
     41 H13        -1.9936   -2.7483    0.0408 H         1 <0>         0.1405
     42 H14        -0.9585    1.9261   -0.0214 H         1 <0>         0.1697
     43 H15         1.1404    3.1669   -0.0620 H         1 <0>         0.1308
     44 H16         3.2967    1.9873   -0.0894 H         1 <0>         0.1328
     45 H17         3.3902   -0.4450   -0.0691 H         1 <0>         0.1386
     46 H18        -1.8628   -4.5244    0.0644 H         1 <0>         0.1242
     47 H19        -1.6902   -6.9784    0.0722 H         1 <0>         0.1279
     48 H20         0.5192   -8.0604    0.0456 H         1 <0>         0.1258
     49 H21         2.5659   -6.6961   -0.0011 H         1 <0>         0.1277
     50 H22         2.4125   -4.2409   -0.0203 H         1 <0>         0.1362
@<TRIPOS>BOND
     1    1    2 1
     2    1   30 1
     3    1   31 1
     4    1   32 1
     5    2    3 1
     6    2   33 1
     7    2   34 1
     8    3    4 1
     9    3    5 1
    10    3   11 1
    11    5   10 ar
    12    5    6 ar
    13    6    7 ar
    14    6   35 1
    15    7    8 ar
    16    7   36 1
    17    8    9 ar
    18    8   37 1
    19    9   10 ar
    20    9   38 1
    21   10   39 1
    22   11   12 am
    23   11   40 1
    24   12   13 2
    25   12   14 1
    26   14   19 ar
    27   14   15 ar
    28   15   16 ar
    29   15   41 1
    30   16   17 ar
    31   16   24 1
    32   17   18 ar
    33   18   23 ar
    34   18   19 ar
    35   19   20 ar
    36   20   21 ar
    37   20   42 1
    38   21   22 ar
    39   21   43 1
    40   22   23 ar
    41   22   44 1
    42   23   45 1
    43   24   29 ar
    44   24   25 ar
    45   25   26 ar
    46   25   46 1
    47   26   27 ar
    48   26   47 1
    49   27   28 ar
    50   27   48 1
    51   28   29 ar
    52   28   49 1
    53   29   50 1
@<TRIPOS>MOLECULE
ZINC02105296
   50    53     0     0     0
SMALL
USER_CHARGES
2-phenyl-N-(1-phenylpropyl)quinoline-4-carboxamide
@<TRIPOS>ATOM
      1 C1         -0.0537    0.9445    2.5167 C.3       1 <0>        -0.1474
      2 C2         -0.7254    1.5704    1.2928 C.3       1 <0>        -0.1287
      3 C3         -0.0161    1.0954    0.0231 C.3       1 <0>         0.1872
      4 H1         -0.0015    0.0057    0.0011 H         1 <0>         0.1021
      5 C4         -0.7515    1.6125   -1.1864 C.ar      1 <0>        -0.0955
      6 C5         -0.5635    2.9167   -1.6044 C.ar      1 <0>        -0.1167
      7 C6         -1.2347    3.3896   -2.7164 C.ar      1 <0>        -0.1142
      8 C7         -2.1012    2.5613   -3.4049 C.ar      1 <0>        -0.1165
      9 C8         -2.2929    1.2586   -2.9841 C.ar      1 <0>        -0.1137
     10 C9         -1.6184    0.7843   -1.8746 C.ar      1 <0>        -0.1055
     11 N1          1.3583    1.6025    0.0127 N.am      1 <0>        -0.7142
     12 C10         2.3312    0.9256    0.6543 C.2       1 <0>         0.5662
     13 O1          2.0683   -0.1056    1.2415 O.2       1 <0>        -0.5132
     14 C11         3.7188    1.4375    0.6438 C.ar      1 <0>        -0.0688
     15 C12         4.0673    2.5426   -0.1170 C.ar      1 <0>        -0.1280
     16 C13         5.3937    3.0010   -0.1024 C.ar      1 <0>         0.1953
     17 N2          6.3226    2.4063    0.6190 N.ar      1 <0>        -0.4486
     18 C14         6.0508    1.3388    1.3721 C.ar      1 <0>         0.1340
     19 C15         4.7340    0.8163    1.4170 C.ar      1 <0>        -0.0668
     20 C16         4.4580   -0.3011    2.2150 C.ar      1 <0>        -0.1030
     21 C17         5.4572   -0.8725    2.9448 C.ar      1 <0>        -0.1139
     22 C18         6.7522   -0.3596    2.9075 C.ar      1 <0>        -0.0939
     23 C19         7.0578    0.7184    2.1354 C.ar      1 <0>        -0.0976
     24 C20         5.7590    4.1841   -0.9185 C.ar      1 <0>        -0.0569
     25 C21         4.7932    4.8250   -1.6930 C.ar      1 <0>        -0.0994
     26 C22         5.1376    5.9293   -2.4456 C.ar      1 <0>        -0.1222
     27 C23         6.4409    6.3929   -2.4421 C.ar      1 <0>        -0.1042
     28 C24         7.4047    5.7575   -1.6799 C.ar      1 <0>        -0.1241
     29 C25         7.0706    4.6561   -0.9185 C.ar      1 <0>        -0.0749
     30 H2         -0.1168   -0.1417    2.4500 H         1 <0>         0.0626
     31 H3          0.9931    1.2462    2.5508 H         1 <0>         0.0547
     32 H4         -0.5590    1.2829    3.4213 H         1 <0>         0.0503
     33 H5         -0.6623    2.6566    1.3595 H         1 <0>         0.0658
     34 H6         -1.7722    1.2687    1.2588 H         1 <0>         0.0761
     35 H7          0.1104    3.5650   -1.0641 H         1 <0>         0.1187
     36 H8         -1.0847    4.4073   -3.0454 H         1 <0>         0.1250
     37 H9         -2.6282    2.9319   -4.2717 H         1 <0>         0.1243
     38 H10        -2.9698    0.6115   -3.5220 H         1 <0>         0.1258
     39 H11        -1.7684   -0.2334   -1.5457 H         1 <0>         0.1257
     40 H12         1.5681    2.4254   -0.4560 H         1 <0>         0.3995
     41 H13         3.3239    3.0467   -0.7167 H         1 <0>         0.1406
     42 H14         3.4582   -0.7077    2.2522 H         1 <0>         0.1697
     43 H15         5.2425   -1.7341    3.5596 H         1 <0>         0.1308
     44 H16         7.5272   -0.8300    3.4943 H         1 <0>         0.1328
     45 H17         8.0665    1.1039    2.1178 H         1 <0>         0.1386
     46 H18         3.7765    4.4609   -1.7002 H         1 <0>         0.1244
     47 H19         4.3892    6.4293   -3.0425 H         1 <0>         0.1279
     48 H20         6.7069    7.2546   -3.0364 H         1 <0>         0.1257
     49 H21         8.4207    6.1238   -1.6810 H         1 <0>         0.1277
     50 H22         7.8238    4.1609   -0.3236 H         1 <0>         0.1362
@<TRIPOS>BOND
     1    1    2 1
     2    1   30 1
     3    1   31 1
     4    1   32 1
     5    2    3 1
     6    2   33 1
     7    2   34 1
     8    3    4 1
     9    3    5 1
    10    3   11 1
    11    5   10 ar
    12    5    6 ar
    13    6    7 ar
    14    6   35 1
    15    7    8 ar
    16    7   36 1
    17    8    9 ar
    18    8   37 1
    19    9   10 ar
    20    9   38 1
    21   10   39 1
    22   11   12 am
    23   11   40 1
    24   12   13 2
    25   12   14 1
    26   14   19 ar
    27   14   15 ar
    28   15   16 ar
    29   15   41 1
    30   16   17 ar
    31   16   24 1
    32   17   18 ar
    33   18   23 ar
    34   18   19 ar
    35   19   20 ar
    36   20   21 ar
    37   20   42 1
    38   21   22 ar
    39   21   43 1
    40   22   23 ar
    41   22   44 1
    42   23   45 1
    43   24   29 ar
    44   24   25 ar
    45   25   26 ar
    46   25   46 1
    47   26   27 ar
    48   26   47 1
    49   27   28 ar
    50   27   48 1
    51   28   29 ar
    52   28   49 1
    53   29   50 1
@<TRIPOS>MOLECULE
ZINC01543566
   51    54     0     0     0
SMALL
USER_CHARGES
3-hydroxy-2-phenyl-N-(1-phenylpropyl)quinoline-4-carboxamide
@<TRIPOS>ATOM
      1 C1          1.6797    2.1494   -5.4302 C.3       1 <0>        -0.1505
      2 C2          1.6218    0.6235   -5.5259 C.3       1 <0>        -0.1293
      3 C3          0.7549    0.0738   -4.3914 C.3       1 <0>         0.1865
      4 H1         -0.2258    0.5486   -4.4207 H         1 <0>         0.1009
      5 C4          0.5970   -1.4158   -4.5564 C.ar      1 <0>        -0.0945
      6 C5          1.6099   -2.2668   -4.1555 C.ar      1 <0>        -0.1156
      7 C6          1.4632   -3.6335   -4.3029 C.ar      1 <0>        -0.1149
      8 C7          0.3074   -4.1486   -4.8594 C.ar      1 <0>        -0.1165
      9 C8         -0.7033   -3.2972   -5.2651 C.ar      1 <0>        -0.1138
     10 C9         -0.5584   -1.9308   -5.1138 C.ar      1 <0>        -0.1055
     11 N1          1.3965    0.3573   -3.1052 N.am      1 <0>        -0.7155
     12 C10         1.2025    1.5475   -2.5033 C.2       1 <0>         0.5767
     13 O1          0.4949    2.3859   -3.0277 O.2       1 <0>        -0.5050
     14 C11         1.8482    1.8329   -1.2088 C.ar      1 <0>        -0.1037
     15 C12         3.1761    2.4457   -1.1381 C.ar      1 <0>        -0.0609
     16 C13         3.8856    2.7840   -2.2951 C.ar      1 <0>        -0.1058
     17 C14         5.1200    3.3537   -2.1862 C.ar      1 <0>        -0.0985
     18 C15         5.6831    3.6018   -0.9368 C.ar      1 <0>        -0.1016
     19 C16         5.0194    3.2843    0.2085 C.ar      1 <0>        -0.0816
     20 C17         3.7435    2.6957    0.1358 C.ar      1 <0>         0.1232
     21 N2          3.0716    2.3742    1.2436 N.ar      1 <0>        -0.4401
     22 C18         1.8763    1.8287    1.2111 C.ar      1 <0>         0.1917
     23 C19         1.2190    1.5307   -0.0014 C.ar      1 <0>         0.1103
     24 O2         -0.0110    0.9628    0.0073 O.3       1 <0>        -0.4734
     25 C20         1.1990    1.5104    2.4903 C.ar      1 <0>        -0.0632
     26 C21        -0.1852    1.6380    2.6000 C.ar      1 <0>        -0.0803
     27 C22        -0.8109    1.3342    3.7918 C.ar      1 <0>        -0.1272
     28 C23        -0.0664    0.9152    4.8799 C.ar      1 <0>        -0.1020
     29 C24         1.3078    0.7926    4.7789 C.ar      1 <0>        -0.1291
     30 C25         1.9441    1.0876    3.5905 C.ar      1 <0>        -0.0750
     31 H2          0.6721    2.5571   -5.5125 H         1 <0>         0.0633
     32 H3          2.1108    2.4372   -4.4713 H         1 <0>         0.0544
     33 H4          2.2973    2.5410   -6.2385 H         1 <0>         0.0521
     34 H5          2.6294    0.2158   -5.4436 H         1 <0>         0.0664
     35 H6          1.1907    0.3357   -6.4848 H         1 <0>         0.0767
     36 H7          2.5144   -1.8642   -3.7242 H         1 <0>         0.1188
     37 H8          2.2527   -4.2986   -3.9856 H         1 <0>         0.1243
     38 H9          0.1939   -5.2161   -4.9770 H         1 <0>         0.1241
     39 H10        -1.6063   -3.6996   -5.6999 H         1 <0>         0.1258
     40 H11        -1.3481   -1.2657   -5.4307 H         1 <0>         0.1256
     41 H12         1.9609   -0.3115   -2.6869 H         1 <0>         0.4007
     42 H13         3.4584    2.5956   -3.2689 H         1 <0>         0.1306
     43 H14         5.6676    3.6152   -3.0796 H         1 <0>         0.1334
     44 H15         6.6623    4.0532   -0.8756 H         1 <0>         0.1361
     45 H16         5.4703    3.4839    1.1694 H         1 <0>         0.1417
     46 H17         0.0021   -0.0041    0.0020 H         1 <0>         0.3956
     47 H18        -0.7669    1.9694    1.7526 H         1 <0>         0.1378
     48 H19        -1.8835    1.4281    3.8766 H         1 <0>         0.1271
     49 H20        -0.5601    0.6825    5.8119 H         1 <0>         0.1247
     50 H21         1.8839    0.4650    5.6317 H         1 <0>         0.1266
     51 H22         3.0169    0.9909    3.5125 H         1 <0>         0.1288
@<TRIPOS>BOND
     1    1    2 1
     2    1   31 1
     3    1   32 1
     4    1   33 1
     5    2    3 1
     6    2   34 1
     7    2   35 1
     8    3    4 1
     9    3    5 1
    10    3   11 1
    11    5   10 ar
    12    5    6 ar
    13    6    7 ar
    14    6   36 1
    15    7    8 ar
    16    7   37 1
    17    8    9 ar
    18    8   38 1
    19    9   10 ar
    20    9   39 1
    21   10   40 1
    22   11   12 am
    23   11   41 1
    24   12   13 2
    25   12   14 1
    26   14   23 ar
    27   14   15 ar
    28   15   20 ar
    29   15   16 ar
    30   16   17 ar
    31   16   42 1
    32   17   18 ar
    33   17   43 1
    34   18   19 ar
    35   18   44 1
    36   19   20 ar
    37   19   45 1
    38   20   21 ar
    39   21   22 ar
    40   22   23 ar
    41   22   25 1
    42   23   24 1
    43   24   46 1
    44   25   30 ar
    45   25   26 ar
    46   26   27 ar
    47   26   47 1
    48   27   28 ar
    49   27   48 1
    50   28   29 ar
    51   28   49 1
    52   29   30 ar
    53   29   50 1
    54   30   51 1
@<TRIPOS>MOLECULE
ZINC01543563
   53    56     0     0     0
SMALL
USER_CHARGES

@<TRIPOS>ATOM
      1 C1         -0.3657    1.3647   -0.3063 C.3       1 <0>        -0.1519
      2 C2         -0.3773   -0.1651   -0.2848 C.3       1 <0>        -0.1288
      3 C3         -1.8172   -0.6622   -0.1415 C.3       1 <0>         0.1860
      4 H1         -2.4301   -0.2341   -0.9347 H         1 <0>         0.1002
      5 C4         -1.8421   -2.1656   -0.2434 C.ar      1 <0>        -0.0949
      6 C5         -1.5083   -2.9383    0.8531 C.ar      1 <0>        -0.1145
      7 C6         -1.5311   -4.3173    0.7596 C.ar      1 <0>        -0.1145
      8 C7         -1.8881   -4.9236   -0.4303 C.ar      1 <0>        -0.1165
      9 C8         -2.2228   -4.1508   -1.5266 C.ar      1 <0>        -0.1142
     10 C9         -2.2041   -2.7719   -1.4318 C.ar      1 <0>        -0.1062
     11 N1         -2.3480   -0.2523    1.1610 N.am      1 <0>        -0.7149
     12 C10        -2.8923    0.9715    1.3119 C.2       1 <0>         0.5721
     13 O1         -2.9427    1.7349    0.3675 O.2       1 <0>        -0.5107
     14 C11        -3.4282    1.3854    2.6269 C.ar      1 <0>        -0.0732
     15 C12        -2.6247    2.0272    3.5564 C.ar      1 <0>        -0.0832
     16 C13        -3.1671    2.4057    4.7943 C.ar      1 <0>         0.2013
     17 N2         -4.4268    2.1662    5.0992 N.ar      1 <0>        -0.4482
     18 C14        -5.2509    1.5523    4.2481 C.ar      1 <0>         0.1292
     19 C15        -4.7828    1.1431    2.9744 C.ar      1 <0>        -0.0693
     20 C16        -5.6576    0.5049    2.0861 C.ar      1 <0>        -0.1018
     21 C17        -6.9522    0.2883    2.4528 C.ar      1 <0>        -0.1023
     22 C18        -7.4185    0.6938    3.7016 C.ar      1 <0>        -0.1002
     23 C19        -6.5931    1.3057    4.5937 C.ar      1 <0>        -0.0859
     24 C20        -2.3013    3.0915    5.7838 C.ar      1 <0>        -0.0520
     25 C21        -1.4526    4.1198    5.3770 C.ar      1 <0>        -0.0963
     26 C22        -0.6491    4.7544    6.3023 C.ar      1 <0>        -0.1224
     27 C23        -0.6845    4.3715    7.6312 C.ar      1 <0>        -0.1054
     28 C24        -1.5245    3.3515    8.0405 C.ar      1 <0>        -0.1232
     29 C25        -2.3373    2.7142    7.1253 C.ar      1 <0>        -0.0783
     30 C26        -1.1798    2.3160    3.2403 C.3       1 <0>        -0.1262
     31 H2          0.6600    1.7189   -0.4084 H         1 <0>         0.0511
     32 H3         -0.9586    1.7207   -1.1489 H         1 <0>         0.0619
     33 H4         -0.7904    1.7444    0.6230 H         1 <0>         0.0580
     34 H5          0.0473   -0.5448   -1.2141 H         1 <0>         0.0759
     35 H6          0.2155   -0.5211    0.5578 H         1 <0>         0.0663
     36 H7         -1.2294   -2.4646    1.7828 H         1 <0>         0.1190
     37 H8         -1.2697   -4.9210    1.6161 H         1 <0>         0.1244
     38 H9         -1.9053   -6.0009   -0.5036 H         1 <0>         0.1240
     39 H10        -2.5014   -4.6245   -2.4563 H         1 <0>         0.1256
     40 H11        -2.4691   -2.1682   -2.2872 H         1 <0>         0.1252
     41 H12        -2.3078   -0.8615    1.9147 H         1 <0>         0.4024
     42 H13        -5.3080    0.1863    1.1152 H         1 <0>         0.1268
     43 H14        -7.6255   -0.2037    1.7664 H         1 <0>         0.1316
     44 H15        -8.4488    0.5113    3.9692 H         1 <0>         0.1348
     45 H16        -6.9700    1.6139    5.5578 H         1 <0>         0.1401
     46 H17        -1.4236    4.4190    4.3397 H         1 <0>         0.1280
     47 H18         0.0089    5.5511    5.9883 H         1 <0>         0.1280
     48 H19        -0.0537    4.8708    8.3517 H         1 <0>         0.1255
     49 H20        -1.5477    3.0565    9.0792 H         1 <0>         0.1271
     50 H21        -2.9962    1.9212    7.4468 H         1 <0>         0.1272
     51 H22        -1.1082    3.2575    2.6958 H         1 <0>         0.0846
     52 H23        -0.6124    2.3887    4.1681 H         1 <0>         0.0865
     53 H24        -0.7738    1.5105    2.6282 H         1 <0>         0.0722
@<TRIPOS>BOND
     1    1    2 1
     2    1   31 1
     3    1   32 1
     4    1   33 1
     5    2    3 1
     6    2   34 1
     7    2   35 1
     8    3    4 1
     9    3    5 1
    10    3   11 1
    11    5   10 ar
    12    5    6 ar
    13    6    7 ar
    14    6   36 1
    15    7    8 ar
    16    7   37 1
    17    8    9 ar
    18    8   38 1
    19    9   10 ar
    20    9   39 1
    21   10   40 1
    22   11   12 am
    23   11   41 1
    24   12   13 2
    25   12   14 1
    26   14   19 ar
    27   14   15 ar
    28   15   16 ar
    29   15   30 1
    30   16   17 ar
    31   16   24 1
    32   17   18 ar
    33   18   23 ar
    34   18   19 ar
    35   19   20 ar
    36   20   21 ar
    37   20   42 1
    38   21   22 ar
    39   21   43 1
    40   22   23 ar
    41   22   44 1
    42   23   45 1
    43   24   29 ar
    44   24   25 ar
    45   25   26 ar
    46   25   46 1
    47   26   27 ar
    48   26   47 1
    49   27   28 ar
    50   27   48 1
    51   28   29 ar
    52   28   49 1
    53   29   50 1
    54   30   51 1
    55   30   52 1
    56   30   53 1
@<TRIPOS>MOLECULE
ZINC03958756
   48    51     0     0     0
SMALL
USER_CHARGES

@<TRIPOS>ATOM
      1 C1         -1.2645    1.6931    0.8833 C.3       1 <0>         0.0251
      2 O1         -0.9725    0.3024    0.7330 O.3       1 <0>        -0.3056
      3 C2         -0.1791   -0.0523   -0.3133 C.ar      1 <0>         0.1207
      4 C3          0.3118    0.9170   -1.1721 C.ar      1 <0>        -0.2060
      5 C4          1.1180    0.5549   -2.2357 C.ar      1 <0>        -0.0814
      6 C5          1.4368   -0.7740   -2.4452 C.ar      1 <0>        -0.1513
      7 C6          0.9513   -1.7475   -1.5924 C.ar      1 <0>        -0.0856
      8 C7          0.1464   -1.3910   -0.5202 C.ar      1 <0>         0.1342
      9 N1         -0.3417   -2.3743    0.3481 N.pl3     1 <0>        -0.6653
     10 C8         -1.6239   -3.0402    0.0789 C.3       1 <0>         0.1354
     11 C9         -1.3913   -4.5558    0.0450 C.3       1 <0>         0.0957
     12 N2         -0.6306   -4.9411    1.2420 N.am      1 <0>        -0.5893
     13 C10         0.6515   -4.2751    1.5112 C.3       1 <0>         0.0693
     14 C11         0.4216   -2.7635    1.5421 C.3       1 <0>         0.1370
     15 C12        -1.1007   -5.8879    2.0781 C.2       1 <0>         0.5904
     16 O2         -2.2166   -6.3405    1.9174 O.2       1 <0>        -0.5106
     17 C13        -0.2554   -6.3773    3.1946 C.2       1 <0>         0.0809
     18 C14        -0.6652   -7.2526    4.2236 C.2       1 <0>        -0.2295
     19 C15         0.3976   -7.4565    5.0468 C.2       1 <0>         0.1258
     20 O3          1.4355   -6.7465    4.5673 O.3       1 <0>        -0.0630
     21 N3          1.0058   -6.0772    3.3960 N.2       1 <0>        -0.2809
     22 C16         0.4106   -8.3077    6.2555 C.ar      1 <0>        -0.0445
     23 C17        -0.7407   -8.9971    6.6392 C.ar      1 <0>        -0.0666
     24 C18        -0.7225   -9.7897    7.7679 C.ar      1 <0>        -0.1101
     25 C19         0.4348   -9.9017    8.5201 C.ar      1 <0>        -0.0143
     26 C20         1.5800   -9.2197    8.1445 C.ar      1 <0>        -0.1110
     27 C21         1.5759   -8.4294    7.0141 C.ar      1 <0>        -0.0692
     28 Cl1         0.4499  -10.9007    9.9398 Cl        1 <0>        -0.0560
     29 H1         -0.3355    2.2468    1.0194 H         1 <0>         0.0543
     30 H2         -1.7762    2.0554   -0.0083 H         1 <0>         0.0545
     31 H3         -1.9046    1.8380    1.7537 H         1 <0>         0.0991
     32 H4          0.0647    1.9560   -1.0113 H         1 <0>         0.1281
     33 H5          1.4992    1.3121   -2.9047 H         1 <0>         0.1251
     34 H6          2.0665   -1.0522   -3.2774 H         1 <0>         0.1251
     35 H7          1.2016   -2.7848   -1.7586 H         1 <0>         0.1276
     36 H8         -2.3353   -2.7968    0.8681 H         1 <0>         0.0587
     37 H9         -2.0136   -2.7083   -0.8834 H         1 <0>         0.0837
     38 H10        -2.3507   -5.0731    0.0390 H         1 <0>         0.1024
     39 H11        -0.8254   -4.8191   -0.8486 H         1 <0>         0.0768
     40 H12         1.0412   -4.6071    2.4735 H         1 <0>         0.1221
     41 H13         1.3629   -4.5185    0.7220 H         1 <0>         0.0776
     42 H14         1.3825   -2.2489    1.5458 H         1 <0>         0.0835
     43 H15        -0.1408   -2.5000    2.4378 H         1 <0>         0.0557
     44 H16        -1.6489   -7.6834    4.3373 H         1 <0>         0.1727
     45 H17        -1.6440   -8.9099    6.0538 H         1 <0>         0.1443
     46 H18        -1.6127  -10.3237    8.0659 H         1 <0>         0.1456
     47 H19         2.4796   -9.3106    8.7353 H         1 <0>         0.1443
     48 H20         2.4710   -7.9021    6.7193 H         1 <0>         0.1447
@<TRIPOS>BOND
     1    1    2 1
     2    1   29 1
     3    1   30 1
     4    1   31 1
     5    2    3 1
     6    3    8 ar
     7    3    4 ar
     8    4    5 ar
     9    4   32 1
    10    5    6 ar
    11    5   33 1
    12    6    7 ar
    13    6   34 1
    14    7    8 ar
    15    7   35 1
    16    8    9 1
    17    9   14 1
    18    9   10 1
    19   10   11 1
    20   10   36 1
    21   10   37 1
    22   11   12 1
    23   11   38 1
    24   11   39 1
    25   12   13 1
    26   12   15 am
    27   13   14 1
    28   13   40 1
    29   13   41 1
    30   14   42 1
    31   14   43 1
    32   15   16 2
    33   15   17 1
    34   17   21 2
    35   17   18 1
    36   18   19 2
    37   18   44 1
    38   19   20 1
    39   19   22 1
    40   20   21 1
    41   22   27 ar
    42   22   23 ar
    43   23   24 ar
    44   23   45 1
    45   24   25 ar
    46   24   46 1
    47   25   26 ar
    48   25   28 1
    49   26   27 ar
    50   26   47 1
    51   27   48 1
@<TRIPOS>MOLECULE
ZINC09610931
   49    52     0     0     0
SMALL
USER_CHARGES

@<TRIPOS>ATOM
      1 C1         -2.9157    1.5715   -1.3941 C.3       1 <0>         0.0250
      2 O1         -2.3100    0.2947   -1.1819 O.3       1 <0>        -0.3056
      3 C2         -1.3862    0.2071   -0.1875 C.ar      1 <0>         0.1214
      4 C3         -1.0742    1.3235    0.5705 C.ar      1 <0>        -0.2058
      5 C4         -0.1345    1.2332    1.5809 C.ar      1 <0>        -0.0805
      6 C5          0.4960    0.0299    1.8382 C.ar      1 <0>        -0.1515
      7 C6          0.1900   -1.0890    1.0866 C.ar      1 <0>        -0.0858
      8 C7         -0.7556   -1.0072    0.0748 C.ar      1 <0>         0.1326
      9 N1         -1.0714   -2.1401   -0.6839 N.pl3     1 <0>        -0.6635
     10 C8         -0.3226   -2.4523   -1.9093 C.3       1 <0>         0.1375
     11 C9          0.2370   -3.8755   -1.7925 C.3       1 <0>         0.0707
     12 N2         -0.8491   -4.7746   -1.3778 N.am      1 <0>        -0.6033
     13 C10        -1.5980   -4.4624   -0.1524 C.3       1 <0>         0.0973
     14 C11        -2.1538   -3.0422   -0.2661 C.3       1 <0>         0.1344
     15 C12        -1.1532   -5.8656   -2.1083 C.2       1 <0>         0.5925
     16 O2         -2.0517   -6.6043   -1.7531 O.2       1 <0>        -0.5148
     17 C13        -0.3979   -6.1631   -3.3362 C.2       1 <0>        -0.0316
     18 C14        -0.8691   -6.8149   -4.4598 C.2       1 <0>        -0.1393
     19 C15         0.2194   -6.8540   -5.3501 C.2       1 <0>         0.0723
     20 N3          1.2363   -6.2609   -4.7611 N.2       1 <0>        -0.2590
     21 N4          0.9061   -5.8439   -3.5922 N.pl3     1 <0>        -0.3784
     22 H1          1.4953   -5.3748   -2.9809 H         1 <0>         0.4479
     23 C16         0.2212   -7.4558   -6.7072 C.ar      1 <0>        -0.0117
     24 C17        -0.9342   -8.0501   -7.2099 C.ar      1 <0>        -0.0992
     25 C18        -0.9272   -8.6077   -8.4725 C.ar      1 <0>        -0.1185
     26 C19         0.2243   -8.5774   -9.2381 C.ar      1 <0>        -0.1137
     27 C20         1.3743   -7.9890   -8.7437 C.ar      1 <0>        -0.1206
     28 C21         1.3765   -7.4230   -7.4849 C.ar      1 <0>        -0.0944
     29 H2         -2.1461    2.3017   -1.6441 H         1 <0>         0.0545
     30 H3         -3.6311    1.5026   -2.2135 H         1 <0>         0.0996
     31 H4         -3.4319    1.8840   -0.4864 H         1 <0>         0.0548
     32 H5         -1.5648    2.2650    0.3722 H         1 <0>         0.1285
     33 H6          0.1080    2.1050    2.1705 H         1 <0>         0.1255
     34 H7          1.2295   -0.0359    2.6281 H         1 <0>         0.1253
     35 H8          0.6842   -2.0277    1.2893 H         1 <0>         0.1273
     36 H9         -0.9879   -2.3903   -2.7704 H         1 <0>         0.0595
     37 H10         0.4984   -1.7450   -2.0265 H         1 <0>         0.0835
     38 H11         0.6278   -4.1953   -2.7585 H         1 <0>         0.0868
     39 H12         1.0330   -3.8957   -1.0482 H         1 <0>         0.0814
     40 H13        -2.4189   -5.1698   -0.0351 H         1 <0>         0.1034
     41 H14        -0.9326   -4.5244    0.7088 H         1 <0>         0.0740
     42 H15        -2.5420   -2.7243    0.7016 H         1 <0>         0.0835
     43 H16        -2.9526   -3.0232   -1.0076 H         1 <0>         0.0585
     44 H17        -1.8613   -7.2100   -4.6202 H         1 <0>         0.1674
     45 H18        -1.8336   -8.0748   -6.6125 H         1 <0>         0.1270
     46 H19        -1.8223   -9.0687   -8.8631 H         1 <0>         0.1269
     47 H20         0.2256   -9.0152  -10.2254 H         1 <0>         0.1239
     48 H21         2.2709   -7.9684   -9.3456 H         1 <0>         0.1255
     49 H22         2.2736   -6.9596   -7.1016 H         1 <0>         0.1288
@<TRIPOS>BOND
     1    1    2 1
     2    1   29 1
     3    1   30 1
     4    1   31 1
     5    2    3 1
     6    3    8 ar
     7    3    4 ar
     8    4    5 ar
     9    4   32 1
    10    5    6 ar
    11    5   33 1
    12    6    7 ar
    13    6   34 1
    14    7    8 ar
    15    7   35 1
    16    8    9 1
    17    9   14 1
    18    9   10 1
    19   10   11 1
    20   10   36 1
    21   10   37 1
    22   11   12 1
    23   11   38 1
    24   11   39 1
    25   12   13 1
    26   12   15 am
    27   13   14 1
    28   13   40 1
    29   13   41 1
    30   14   42 1
    31   14   43 1
    32   15   16 2
    33   15   17 1
    34   17   21 1
    35   17   18 2
    36   18   19 1
    37   18   44 1
    38   19   20 2
    39   19   23 1
    40   20   21 1
    41   21   22 1
    42   23   28 ar
    43   23   24 ar
    44   24   25 ar
    45   24   45 1
    46   25   26 ar
    47   25   46 1
    48   26   27 ar
    49   26   47 1
    50   27   28 ar
    51   27   48 1
    52   28   49 1
@<TRIPOS>MOLECULE
ZINC71296558
   52    55     0     0     0
SMALL
USER_CHARGES

@<TRIPOS>ATOM
      1 C1          0.7045   -3.1874   -1.4727 C.3       1 <0>         0.0892
      2 N1          0.2902   -2.0466   -0.6522 N.pl3     1 <0>        -0.2489
      3 C2          0.0747   -0.7805   -1.1195 C.2       1 <0>        -0.0277
      4 C3         -0.2982   -0.0188   -0.0286 C.2       1 <0>        -0.1848
      5 C4         -0.2835   -0.9040    1.0647 C.2       1 <0>         0.0614
      6 N2          0.0700   -2.0886    0.6123 N.2       1 <0>        -0.2582
      7 C5         -0.6122   -0.5650    2.4721 C.ar      1 <0>         0.0000
      8 C6         -0.9835    0.7347    2.8094 C.ar      1 <0>        -0.0895
      9 C7         -1.2886    1.0449    4.1190 C.ar      1 <0>        -0.1072
     10 C8         -1.2257    0.0672    5.0970 C.ar      1 <0>        -0.0319
     11 C9         -0.8573   -1.2257    4.7667 C.ar      1 <0>        -0.1082
     12 C10        -0.5559   -1.5469    3.4588 C.ar      1 <0>        -0.0831
     13 Cl1        -1.6095    0.4637    6.7429 Cl        1 <0>        -0.0677
     14 C11         0.2135   -0.3191   -2.5104 C.2       1 <0>         0.5909
     15 O1          0.1756   -1.1212   -3.4238 O.2       1 <0>        -0.5374
     16 N3          0.3825    0.9923   -2.7716 N.am      1 <0>        -0.5875
     17 C12         0.5757    1.9541   -1.6774 C.3       1 <0>         0.0600
     18 C13         1.8774    2.7258   -1.9275 C.3       1 <0>         0.1353
     19 N4          1.8722    3.2194   -3.3117 N.pl3     1 <0>        -0.6654
     20 C14         1.6789    2.2575   -4.4059 C.3       1 <0>         0.1356
     21 C15         0.3828    1.4851   -4.1562 C.3       1 <0>         0.0999
     22 C16         2.0477    4.5812   -3.5831 C.ar      1 <0>         0.1345
     23 C17         3.3216    5.0912   -3.7871 C.ar      1 <0>        -0.0856
     24 C18         3.4923    6.4363   -4.0554 C.ar      1 <0>        -0.1510
     25 C19         2.3959    7.2761   -4.1211 C.ar      1 <0>        -0.0818
     26 C20         1.1232    6.7748   -3.9188 C.ar      1 <0>        -0.2059
     27 C21         0.9431    5.4272   -3.6547 C.ar      1 <0>         0.1202
     28 O2         -0.3087    4.9318   -3.4606 O.3       1 <0>        -0.3052
     29 C22        -1.3936    5.8576   -3.5489 C.3       1 <0>         0.0248
     30 H1         -0.1728   -3.6403   -1.9346 H         1 <0>         0.0916
     31 H2          1.3890   -2.8466   -2.2495 H         1 <0>         0.1009
     32 H3          1.2054   -3.9239   -0.8444 H         1 <0>         0.0989
     33 H4         -0.5477    1.0319   -0.0176 H         1 <0>         0.1757
     34 H5         -1.0321    1.4983    2.0472 H         1 <0>         0.1353
     35 H6         -1.5765    2.0522    4.3815 H         1 <0>         0.1382
     36 H7         -0.8093   -1.9851    5.5331 H         1 <0>         0.1370
     37 H8         -0.2730   -2.5569    3.2013 H         1 <0>         0.1388
     38 H9         -0.2626    2.6501   -1.6498 H         1 <0>         0.0807
     39 H10         0.6430    1.4208   -0.7292 H         1 <0>         0.1149
     40 H11         1.9412    3.5683   -1.2389 H         1 <0>         0.0820
     41 H12         2.7299    2.0631   -1.7786 H         1 <0>         0.0553
     42 H13         1.6116    2.7908   -5.3542 H         1 <0>         0.0818
     43 H14         2.5173    1.5615   -4.4335 H         1 <0>         0.0557
     44 H15         0.3228    0.6421   -4.8446 H         1 <0>         0.0981
     45 H16        -0.4696    2.1469   -4.3092 H         1 <0>         0.0774
     46 H17         4.1797    4.4374   -3.7360 H         1 <0>         0.1283
     47 H18         4.4845    6.8324   -4.2137 H         1 <0>         0.1248
     48 H19         2.5340    8.3266   -4.3306 H         1 <0>         0.1248
     49 H20         0.2689    7.4336   -3.9708 H         1 <0>         0.1277
     50 H21        -1.2677    6.6376   -2.7980 H         1 <0>         0.0545
     51 H22        -1.4074    6.3076   -4.5415 H         1 <0>         0.0541
     52 H23        -2.3334    5.3337   -3.3744 H         1 <0>         0.0987
@<TRIPOS>BOND
     1    1    2 1
     2    1   30 1
     3    1   31 1
     4    1   32 1
     5    2    6 1
     6    2    3 1
     7    3    4 2
     8    3   14 1
     9    4    5 1
    10    4   33 1
    11    5    6 2
    12    5    7 1
    13    7   12 ar
    14    7    8 ar
    15    8    9 ar
    16    8   34 1
    17    9   10 ar
    18    9   35 1
    19   10   11 ar
    20   10   13 1
    21   11   12 ar
    22   11   36 1
    23   12   37 1
    24   14   15 2
    25   14   16 am
    26   16   21 1
    27   16   17 1
    28   17   18 1
    29   17   38 1
    30   17   39 1
    31   18   19 1
    32   18   40 1
    33   18   41 1
    34   19   20 1
    35   19   22 1
    36   20   21 1
    37   20   42 1
    38   20   43 1
    39   21   44 1
    40   21   45 1
    41   22   27 ar
    42   22   23 ar
    43   23   24 ar
    44   23   46 1
    45   24   25 ar
    46   24   47 1
    47   25   26 ar
    48   25   48 1
    49   26   27 ar
    50   26   49 1
    51   27   28 1
    52   28   29 1
    53   29   50 1
    54   29   51 1
    55   29   52 1
@<TRIPOS>MOLECULE
ZINC13366568
   52    55     0     0     0
SMALL
USER_CHARGES

@<TRIPOS>ATOM
      1 C1          1.5712    1.3127   -0.3983 C.3       1 <0>        -0.1178
      2 C2          1.2268   -0.1521   -0.3156 C.ar      1 <0>        -0.0794
      3 C3          0.5443   -0.7592   -1.3543 C.ar      1 <0>        -0.1217
      4 C4          0.2263   -2.1004   -1.2837 C.ar      1 <0>        -0.0894
      5 C5          0.5941   -2.8429   -0.1638 C.ar      1 <0>        -0.0176
      6 C6          1.2814   -2.2265    0.8794 C.ar      1 <0>        -0.0941
      7 C7          1.5993   -0.8859    0.7961 C.ar      1 <0>        -0.1196
      8 C8          0.2543   -4.2857   -0.0822 C.2       1 <0>         0.0725
      9 C9          0.5563   -5.1516    0.9847 C.2       1 <0>        -0.1384
     10 C10         0.0463   -6.3806    0.6124 C.2       1 <0>        -0.0330
     11 N1         -0.5205   -6.2076   -0.6191 N.pl3     1 <0>        -0.3784
     12 H1         -0.9602   -6.9030   -1.1328 H         1 <0>         0.4477
     13 N2         -0.3892   -4.9858   -0.9924 N.2       1 <0>        -0.2594
     14 C11         0.1026   -7.6299    1.3888 C.2       1 <0>         0.5925
     15 O1          0.2274   -7.5892    2.5980 O.2       1 <0>        -0.5163
     16 N3          0.0158   -8.8187    0.7599 N.am      1 <0>        -0.6032
     17 C12         0.0209   -8.8905   -0.7080 C.3       1 <0>         0.0727
     18 C13         1.1494   -9.8309   -1.1487 C.3       1 <0>         0.1380
     19 N4          1.0485  -11.0787   -0.3789 N.pl3     1 <0>        -0.6642
     20 C14         1.0434  -11.0069    1.0890 C.3       1 <0>         0.1343
     21 C15        -0.0795  -10.0670    1.5298 C.3       1 <0>         0.0993
     22 C16         0.9584  -12.3133   -1.0320 C.ar      1 <0>         0.1333
     23 C17         2.1101  -13.0213   -1.3432 C.ar      1 <0>        -0.0848
     24 C18         2.0185  -14.2405   -1.9878 C.ar      1 <0>        -0.1505
     25 C19         0.7810  -14.7573   -2.3238 C.ar      1 <0>        -0.0811
     26 C20        -0.3714  -14.0573   -2.0168 C.ar      1 <0>        -0.2056
     27 C21        -0.2884  -12.8374   -1.3663 C.ar      1 <0>         0.1198
     28 O2         -1.4213  -12.1502   -1.0590 O.3       1 <0>        -0.3067
     29 C22        -2.6643  -12.7484   -1.4321 C.3       1 <0>         0.0247
     30 H2          2.5457    1.4306   -0.8722 H         1 <0>         0.0720
     31 H3          0.8152    1.8310   -0.9882 H         1 <0>         0.0672
     32 H4          1.6018    1.7360    0.6057 H         1 <0>         0.0676
     33 H5          0.2593   -0.1826   -2.2219 H         1 <0>         0.1250
     34 H6         -0.3070   -2.5734   -2.0951 H         1 <0>         0.1289
     35 H7          1.5688   -2.7975    1.7499 H         1 <0>         0.1273
     36 H8          2.1359   -0.4080    1.6023 H         1 <0>         0.1265
     37 H9          1.0759   -4.9077    1.8996 H         1 <0>         0.1675
     38 H10        -0.9358   -9.2777   -1.0586 H         1 <0>         0.0835
     39 H11         0.1901   -7.8966   -1.1222 H         1 <0>         0.0849
     40 H12         1.0502  -10.0481   -2.2122 H         1 <0>         0.0832
     41 H13         2.1137   -9.3600   -0.9574 H         1 <0>         0.0588
     42 H14         0.8742  -12.0008    1.5033 H         1 <0>         0.0830
     43 H15         2.0001  -10.6198    1.4396 H         1 <0>         0.0580
     44 H16         0.0234   -9.8498    2.5929 H         1 <0>         0.1003
     45 H17        -1.0435  -10.5398    1.3421 H         1 <0>         0.0771
     46 H18         3.0781  -12.6197   -1.0822 H         1 <0>         0.1290
     47 H19         2.9158  -14.7906   -2.2299 H         1 <0>         0.1255
     48 H20         0.7141  -15.7102   -2.8278 H         1 <0>         0.1254
     49 H21        -1.3365  -14.4639   -2.2807 H         1 <0>         0.1280
     50 H22        -2.6904  -12.8881   -2.5128 H         1 <0>         0.0545
     51 H23        -2.7650  -13.7149   -0.9383 H         1 <0>         0.0549
     52 H24        -3.4855  -12.0986   -1.1297 H         1 <0>         0.0985
@<TRIPOS>BOND
     1    1    2 1
     2    1   30 1
     3    1   31 1
     4    1   32 1
     5    2    7 ar
     6    2    3 ar
     7    3    4 ar
     8    3   33 1
     9    4    5 ar
    10    4   34 1
    11    5    6 ar
    12    5    8 1
    13    6    7 ar
    14    6   35 1
    15    7   36 1
    16    8   13 2
    17    8    9 1
    18    9   10 2
    19    9   37 1
    20   10   11 1
    21   10   14 1
    22   11   12 1
    23   11   13 1
    24   14   15 2
    25   14   16 am
    26   16   21 1
    27   16   17 1
    28   17   18 1
    29   17   38 1
    30   17   39 1
    31   18   19 1
    32   18   40 1
    33   18   41 1
    34   19   20 1
    35   19   22 1
    36   20   21 1
    37   20   42 1
    38   20   43 1
    39   21   44 1
    40   21   45 1
    41   22   27 ar
    42   22   23 ar
    43   23   24 ar
    44   23   46 1
    45   24   25 ar
    46   24   47 1
    47   25   26 ar
    48   25   48 1
    49   26   27 ar
    50   26   49 1
    51   27   28 1
    52   28   29 1
    53   29   50 1
    54   29   51 1
    55   29   52 1
@<TRIPOS>MOLECULE
ZINC15679354
   49    52     0     0     0
SMALL
USER_CHARGES

@<TRIPOS>ATOM
      1 C1          2.6436    1.6492   -1.7942 C.3       1 <0>         0.0249
      2 O1          2.1773    0.3568   -1.4015 O.3       1 <0>        -0.3056
      3 C2          0.8558    0.2424   -1.1006 C.ar      1 <0>         0.1215
      4 C3          0.0259    1.3479   -1.1871 C.ar      1 <0>        -0.2057
      5 C4         -1.3174    1.2302   -0.8804 C.ar      1 <0>        -0.0804
      6 C5         -1.8363    0.0104   -0.4874 C.ar      1 <0>        -0.1515
      7 C6         -1.0149   -1.0977   -0.3989 C.ar      1 <0>        -0.0858
      8 C7          0.3326   -0.9883   -0.7102 C.ar      1 <0>         0.1324
      9 N1          1.1653   -2.1103   -0.6270 N.pl3     1 <0>        -0.6635
     10 C8          1.8572   -2.4368    0.6278 C.3       1 <0>         0.1374
     11 C9          1.4988   -3.8741    1.0253 C.3       1 <0>         0.0707
     12 N2          1.6965   -4.7470   -0.1404 N.am      1 <0>        -0.6030
     13 C10         1.0046   -4.4204   -1.3952 C.3       1 <0>         0.0973
     14 C11         1.3586   -2.9862   -1.7911 C.3       1 <0>         0.1343
     15 C12         2.4984   -5.8273   -0.0603 C.2       1 <0>         0.5920
     16 O2          2.6514   -6.5444   -1.0308 O.2       1 <0>        -0.5143
     17 C13         3.1889   -6.1394    1.2015 C.2       1 <0>        -0.0297
     18 C14         4.4077   -6.7752    1.3423 C.2       1 <0>        -0.1389
     19 C15         4.6356   -6.8381    2.7291 C.2       1 <0>         0.0715
     20 N3          3.6082   -6.2725    3.3268 N.2       1 <0>        -0.2575
     21 N4          2.7540   -5.8521    2.4649 N.pl3     1 <0>        -0.3768
     22 H1          1.9227   -5.4004    2.6788 H         1 <0>         0.4486
     23 C16         5.8195   -7.4347    3.3971 C.ar      1 <0>        -0.0204
     24 C17         6.8410   -7.9982    2.6357 C.ar      1 <0>        -0.0697
     25 C18         7.9400   -8.5513    3.2606 C.ar      1 <0>        -0.1510
     26 C19         8.0281   -8.5472    4.6432 C.ar      1 <0>         0.1044
     27 C20         7.0144   -7.9878    5.4041 C.ar      1 <0>        -0.1531
     28 C21         5.9148   -7.4275    4.7870 C.ar      1 <0>        -0.0650
     29 F1          9.1053   -9.0905    5.2511 F         1 <0>        -0.1376
     30 H2          3.7119    1.6013   -2.0053 H         1 <0>         0.0996
     31 H3          2.1106    1.9715   -2.6888 H         1 <0>         0.0548
     32 H4          2.4641    2.3607   -0.9882 H         1 <0>         0.0546
     33 H5          0.4280    2.3021   -1.4938 H         1 <0>         0.1285
     34 H6         -1.9628    2.0935   -0.9478 H         1 <0>         0.1255
     35 H7         -2.8859   -0.0766   -0.2485 H         1 <0>         0.1253
     36 H8         -1.4227   -2.0492   -0.0913 H         1 <0>         0.1273
     37 H9          2.9345   -2.3550    0.4835 H         1 <0>         0.0596
     38 H10         1.5374   -1.7500    1.4114 H         1 <0>         0.0836
     39 H11         2.1451   -4.2002    1.8402 H         1 <0>         0.0866
     40 H12         0.4567   -3.9171    1.3419 H         1 <0>         0.0817
     41 H13         1.3245   -5.1072   -2.1788 H         1 <0>         0.1035
     42 H14        -0.0727   -4.5022   -1.2509 H         1 <0>         0.0742
     43 H15         0.7095   -2.6621   -2.6046 H         1 <0>         0.0836
     44 H16         2.3996   -2.9444   -2.1116 H         1 <0>         0.0586
     45 H17         5.0483   -7.1453    0.5555 H         1 <0>         0.1685
     46 H18         6.7728   -8.0025    1.5578 H         1 <0>         0.1385
     47 H19         8.7323   -8.9884    2.6711 H         1 <0>         0.1409
     48 H20         7.0868   -7.9869    6.4817 H         1 <0>         0.1395
     49 H21         5.1271   -6.9876    5.3807 H         1 <0>         0.1400
@<TRIPOS>BOND
     1    1    2 1
     2    1   30 1
     3    1   31 1
     4    1   32 1
     5    2    3 1
     6    3    8 ar
     7    3    4 ar
     8    4    5 ar
     9    4   33 1
    10    5    6 ar
    11    5   34 1
    12    6    7 ar
    13    6   35 1
    14    7    8 ar
    15    7   36 1
    16    8    9 1
    17    9   14 1
    18    9   10 1
    19   10   11 1
    20   10   37 1
    21   10   38 1
    22   11   12 1
    23   11   39 1
    24   11   40 1
    25   12   13 1
    26   12   15 am
    27   13   14 1
    28   13   41 1
    29   13   42 1
    30   14   43 1
    31   14   44 1
    32   15   16 2
    33   15   17 1
    34   17   21 1
    35   17   18 2
    36   18   19 1
    37   18   45 1
    38   19   20 2
    39   19   23 1
    40   20   21 1
    41   21   22 1
    42   23   28 ar
    43   23   24 ar
    44   24   25 ar
    45   24   46 1
    46   25   26 ar
    47   25   47 1
    48   26   27 ar
    49   26   29 1
    50   27   28 ar
    51   27   48 1
    52   28   49 1
@<TRIPOS>MOLECULE
ZINC14049704
   49    52     0     0     0
SMALL
USER_CHARGES

@<TRIPOS>ATOM
      1 C1          1.3541    1.7301    0.6487 C.3       1 <0>         0.0253
      2 O1          1.1131    0.3321    0.4768 O.3       1 <0>        -0.3052
      3 C2         -0.1803   -0.0562    0.3149 C.ar      1 <0>         0.1196
      4 C3         -1.1938    0.8878    0.3157 C.ar      1 <0>        -0.2065
      5 C4         -2.5084    0.4915    0.1515 C.ar      1 <0>        -0.0828
      6 C5         -2.8156   -0.8462   -0.0144 C.ar      1 <0>        -0.1518
      7 C6         -1.8099   -1.7945   -0.0169 C.ar      1 <0>        -0.0862
      8 C7         -0.4883   -1.4039    0.1421 C.ar      1 <0>         0.1367
      9 N1          0.5323   -2.3616    0.1341 N.pl3     1 <0>        -0.6659
     10 C8          0.9575   -3.0119    1.3816 C.3       1 <0>         0.1360
     11 C9          0.8502   -4.5314    1.2033 C.3       1 <0>         0.0962
     12 N2          1.5156   -4.9051   -0.0527 N.am      1 <0>        -0.5949
     13 C10         1.0904   -4.2547   -1.3002 C.3       1 <0>         0.0708
     14 C11         1.1938   -2.7393   -1.1227 C.3       1 <0>         0.1361
     15 C12         2.4984   -5.8273   -0.0603 C.2       1 <0>         0.6029
     16 O2          2.9287   -6.2657    0.9887 O.2       1 <0>        -0.5300
     17 C13         3.0527   -6.3055   -1.3436 C.2       1 <0>        -0.0035
     18 C14         4.1695   -7.1533   -1.5083 C.2       1 <0>        -0.1513
     19 C15         4.3041   -7.3200   -2.8582 C.2       1 <0>         0.0582
     20 N3          3.3071   -6.5988   -3.4460 N.pl3     1 <0>        -0.3782
     21 H1          3.1574   -6.5326   -4.4021 H         1 <0>         0.4465
     22 N4          2.5925   -6.0240   -2.5466 N.2       1 <0>        -0.2453
     23 C16         5.3343   -8.1274   -3.5492 C.ar      1 <0>        -0.0191
     24 C17         6.2937   -8.8192   -2.8098 C.ar      1 <0>        -0.0807
     25 C18         7.2517   -9.5702   -3.4592 C.ar      1 <0>        -0.1013
     26 C19         7.2619   -9.6379   -4.8421 C.ar      1 <0>        -0.0297
     27 C20         6.3123   -8.9528   -5.5810 C.ar      1 <0>        -0.1021
     28 C21         5.3459   -8.2038   -4.9420 C.ar      1 <0>        -0.1025
     29 Cl1         8.4703  -10.5848   -5.6526 Cl        1 <0>        -0.0613
     30 H2          2.4239    1.9026    0.7668 H         1 <0>         0.0988
     31 H3          0.9931    2.2713   -0.2259 H         1 <0>         0.0538
     32 H4          0.8291    2.0828    1.5365 H         1 <0>         0.0542
     33 H5         -0.9573    1.9336    0.4450 H         1 <0>         0.1274
     34 H6         -3.2974    1.2290    0.1531 H         1 <0>         0.1244
     35 H7         -3.8438   -1.1511   -0.1420 H         1 <0>         0.1244
     36 H8         -2.0527   -2.8389   -0.1462 H         1 <0>         0.1276
     37 H9          1.9902   -2.7414    1.6016 H         1 <0>         0.0570
     38 H10         0.3111   -2.6929    2.1992 H         1 <0>         0.0800
     39 H11         1.3380   -5.0331    2.0390 H         1 <0>         0.0995
     40 H12        -0.1996   -4.8216    1.1616 H         1 <0>         0.0713
     41 H13         1.7368   -4.5737   -2.1178 H         1 <0>         0.1303
     42 H14         0.0576   -4.5252   -1.5201 H         1 <0>         0.0682
     43 H15         0.7034   -2.2403   -1.9586 H         1 <0>         0.0781
     44 H16         2.2438   -2.4489   -1.0851 H         1 <0>         0.0531
     45 H17         4.7870   -7.5800   -0.7317 H         1 <0>         0.1687
     46 H18         6.2868   -8.7668   -1.7311 H         1 <0>         0.1424
     47 H19         7.9952  -10.1060   -2.8878 H         1 <0>         0.1422
     48 H20         6.3252   -9.0088   -6.6595 H         1 <0>         0.1398
     49 H21         4.6027   -7.6737   -5.5192 H         1 <0>         0.1287
@<TRIPOS>BOND
     1    1    2 1
     2    1   30 1
     3    1   31 1
     4    1   32 1
     5    2    3 1
     6    3    8 ar
     7    3    4 ar
     8    4    5 ar
     9    4   33 1
    10    5    6 ar
    11    5   34 1
    12    6    7 ar
    13    6   35 1
    14    7    8 ar
    15    7   36 1
    16    8    9 1
    17    9   14 1
    18    9   10 1
    19   10   11 1
    20   10   37 1
    21   10   38 1
    22   11   12 1
    23   11   39 1
    24   11   40 1
    25   12   13 1
    26   12   15 am
    27   13   14 1
    28   13   41 1
    29   13   42 1
    30   14   43 1
    31   14   44 1
    32   15   16 2
    33   15   17 1
    34   17   22 2
    35   17   18 1
    36   18   19 2
    37   18   45 1
    38   19   20 1
    39   19   23 1
    40   20   21 1
    41   20   22 1
    42   23   28 ar
    43   23   24 ar
    44   24   25 ar
    45   24   46 1
    46   25   26 ar
    47   25   47 1
    48   26   27 ar
    49   26   29 1
    50   27   28 ar
    51   27   48 1
    52   28   49 1
@<TRIPOS>MOLECULE
ZINC12050373
   48    51     0     0     0
SMALL
USER_CHARGES
N-(carbamoyl-phenyl-methyl)-2-phenyl-quinoline-4-carboxamide
@<TRIPOS>ATOM
      1 C1          0.4901   -6.9870    0.0209 C.ar      1 <0>        -0.1043
      2 C2          1.6329   -6.2077   -0.0010 C.ar      1 <0>        -0.1244
      3 C3          1.5328   -4.8314   -0.0077 C.ar      1 <0>        -0.0742
      4 C4          0.2769   -4.2266    0.0077 C.ar      1 <0>        -0.0573
      5 C5         -0.8711   -5.0169    0.0356 C.ar      1 <0>        -0.0994
      6 C6         -0.7588   -6.3923    0.0362 C.ar      1 <0>        -0.1223
      7 C7          0.1627   -2.7481    0.0006 C.ar      1 <0>         0.1993
      8 C8         -1.1148   -2.1676    0.0165 C.ar      1 <0>        -0.1210
      9 C9         -1.2348   -0.7854    0.0101 C.ar      1 <0>        -0.0682
     10 C10         0.0019   -0.0041   -0.0133 C.ar      1 <0>        -0.0654
     11 C11        -0.0173    1.3950   -0.0208 C.ar      1 <0>        -0.0994
     12 C12         1.1587    2.0845   -0.0423 C.ar      1 <0>        -0.1115
     13 C13         2.3795    1.4133   -0.0577 C.ar      1 <0>        -0.0968
     14 C14         2.4341    0.0536   -0.0505 C.ar      1 <0>        -0.0937
     15 C15         1.2410   -0.6925   -0.0280 C.ar      1 <0>         0.1306
     16 N1          1.2629   -2.0263   -0.0208 N.ar      1 <0>        -0.4491
     17 C16        -2.5598   -0.1282    0.0267 C.2       1 <0>         0.5763
     18 O1         -2.6373    1.0808    0.1252 O.2       1 <0>        -0.5166
     19 N2         -3.6812   -0.8699   -0.0675 N.am      1 <0>        -0.6997
     20 C17        -4.9935   -0.2189   -0.0510 C.3       1 <0>         0.1729
     21 H1         -4.9287    0.7423   -0.5607 H         1 <0>         0.1283
     22 C18        -5.9974   -1.0945   -0.7557 C.ar      1 <0>        -0.1028
     23 C19        -5.9632   -2.4652   -0.5795 C.ar      1 <0>        -0.1083
     24 C20        -6.8868   -3.2679   -1.2225 C.ar      1 <0>        -0.1104
     25 C21        -7.8389   -2.7008   -2.0488 C.ar      1 <0>        -0.1084
     26 C22        -7.8698   -1.3307   -2.2291 C.ar      1 <0>        -0.1114
     27 C23        -6.9489   -0.5275   -1.5828 C.ar      1 <0>        -0.1038
     28 C24        -5.4292   -0.0028    1.3754 C.2       1 <0>         0.5130
     29 O2         -4.7139   -0.3576    2.2883 O.2       1 <0>        -0.5260
     30 N3         -6.6137    0.5847    1.6365 N.am      1 <0>        -0.8473
     31 H2          0.5733   -8.0637    0.0256 H         1 <0>         0.1255
     32 H3          2.6054   -6.6774   -0.0126 H         1 <0>         0.1276
     33 H4          2.4256   -4.2240   -0.0251 H         1 <0>         0.1365
     34 H5         -1.8466   -4.5536    0.0521 H         1 <0>         0.1244
     35 H6         -1.6475   -7.0056    0.0536 H         1 <0>         0.1278
     36 H7         -1.9965   -2.7910    0.0339 H         1 <0>         0.1417
     37 H8         -0.9580    1.9255   -0.0141 H         1 <0>         0.1631
     38 H9          1.1437    3.1644   -0.0481 H         1 <0>         0.1314
     39 H10         3.2978    1.9816   -0.0750 H         1 <0>         0.1332
     40 H11         3.3890   -0.4508   -0.0616 H         1 <0>         0.1392
     41 H12        -3.6193   -1.8347   -0.1461 H         1 <0>         0.4053
     42 H13        -5.2170   -2.9085    0.0631 H         1 <0>         0.1218
     43 H14        -6.8629   -4.3384   -1.0814 H         1 <0>         0.1288
     44 H15        -8.5588   -3.3283   -2.5533 H         1 <0>         0.1277
     45 H16        -8.6137   -0.8876   -2.8747 H         1 <0>         0.1299
     46 H17        -6.9731    0.5430   -1.7236 H         1 <0>         0.1298
     47 H18        -7.1858    0.8685    0.9063 H         1 <0>         0.4020
     48 H19        -6.8942    0.7238    2.5546 H         1 <0>         0.4060
@<TRIPOS>BOND
     1    1    6 ar
     2    1    2 ar
     3    1   31 1
     4    2    3 ar
     5    2   32 1
     6    3    4 ar
     7    3   33 1
     8    4    5 ar
     9    4    7 1
    10    5    6 ar
    11    5   34 1
    12    6   35 1
    13    7   16 ar
    14    7    8 ar
    15    8    9 ar
    16    8   36 1
    17    9   10 ar
    18    9   17 1
    19   10   15 ar
    20   10   11 ar
    21   11   12 ar
    22   11   37 1
    23   12   13 ar
    24   12   38 1
    25   13   14 ar
    26   13   39 1
    27   14   15 ar
    28   14   40 1
    29   15   16 ar
    30   17   18 2
    31   17   19 am
    32   19   20 1
    33   19   41 1
    34   20   21 1
    35   20   22 1
    36   20   28 1
    37   22   27 ar
    38   22   23 ar
    39   23   24 ar
    40   23   42 1
    41   24   25 ar
    42   24   43 1
    43   25   26 ar
    44   25   44 1
    45   26   27 ar
    46   26   45 1
    47   27   46 1
    48   28   29 2
    49   28   30 am
    50   30   47 1
    51   30   48 1
@<TRIPOS>MOLECULE
ZINC12050375
   48    51     0     0     0
SMALL
USER_CHARGES
N-(carbamoyl-phenyl-methyl)-2-phenyl-quinoline-4-carboxamide
@<TRIPOS>ATOM
      1 C1          6.4540    6.3855   -2.4339 C.ar      1 <0>        -0.1044
      2 C2          7.4169    5.7492   -1.6714 C.ar      1 <0>        -0.1243
      3 C3          7.0817    4.6478   -0.9105 C.ar      1 <0>        -0.0743
      4 C4          5.7696    4.1771   -0.9108 C.ar      1 <0>        -0.0571
      5 C5          4.8046    4.8191   -1.6853 C.ar      1 <0>        -0.0996
      6 C6          5.1502    5.9231   -2.4378 C.ar      1 <0>        -0.1223
      7 C7          5.4030    2.9941   -0.0952 C.ar      1 <0>         0.1990
      8 C8          4.0744    2.5430   -0.1154 C.ar      1 <0>        -0.1221
      9 C9          3.7188    1.4375    0.6438 C.ar      1 <0>        -0.0677
     10 C10         4.7703    0.8022    1.4383 C.ar      1 <0>        -0.0651
     11 C11         4.5077   -0.3142    2.2398 C.ar      1 <0>        -0.0988
     12 C12         5.5170   -0.8755    2.9644 C.ar      1 <0>        -0.1115
     13 C13         6.8072   -0.3516    2.9163 C.ar      1 <0>        -0.0966
     14 C14         7.0993    0.7266    2.1390 C.ar      1 <0>        -0.0940
     15 C15         6.0822    1.3365    1.3812 C.ar      1 <0>         0.1307
     16 N1          6.3351    2.4042    0.6227 N.ar      1 <0>        -0.4490
     17 C16         2.3312    0.9256    0.6543 C.2       1 <0>         0.5762
     18 O1          2.0677   -0.1039    1.2443 O.2       1 <0>        -0.5167
     19 N2          1.3590    1.6006    0.0096 N.am      1 <0>        -0.6996
     20 C17        -0.0154    1.0935    0.0200 C.3       1 <0>         0.1728
     21 H1         -0.0008    0.0038    0.0012 H         1 <0>         0.1284
     22 C18        -0.7495    1.6070   -1.1918 C.ar      1 <0>        -0.1028
     23 C19        -0.5611    2.9099   -1.6134 C.ar      1 <0>        -0.1086
     24 C20        -1.2311    3.3796   -2.7276 C.ar      1 <0>        -0.1105
     25 C21        -2.0968    2.5492   -3.4145 C.ar      1 <0>        -0.1083
     26 C22        -2.2889    1.2477   -2.9901 C.ar      1 <0>        -0.1113
     27 C23        -1.6156    0.7767   -1.8785 C.ar      1 <0>        -0.1037
     28 C24        -0.7154    1.5650    1.2685 C.2       1 <0>         0.5128
     29 O2         -0.1244    2.2566    2.0706 O.2       1 <0>        -0.5258
     30 N3         -1.9982    1.2183    1.4937 N.am      1 <0>        -0.8474
     31 H2          6.7210    7.2468   -3.0282 H         1 <0>         0.1255
     32 H3          8.4332    6.1148   -1.6719 H         1 <0>         0.1276
     33 H4          7.8343    4.1518   -0.3156 H         1 <0>         0.1365
     34 H5          3.7876    4.4558   -1.6931 H         1 <0>         0.1244
     35 H6          4.4025    6.4240   -3.0348 H         1 <0>         0.1277
     36 H7          3.3354    3.0515   -0.7168 H         1 <0>         0.1417
     37 H8          3.5113   -0.7286    2.2846 H         1 <0>         0.1629
     38 H9          5.3141   -1.7372    3.5830 H         1 <0>         0.1314
     39 H10         7.5902   -0.8142    3.4988 H         1 <0>         0.1332
     40 H11         8.1047    1.1203    2.1136 H         1 <0>         0.1393
     41 H12         1.5692    2.4221   -0.4612 H         1 <0>         0.4054
     42 H13         0.1122    3.5599   -1.0743 H         1 <0>         0.1221
     43 H14        -1.0807    4.3963   -3.0594 H         1 <0>         0.1288
     44 H15        -2.6229    2.9172   -4.2830 H         1 <0>         0.1276
     45 H16        -2.9653    0.5990   -3.5268 H         1 <0>         0.1299
     46 H17        -1.7659   -0.2400   -1.5467 H         1 <0>         0.1297
     47 H18        -2.4709    0.6652    0.8522 H         1 <0>         0.4020
     48 H19        -2.4487    1.5218    2.2973 H         1 <0>         0.4060
@<TRIPOS>BOND
     1    1    6 ar
     2    1    2 ar
     3    1   31 1
     4    2    3 ar
     5    2   32 1
     6    3    4 ar
     7    3   33 1
     8    4    5 ar
     9    4    7 1
    10    5    6 ar
    11    5   34 1
    12    6   35 1
    13    7   16 ar
    14    7    8 ar
    15    8    9 ar
    16    8   36 1
    17    9   10 ar
    18    9   17 1
    19   10   15 ar
    20   10   11 ar
    21   11   12 ar
    22   11   37 1
    23   12   13 ar
    24   12   38 1
    25   13   14 ar
    26   13   39 1
    27   14   15 ar
    28   14   40 1
    29   15   16 ar
    30   17   18 2
    31   17   19 am
    32   19   20 1
    33   19   41 1
    34   20   21 1
    35   20   22 1
    36   20   28 1
    37   22   27 ar
    38   22   23 ar
    39   23   24 ar
    40   23   42 1
    41   24   25 ar
    42   24   43 1
    43   25   26 ar
    44   25   44 1
    45   26   27 ar
    46   26   45 1
    47   27   46 1
    48   28   29 2
    49   28   30 am
    50   30   47 1
    51   30   48 1
@<TRIPOS>MOLECULE
ZINC01212741
   47    50     0     0     0
SMALL
USER_CHARGES
2-phenyl-N-(1-phenylethyl)quinoline-4-carboxamide
@<TRIPOS>ATOM
      1 C1         -5.3097    0.3086   -1.4659 C.3       1 <0>        -0.1597
      2 C2         -4.9543   -0.1529   -0.0511 C.3       1 <0>         0.1840
      3 H1         -4.9148    0.7103    0.6134 H         1 <0>         0.1017
      4 C3         -6.0022   -1.1178    0.4406 C.ar      1 <0>        -0.0955
      5 C4         -5.9711   -2.4385    0.0335 C.ar      1 <0>        -0.1170
      6 C5         -6.9298   -3.3246    0.4880 C.ar      1 <0>        -0.1141
      7 C6         -7.9249   -2.8880    1.3424 C.ar      1 <0>        -0.1166
      8 C7         -7.9591   -1.5661    1.7454 C.ar      1 <0>        -0.1137
      9 C8         -6.9979   -0.6810    1.2943 C.ar      1 <0>        -0.1058
     10 N1         -3.6485   -0.8167   -0.0675 N.am      1 <0>        -0.7154
     11 C9         -2.5198   -0.0861    0.0265 C.2       1 <0>         0.5668
     12 O1         -2.5854    1.1235    0.1249 O.2       1 <0>        -0.5185
     13 C10        -1.2014   -0.7564    0.0099 C.ar      1 <0>        -0.0689
     14 C11        -1.1022   -2.1389    0.0203 C.ar      1 <0>        -0.1273
     15 C12         0.1657   -2.7407    0.0044 C.ar      1 <0>         0.1952
     16 N2          1.2710   -2.0233   -0.0207 N.ar      1 <0>        -0.4482
     17 C13         1.2424   -0.6893   -0.0314 C.ar      1 <0>         0.1341
     18 C14         0.0018   -0.0041   -0.0167 C.ar      1 <0>        -0.0669
     19 C15        -0.0174    1.3963   -0.0281 C.ar      1 <0>        -0.1035
     20 C16         1.1571    2.0871   -0.0532 C.ar      1 <0>        -0.1134
     21 C17         2.3792    1.4179   -0.0687 C.ar      1 <0>        -0.0938
     22 C18         2.4349    0.0584   -0.0579 C.ar      1 <0>        -0.0973
     23 C19         0.2640   -4.2203    0.0157 C.ar      1 <0>        -0.0569
     24 C20        -0.8924   -4.9981    0.0475 C.ar      1 <0>        -0.0995
     25 C21        -0.7949   -6.3747    0.0520 C.ar      1 <0>        -0.1222
     26 C22         0.4476   -6.9828    0.0371 C.ar      1 <0>        -0.1041
     27 C23         1.5986   -6.2159    0.0108 C.ar      1 <0>        -0.1241
     28 C24         1.5132   -4.8386    0.0003 C.ar      1 <0>        -0.0748
     29 H2         -6.2813    0.8026   -1.4536 H         1 <0>         0.0719
     30 H3         -4.5517    1.0065   -1.8215 H         1 <0>         0.0673
     31 H4         -5.3492   -0.5545   -2.1304 H         1 <0>         0.0606
     32 H5         -5.1958   -2.7787   -0.6370 H         1 <0>         0.1188
     33 H6         -6.9029   -4.3574    0.1735 H         1 <0>         0.1252
     34 H7         -8.6755   -3.5797    1.6954 H         1 <0>         0.1245
     35 H8         -8.7366   -1.2250    2.4129 H         1 <0>         0.1260
     36 H9         -7.0246    0.3518    1.6091 H         1 <0>         0.1259
     37 H10        -3.5961   -1.7821   -0.1461 H         1 <0>         0.4000
     38 H11        -1.9936   -2.7483    0.0408 H         1 <0>         0.1410
     39 H12        -0.9585    1.9261   -0.0214 H         1 <0>         0.1690
     40 H13         1.1404    3.1669   -0.0620 H         1 <0>         0.1311
     41 H14         3.2967    1.9873   -0.0894 H         1 <0>         0.1331
     42 H15         3.3902   -0.4450   -0.0691 H         1 <0>         0.1389
     43 H16        -1.8628   -4.5244    0.0644 H         1 <0>         0.1244
     44 H17        -1.6902   -6.9784    0.0722 H         1 <0>         0.1280
     45 H18         0.5192   -8.0604    0.0456 H         1 <0>         0.1258
     46 H19         2.5659   -6.6961   -0.0011 H         1 <0>         0.1278
     47 H20         2.4125   -4.2409   -0.0203 H         1 <0>         0.1362
@<TRIPOS>BOND
     1    1    2 1
     2    1   29 1
     3    1   30 1
     4    1   31 1
     5    2    3 1
     6    2    4 1
     7    2   10 1
     8    4    9 ar
     9    4    5 ar
    10    5    6 ar
    11    5   32 1
    12    6    7 ar
    13    6   33 1
    14    7    8 ar
    15    7   34 1
    16    8    9 ar
    17    8   35 1
    18    9   36 1
    19   10   11 am
    20   10   37 1
    21   11   12 2
    22   11   13 1
    23   13   18 ar
    24   13   14 ar
    25   14   15 ar
    26   14   38 1
    27   15   16 ar
    28   15   23 1
    29   16   17 ar
    30   17   22 ar
    31   17   18 ar
    32   18   19 ar
    33   19   20 ar
    34   19   39 1
    35   20   21 ar
    36   20   40 1
    37   21   22 ar
    38   21   41 1
    39   22   42 1
    40   23   28 ar
    41   23   24 ar
    42   24   25 ar
    43   24   43 1
    44   25   26 ar
    45   25   44 1
    46   26   27 ar
    47   26   45 1
    48   27   28 ar
    49   27   46 1
    50   28   47 1
@<TRIPOS>MOLECULE
ZINC01212742
   47    50     0     0     0
SMALL
USER_CHARGES
2-phenyl-N-(1-phenylethyl)quinoline-4-carboxamide
@<TRIPOS>ATOM
      1 C1          0.0862    6.2340    1.3756 C.3       1 <0>        -0.1597
      2 C2          0.0655    5.7319   -0.0695 C.3       1 <0>         0.1841
      3 H1          0.9554    6.0859   -0.5899 H         1 <0>         0.1017
      4 C3         -1.1648    6.2545   -0.7654 C.ar      1 <0>        -0.0955
      5 C4         -2.3842    5.6323   -0.5737 C.ar      1 <0>        -0.1168
      6 C5         -3.5135    6.1144   -1.2086 C.ar      1 <0>        -0.1140
      7 C6         -3.4217    7.2129   -2.0426 C.ar      1 <0>        -0.1166
      8 C7         -2.2014    7.8323   -2.2381 C.ar      1 <0>        -0.1137
      9 C8         -1.0728    7.3528   -1.5998 C.ar      1 <0>        -0.1059
     10 N1          0.0457    4.2670   -0.0772 N.am      1 <0>        -0.7155
     11 C9          1.2002    3.5770    0.0098 C.2       1 <0>         0.5668
     12 O1          2.2577    4.1700    0.0947 O.2       1 <0>        -0.5185
     13 C10         1.1802    2.0980    0.0021 C.ar      1 <0>        -0.0688
     14 C11        -0.0166    1.3992    0.0279 C.ar      1 <0>        -0.1273
     15 C12         0.0024   -0.0042    0.0196 C.ar      1 <0>         0.1952
     16 N2          1.1336   -0.6798   -0.0123 N.ar      1 <0>        -0.4482
     17 C13         2.3179   -0.0658   -0.0383 C.ar      1 <0>         0.1342
     18 C14         2.3858    1.3499   -0.0321 C.ar      1 <0>        -0.0669
     19 C15         3.6340    1.9846   -0.0606 C.ar      1 <0>        -0.1035
     20 C16         4.7716    1.2349   -0.0940 C.ar      1 <0>        -0.1134
     21 C17         4.7100   -0.1570   -0.0998 C.ar      1 <0>        -0.0938
     22 C18         3.5146   -0.8064   -0.0727 C.ar      1 <0>        -0.0974
     23 C19        -1.2819   -0.7450    0.0469 C.ar      1 <0>        -0.0569
     24 C20        -2.4897   -0.0501    0.0862 C.ar      1 <0>        -0.0995
     25 C21        -3.6820   -0.7448    0.1061 C.ar      1 <0>        -0.1222
     26 C22        -3.6797   -2.1281    0.0988 C.ar      1 <0>        -0.1041
     27 C23        -2.4841   -2.8230    0.0652 C.ar      1 <0>        -0.1241
     28 C24        -1.2858   -2.1389    0.0392 C.ar      1 <0>        -0.0748
     29 H2         -0.8037    5.8800    1.8961 H         1 <0>         0.0606
     30 H3          0.9761    5.8560    1.8789 H         1 <0>         0.0674
     31 H4          0.1009    7.3239    1.3813 H         1 <0>         0.0719
     32 H5         -2.4552    4.7715    0.0747 H         1 <0>         0.1185
     33 H6         -4.4669    5.6307   -1.0556 H         1 <0>         0.1252
     34 H7         -4.3034    7.5875   -2.5413 H         1 <0>         0.1245
     35 H8         -2.1296    8.6905   -2.8897 H         1 <0>         0.1260
     36 H9         -0.1194    7.8365   -1.7527 H         1 <0>         0.1259
     37 H10        -0.7983    3.7937   -0.1449 H         1 <0>         0.4000
     38 H11        -0.9566    1.9305    0.0497 H         1 <0>         0.1408
     39 H12         3.6946    3.0629   -0.0564 H         1 <0>         0.1691
     40 H13         5.7332    1.7261   -0.1160 H         1 <0>         0.1311
     41 H14         5.6254   -0.7295   -0.1259 H         1 <0>         0.1331
     42 H15         3.4839   -1.8860   -0.0776 H         1 <0>         0.1389
     43 H16        -2.4925    1.0299    0.0965 H         1 <0>         0.1243
     44 H17        -4.6185   -0.2075    0.1321 H         1 <0>         0.1280
     45 H18        -4.6151   -2.6676    0.1191 H         1 <0>         0.1258
     46 H19        -2.4883   -3.9030    0.0596 H         1 <0>         0.1278
     47 H20        -0.3530   -2.6825    0.0126 H         1 <0>         0.1363
@<TRIPOS>BOND
     1    1    2 1
     2    1   29 1
     3    1   30 1
     4    1   31 1
     5    2    3 1
     6    2    4 1
     7    2   10 1
     8    4    9 ar
     9    4    5 ar
    10    5    6 ar
    11    5   32 1
    12    6    7 ar
    13    6   33 1
    14    7    8 ar
    15    7   34 1
    16    8    9 ar
    17    8   35 1
    18    9   36 1
    19   10   11 am
    20   10   37 1
    21   11   12 2
    22   11   13 1
    23   13   18 ar
    24   13   14 ar
    25   14   15 ar
    26   14   38 1
    27   15   16 ar
    28   15   23 1
    29   16   17 ar
    30   17   22 ar
    31   17   18 ar
    32   18   19 ar
    33   19   20 ar
    34   19   39 1
    35   20   21 ar
    36   20   40 1
    37   21   22 ar
    38   21   41 1
    39   22   42 1
    40   23   28 ar
    41   23   24 ar
    42   24   25 ar
    43   24   43 1
    44   25   26 ar
    45   25   44 1
    46   26   27 ar
    47   26   45 1
    48   27   28 ar
    49   27   46 1
    50   28   47 1
@<TRIPOS>MOLECULE
ZINC02370451
   54    58     0     0     0
SMALL
USER_CHARGES
N-benzhydryl-2-phenyl-quinoline-4-carboxamide
@<TRIPOS>ATOM
      1 C1         -2.7092    1.2296   -8.2692 C.ar      1 <0>        -0.1041
      2 C2         -3.3881    2.4333   -8.2082 C.ar      1 <0>        -0.1241
      3 C3         -3.3958    3.1658   -7.0386 C.ar      1 <0>        -0.0744
      4 C4         -2.7177    2.6904   -5.9173 C.ar      1 <0>        -0.0576
      5 C5         -2.0305    1.4796   -5.9863 C.ar      1 <0>        -0.0998
      6 C6         -2.0345    0.7529   -7.1595 C.ar      1 <0>        -0.1221
      7 C7         -2.7223    3.4728   -4.6576 C.ar      1 <0>         0.1991
      8 C8         -2.0269    2.9716   -3.5466 C.ar      1 <0>        -0.1245
      9 C9         -2.0273    3.6921   -2.3610 C.ar      1 <0>        -0.0698
     10 C10        -2.7588    4.9591   -2.3455 C.ar      1 <0>        -0.0661
     11 C11        -2.8128    5.7583   -1.1982 C.ar      1 <0>        -0.0993
     12 C12        -3.5063    6.9317   -1.2270 C.ar      1 <0>        -0.1117
     13 C13        -4.1618    7.3455   -2.3848 C.ar      1 <0>        -0.0963
     14 C14        -4.1295    6.5924   -3.5178 C.ar      1 <0>        -0.0945
     15 C15        -3.4240    5.3746   -3.5264 C.ar      1 <0>         0.1306
     16 N1         -3.3747    4.6153   -4.6220 N.ar      1 <0>        -0.4495
     17 C16        -1.3119    3.2022   -1.1627 C.2       1 <0>         0.5691
     18 O1         -1.2411    3.8995   -0.1697 O.2       1 <0>        -0.5129
     19 N2         -0.7387    1.9824   -1.1718 N.am      1 <0>        -0.7144
     20 C17        -0.0302    1.4971    0.0150 C.3       1 <0>         0.2313
     21 C18        -0.0243   -0.0099    0.0154 C.ar      1 <0>        -0.0904
     22 C19         0.1647   -0.7006   -1.1670 C.ar      1 <0>        -0.1129
     23 C20         0.1754   -2.0829   -1.1659 C.ar      1 <0>        -0.1133
     24 C21        -0.0139   -2.7746    0.0160 C.ar      1 <0>        -0.1145
     25 C22        -0.2086   -2.0839    1.1975 C.ar      1 <0>        -0.1130
     26 C23        -0.2136   -0.7015    1.1972 C.ar      1 <0>        -0.1023
     27 C24         1.3886    2.0050   -0.0042 C.ar      1 <0>        -0.0926
     28 C25         2.0953    2.0365   -1.1918 C.ar      1 <0>        -0.1032
     29 C26         3.3949    2.5073   -1.2104 C.ar      1 <0>        -0.1196
     30 C27         3.9914    2.9363   -0.0395 C.ar      1 <0>        -0.1161
     31 C28         3.2866    2.8994    1.1491 C.ar      1 <0>        -0.1170
     32 C29         1.9851    2.4340    1.1667 C.ar      1 <0>        -0.0999
     33 H1         -2.7062    0.6596   -9.1865 H         1 <0>         0.1257
     34 H2         -3.9129    2.8008   -9.0777 H         1 <0>         0.1276
     35 H3         -3.9265    4.1052   -6.9921 H         1 <0>         0.1363
     36 H4         -1.4994    1.1088   -5.1221 H         1 <0>         0.1240
     37 H5         -1.5058   -0.1873   -7.2130 H         1 <0>         0.1278
     38 H6         -1.4987    2.0319   -3.6129 H         1 <0>         0.1410
     39 H7         -2.3084    5.4473   -0.2953 H         1 <0>         0.1639
     40 H8         -3.5479    7.5485   -0.3414 H         1 <0>         0.1314
     41 H9         -4.7041    8.2794   -2.3831 H         1 <0>         0.1332
     42 H10        -4.6428    6.9280   -4.4068 H         1 <0>         0.1390
     43 H11        -0.7953    1.4259   -1.9643 H         1 <0>         0.4002
     44 H12        -0.5334    1.8587    0.9118 H         1 <0>         0.1092
     45 H13         0.3082   -0.1602   -2.0911 H         1 <0>         0.1172
     46 H14         0.3279   -2.6225   -2.0889 H         1 <0>         0.1256
     47 H15        -0.0093   -3.8545    0.0163 H         1 <0>         0.1248
     48 H16        -0.3565   -2.6242    2.1208 H         1 <0>         0.1265
     49 H17        -0.3657   -0.1619    2.1203 H         1 <0>         0.1257
     50 H18         1.6308    1.6972   -2.1059 H         1 <0>         0.1148
     51 H19         3.9455    2.5365   -2.1391 H         1 <0>         0.1222
     52 H20         5.0080    3.3007   -0.0534 H         1 <0>         0.1225
     53 H21         3.7526    3.2346    2.0639 H         1 <0>         0.1243
     54 H22         1.4344    2.4051    2.0953 H         1 <0>         0.1230
@<TRIPOS>BOND
     1    1    6 ar
     2    1    2 ar
     3    1   33 1
     4    2    3 ar
     5    2   34 1
     6    3    4 ar
     7    3   35 1
     8    4    5 ar
     9    4    7 1
    10    5    6 ar
    11    5   36 1
    12    6   37 1
    13    7   16 ar
    14    7    8 ar
    15    8    9 ar
    16    8   38 1
    17    9   10 ar
    18    9   17 1
    19   10   15 ar
    20   10   11 ar
    21   11   12 ar
    22   11   39 1
    23   12   13 ar
    24   12   40 1
    25   13   14 ar
    26   13   41 1
    27   14   15 ar
    28   14   42 1
    29   15   16 ar
    30   17   18 2
    31   17   19 am
    32   19   20 1
    33   19   43 1
    34   20   21 1
    35   20   27 1
    36   20   44 1
    37   21   26 ar
    38   21   22 ar
    39   22   23 ar
    40   22   45 1
    41   23   24 ar
    42   23   46 1
    43   24   25 ar
    44   24   47 1
    45   25   26 ar
    46   25   48 1
    47   26   49 1
    48   27   32 ar
    49   27   28 ar
    50   28   29 ar
    51   28   50 1
    52   29   30 ar
    53   29   51 1
    54   30   31 ar
    55   30   52 1
    56   31   32 ar
    57   31   53 1
    58   32   54 1
@<TRIPOS>MOLECULE
ZINC05932901
   51    54     0     0     0
SMALL
USER_CHARGES
3-hydroxy-2-phenyl-N-(1-phenylpropyl)quinoline-4-carboxamide
@<TRIPOS>ATOM
      1 C1         -1.5089    0.6588   -3.5110 C.3       1 <0>        -0.1498
      2 C2         -0.6640   -0.4451   -4.1501 C.3       1 <0>        -0.1275
      3 C3          0.7549    0.0738   -4.3914 C.3       1 <0>         0.1865
      4 H1          0.7119    0.9869   -4.9851 H         1 <0>         0.0997
      5 C4          1.5522   -0.9693   -5.1313 C.ar      1 <0>        -0.0946
      6 C5          2.1017   -2.0354   -4.4440 C.ar      1 <0>        -0.1149
      7 C6          2.8293   -2.9945   -5.1234 C.ar      1 <0>        -0.1146
      8 C7          3.0154   -2.8825   -6.4885 C.ar      1 <0>        -0.1166
      9 C8          2.4700   -1.8138   -7.1751 C.ar      1 <0>        -0.1138
     10 C9          1.7387   -0.8570   -6.4964 C.ar      1 <0>        -0.1063
     11 N1          1.3965    0.3573   -3.1052 N.am      1 <0>        -0.7155
     12 C10         1.2025    1.5475   -2.5033 C.2       1 <0>         0.5767
     13 O1          0.4949    2.3859   -3.0277 O.2       1 <0>        -0.5050
     14 C11         1.8482    1.8329   -1.2088 C.ar      1 <0>        -0.1027
     15 C12         3.1761    2.4457   -1.1381 C.ar      1 <0>        -0.0612
     16 C13         3.8856    2.7840   -2.2951 C.ar      1 <0>        -0.1012
     17 C14         5.1200    3.3537   -2.1862 C.ar      1 <0>        -0.0989
     18 C15         5.6831    3.6018   -0.9368 C.ar      1 <0>        -0.1012
     19 C16         5.0194    3.2843    0.2085 C.ar      1 <0>        -0.0822
     20 C17         3.7435    2.6957    0.1358 C.ar      1 <0>         0.1234
     21 N2          3.0716    2.3742    1.2436 N.ar      1 <0>        -0.4402
     22 C18         1.8763    1.8287    1.2111 C.ar      1 <0>         0.1915
     23 C19         1.2190    1.5307   -0.0014 C.ar      1 <0>         0.1095
     24 O2         -0.0110    0.9628    0.0073 O.3       1 <0>        -0.4727
     25 C20         1.1992    1.5100    2.4903 C.ar      1 <0>        -0.0630
     26 C21        -0.1850    1.6372    2.6002 C.ar      1 <0>        -0.0802
     27 C22        -0.8105    1.3334    3.7921 C.ar      1 <0>        -0.1273
     28 C23        -0.0657    0.9149    4.8802 C.ar      1 <0>        -0.1021
     29 C24         1.3085    0.7923    4.7789 C.ar      1 <0>        -0.1291
     30 C25         1.9445    1.0872    3.5903 C.ar      1 <0>        -0.0752
     31 H2         -1.5456    1.5204   -4.1777 H         1 <0>         0.0598
     32 H3         -2.5198    0.2892   -3.3391 H         1 <0>         0.0499
     33 H4         -1.0633    0.9534   -2.5609 H         1 <0>         0.0616
     34 H5         -1.1097   -0.7396   -5.1002 H         1 <0>         0.0747
     35 H6         -0.6274   -1.3066   -3.4834 H         1 <0>         0.0654
     36 H7          1.9597   -2.1208   -3.3768 H         1 <0>         0.1183
     37 H8          3.2551   -3.8296   -4.5870 H         1 <0>         0.1244
     38 H9          3.5867   -3.6300   -7.0188 H         1 <0>         0.1241
     39 H10         2.6154   -1.7263   -8.2417 H         1 <0>         0.1257
     40 H11         1.3129   -0.0219   -7.0327 H         1 <0>         0.1254
     41 H12         1.9609   -0.3115   -2.6869 H         1 <0>         0.4006
     42 H13         3.4584    2.5956   -3.2689 H         1 <0>         0.1282
     43 H14         5.6676    3.6152   -3.0796 H         1 <0>         0.1333
     44 H15         6.6623    4.0532   -0.8756 H         1 <0>         0.1360
     45 H16         5.4703    3.4839    1.1694 H         1 <0>         0.1417
     46 H17         0.0021   -0.0041    0.0020 H         1 <0>         0.3947
     47 H18        -0.7669    1.9681    1.7527 H         1 <0>         0.1379
     48 H19        -1.8830    1.4270    3.8771 H         1 <0>         0.1270
     49 H20        -0.5591    0.6826    5.8124 H         1 <0>         0.1245
     50 H21         1.8847    0.4647    5.6316 H         1 <0>         0.1265
     51 H22         3.0173    0.9904    3.5122 H         1 <0>         0.1286
@<TRIPOS>BOND
     1    1    2 1
     2    1   31 1
     3    1   32 1
     4    1   33 1
     5    2    3 1
     6    2   34 1
     7    2   35 1
     8    3    4 1
     9    3    5 1
    10    3   11 1
    11    5   10 ar
    12    5    6 ar
    13    6    7 ar
    14    6   36 1
    15    7    8 ar
    16    7   37 1
    17    8    9 ar
    18    8   38 1
    19    9   10 ar
    20    9   39 1
    21   10   40 1
    22   11   12 am
    23   11   41 1
    24   12   13 2
    25   12   14 1
    26   14   23 ar
    27   14   15 ar
    28   15   20 ar
    29   15   16 ar
    30   16   17 ar
    31   16   42 1
    32   17   18 ar
    33   17   43 1
    34   18   19 ar
    35   18   44 1
    36   19   20 ar
    37   19   45 1
    38   20   21 ar
    39   21   22 ar
    40   22   23 ar
    41   22   25 1
    42   23   24 1
    43   24   46 1
    44   25   30 ar
    45   25   26 ar
    46   26   27 ar
    47   26   47 1
    48   27   28 ar
    49   27   48 1
    50   28   29 ar
    51   28   49 1
    52   29   30 ar
    53   29   50 1
    54   30   51 1
@<TRIPOS>MOLECULE
ZINC13762432
   53    56     0     0     0
SMALL
USER_CHARGES
methyl (2R)-3-phenyl-2-[(2-phenylquinoline-4-carbonyl)amino]propanoate
@<TRIPOS>ATOM
      1 C1          0.9133    5.5720    1.2926 C.3       1 <0>         0.0352
      2 O1          0.8754    4.1222    1.2224 O.3       1 <0>        -0.3554
      3 C2          1.4206    3.5502    0.1373 C.2       1 <0>         0.4478
      4 O2          1.9131    4.2382   -0.7252 O.2       1 <0>        -0.4917
      5 C3          1.4184    2.0500   -0.0051 C.3       1 <0>         0.1649
      6 H1          1.9621    1.6051    0.8283 H         1 <0>         0.1348
      7 C4         -0.0240    1.5397   -0.0035 C.3       1 <0>        -0.0834
      8 C5         -0.0238    0.0328   -0.0221 C.ar      1 <0>        -0.0893
      9 C6         -0.0359   -0.6435   -1.2277 C.ar      1 <0>        -0.1133
     10 C7         -0.0308   -2.0258   -1.2449 C.ar      1 <0>        -0.1154
     11 C8         -0.0241   -2.7317   -0.0564 C.ar      1 <0>        -0.1169
     12 C9         -0.0173   -2.0554    1.1492 C.ar      1 <0>        -0.1150
     13 C10        -0.0171   -0.6732    1.1663 C.ar      1 <0>        -0.1099
     14 N1          2.0666    1.6781   -1.2651 N.am      1 <0>        -0.6998
     15 C11         3.4072    1.5522   -1.3218 C.2       1 <0>         0.5764
     16 O3          4.0785    1.7472   -0.3275 O.2       1 <0>        -0.5144
     17 C12         4.0617    1.1767   -2.5940 C.ar      1 <0>        -0.0656
     18 C13         3.3130    0.8317   -3.7084 C.ar      1 <0>        -0.1238
     19 C14         3.9678    0.4807   -4.8991 C.ar      1 <0>         0.1952
     20 N2          5.2828    0.4701   -4.9874 N.ar      1 <0>        -0.4470
     21 C15         6.0590    0.7920   -3.9508 C.ar      1 <0>         0.1346
     22 C16         5.4758    1.1641   -2.7137 C.ar      1 <0>        -0.0654
     23 C17         6.2994    1.5065   -1.6339 C.ar      1 <0>        -0.1034
     24 C18         7.6537    1.4839   -1.7844 C.ar      1 <0>        -0.1127
     25 C19         8.2315    1.1243   -3.0002 C.ar      1 <0>        -0.0938
     26 C20         7.4618    0.7747   -4.0665 C.ar      1 <0>        -0.0968
     27 C21         3.1603    0.1132   -6.0873 C.ar      1 <0>        -0.0560
     28 C22         1.7682    0.1128   -6.0142 C.ar      1 <0>        -0.0994
     29 C23         1.0217   -0.2241   -7.1250 C.ar      1 <0>        -0.1220
     30 C24         1.6525   -0.5728   -8.3057 C.ar      1 <0>        -0.1043
     31 C25         3.0337   -0.5796   -8.3824 C.ar      1 <0>        -0.1239
     32 C26         3.7904   -0.2386   -7.2799 C.ar      1 <0>        -0.0747
     33 H2          0.4407    5.9034    2.2173 H         1 <0>         0.1054
     34 H3          1.9494    5.9098    1.2728 H         1 <0>         0.0644
     35 H4          0.3781    5.9911    0.4406 H         1 <0>         0.0643
     36 H5         -0.5428    1.9138   -0.8861 H         1 <0>         0.0878
     37 H6         -0.5330    1.8918    0.8937 H         1 <0>         0.1094
     38 H7         -0.0456   -0.0920   -2.1562 H         1 <0>         0.1172
     39 H8         -0.0365   -2.5542   -2.1868 H         1 <0>         0.1236
     40 H9         -0.0246   -3.8116   -0.0697 H         1 <0>         0.1227
     41 H10        -0.0124   -2.6069    2.0778 H         1 <0>         0.1243
     42 H11        -0.0121   -0.1448    2.1082 H         1 <0>         0.1259
     43 H12         1.5308    1.5225   -2.0587 H         1 <0>         0.4063
     44 H13         2.2340    0.8326   -3.6606 H         1 <0>         0.1404
     45 H14         5.8633    1.7873   -0.6866 H         1 <0>         0.1674
     46 H15         8.2872    1.7479   -0.9505 H         1 <0>         0.1310
     47 H16         9.3073    1.1136   -3.0949 H         1 <0>         0.1333
     48 H17         7.9252    0.4983   -5.0021 H         1 <0>         0.1393
     49 H18         1.2748    0.3802   -5.0915 H         1 <0>         0.1239
     50 H19        -0.0569   -0.2205   -7.0708 H         1 <0>         0.1279
     51 H20         1.0644   -0.8404   -9.1711 H         1 <0>         0.1256
     52 H21         3.5208   -0.8527   -9.3069 H         1 <0>         0.1276
     53 H22         4.8686   -0.2439   -7.3410 H         1 <0>         0.1362
@<TRIPOS>BOND
     1    1    2 1
     2    1   33 1
     3    1   34 1
     4    1   35 1
     5    2    3 1
     6    3    4 2
     7    3    5 1
     8    5    6 1
     9    5    7 1
    10    5   14 1
    11    7    8 1
    12    7   36 1
    13    7   37 1
    14    8   13 ar
    15    8    9 ar
    16    9   10 ar
    17    9   38 1
    18   10   11 ar
    19   10   39 1
    20   11   12 ar
    21   11   40 1
    22   12   13 ar
    23   12   41 1
    24   13   42 1
    25   14   15 am
    26   14   43 1
    27   15   16 2
    28   15   17 1
    29   17   22 ar
    30   17   18 ar
    31   18   19 ar
    32   18   44 1
    33   19   20 ar
    34   19   27 1
    35   20   21 ar
    36   21   26 ar
    37   21   22 ar
    38   22   23 ar
    39   23   24 ar
    40   23   45 1
    41   24   25 ar
    42   24   46 1
    43   25   26 ar
    44   25   47 1
    45   26   48 1
    46   27   32 ar
    47   27   28 ar
    48   28   29 ar
    49   28   49 1
    50   29   30 ar
    51   29   50 1
    52   30   31 ar
    53   30   51 1
    54   31   32 ar
    55   31   52 1
    56   32   53 1
@<TRIPOS>MOLECULE
ZINC13762434
   53    56     0     0     0
SMALL
USER_CHARGES
methyl (2S)-3-phenyl-2-[(2-phenylquinoline-4-carbonyl)amino]propanoate
@<TRIPOS>ATOM
      1 C1         -2.6726    1.7889   -2.5744 C.3       1 <0>         0.0352
      2 O1         -2.0278    1.2550   -1.3880 O.3       1 <0>        -0.3554
      3 C2         -0.7442    1.5926   -1.1879 C.2       1 <0>         0.4479
      4 O2         -0.1781    2.3105   -1.9778 O.2       1 <0>        -0.4919
      5 C3         -0.0091    1.0763    0.0221 C.3       1 <0>         0.1649
      6 H1          0.0055   -0.0134    0.0008 H         1 <0>         0.1347
      7 C4         -0.7186    1.5520    1.2914 C.3       1 <0>        -0.0832
      8 C5         -0.0573    0.9362    2.4974 C.ar      1 <0>        -0.0896
      9 C6         -0.5042   -0.2770    2.9866 C.ar      1 <0>        -0.1099
     10 C7          0.1056   -0.8442    4.0900 C.ar      1 <0>        -0.1153
     11 C8          1.1553   -0.1932    4.7105 C.ar      1 <0>        -0.1169
     12 C9          1.5988    1.0226    4.2245 C.ar      1 <0>        -0.1156
     13 C10         0.9924    1.5873    3.1180 C.ar      1 <0>        -0.1125
     14 N1          1.3653    1.5833    0.0117 N.am      1 <0>        -0.6999
     15 C11         2.3184    0.9327   -0.6846 C.2       1 <0>         0.5765
     16 O3          2.0376   -0.0746   -1.3039 O.2       1 <0>        -0.5143
     17 C12         3.7060    1.4447   -0.6951 C.ar      1 <0>        -0.0659
     18 C13         4.0264    2.6539   -0.0978 C.ar      1 <0>        -0.1233
     19 C14         5.3545    3.1070   -0.1239 C.ar      1 <0>         0.1953
     20 N2          6.3096    2.4144   -0.7114 N.ar      1 <0>        -0.4469
     21 C15         6.0647    1.2461   -1.3077 C.ar      1 <0>         0.1345
     22 C16         4.7502    0.7162   -1.3222 C.ar      1 <0>        -0.0655
     23 C17         4.5038   -0.5104   -1.9518 C.ar      1 <0>        -0.1038
     24 C18         5.5304   -1.1829   -2.5444 C.ar      1 <0>        -0.1126
     25 C19         6.8242   -0.6659   -2.5331 C.ar      1 <0>        -0.0939
     26 C20         7.0993    0.5228   -1.9308 C.ar      1 <0>        -0.0967
     27 C21         5.6905    4.3990    0.5217 C.ar      1 <0>        -0.0562
     28 C22         4.6946    5.1503    1.1436 C.ar      1 <0>        -0.0993
     29 C23         5.0142    6.3494    1.7473 C.ar      1 <0>        -0.1221
     30 C24         6.3179    6.8117    1.7260 C.ar      1 <0>        -0.1042
     31 C25         7.3093    6.0730    1.1057 C.ar      1 <0>        -0.1240
     32 C26         7.0025    4.8697    0.5038 C.ar      1 <0>        -0.0747
     33 H2         -2.6588    2.8781   -2.5364 H         1 <0>         0.0643
     34 H3         -2.1387    1.4495   -3.4620 H         1 <0>         0.0644
     35 H4         -3.7044    1.4398   -2.6154 H         1 <0>         0.1054
     36 H5         -0.6556    2.6382    1.3575 H         1 <0>         0.0877
     37 H6         -1.7655    1.2502    1.2573 H         1 <0>         0.1093
     38 H7         -1.3272   -0.7835    2.5045 H         1 <0>         0.1259
     39 H8         -0.2411   -1.7939    4.4699 H         1 <0>         0.1243
     40 H9          1.6288   -0.6342    5.5752 H         1 <0>         0.1227
     41 H10         2.4187    1.5314    4.7095 H         1 <0>         0.1234
     42 H11         1.3386    2.5373    2.7385 H         1 <0>         0.1175
     43 H12         1.5894    2.3873    0.5060 H         1 <0>         0.4063
     44 H13         3.2603    3.2414    0.3863 H         1 <0>         0.1406
     45 H14         3.5052   -0.9215   -1.9672 H         1 <0>         0.1678
     46 H15         5.3385   -2.1286   -3.0294 H         1 <0>         0.1310
     47 H16         7.6211   -1.2170   -3.0102 H         1 <0>         0.1333
     48 H17         8.1076    0.9097   -1.9304 H         1 <0>         0.1392
     49 H18         3.6757    4.7925    1.1569 H         1 <0>         0.1241
     50 H19         4.2443    6.9302    2.2334 H         1 <0>         0.1279
     51 H20         6.5625    7.7529    2.1959 H         1 <0>         0.1257
     52 H21         8.3254    6.4388    1.0922 H         1 <0>         0.1276
     53 H22         7.7775    4.2936    0.0201 H         1 <0>         0.1362
@<TRIPOS>BOND
     1    1    2 1
     2    1   33 1
     3    1   34 1
     4    1   35 1
     5    2    3 1
     6    3    4 2
     7    3    5 1
     8    5    6 1
     9    5    7 1
    10    5   14 1
    11    7    8 1
    12    7   36 1
    13    7   37 1
    14    8   13 ar
    15    8    9 ar
    16    9   10 ar
    17    9   38 1
    18   10   11 ar
    19   10   39 1
    20   11   12 ar
    21   11   40 1
    22   12   13 ar
    23   12   41 1
    24   13   42 1
    25   14   15 am
    26   14   43 1
    27   15   16 2
    28   15   17 1
    29   17   22 ar
    30   17   18 ar
    31   18   19 ar
    32   18   44 1
    33   19   20 ar
    34   19   27 1
    35   20   21 ar
    36   21   26 ar
    37   21   22 ar
    38   22   23 ar
    39   23   24 ar
    40   23   45 1
    41   24   25 ar
    42   24   46 1
    43   25   26 ar
    44   25   47 1
    45   26   48 1
    46   27   32 ar
    47   27   28 ar
    48   28   29 ar
    49   28   49 1
    50   29   30 ar
    51   29   50 1
    52   30   31 ar
    53   30   51 1
    54   31   32 ar
    55   31   52 1
    56   32   53 1
@<TRIPOS>MOLECULE
ZINC03067703
   59    60     0     0     0
SMALL
USER_CHARGES
tert-butyl [1-[(1-carbamoyl-2-phenyl-ethyl)carbamoyl]-2-phenyl-ethyl]aminoformate
@<TRIPOS>ATOM
      1 C1          2.3565    5.3877   -7.8917 C.3       1 <0>        -0.1829
      2 C2          1.1668    6.2162   -8.3808 C.3       1 <0>         0.1396
      3 C3          0.9226    5.9317   -9.8642 C.3       1 <0>        -0.1426
      4 C4          1.4685    7.7040   -8.1898 C.3       1 <0>        -0.1897
      5 O1         -0.0167    5.8606   -7.6185 O.3       1 <0>        -0.3636
      6 C5          0.0339    6.0514   -6.2867 C.2       1 <0>         0.6552
      7 O2          1.0395    6.5027   -5.7754 O.2       1 <0>        -0.5489
      8 N1         -1.0309    5.7418   -5.5206 N.am      1 <0>        -0.6979
      9 C6         -0.9758    5.9494   -4.0715 C.3       1 <0>         0.1591
     10 H1          0.0335    5.7466   -3.7135 H         1 <0>         0.1206
     11 C7         -1.3500    7.3975   -3.7491 C.3       1 <0>        -0.0897
     12 C8         -0.3107    8.3248   -4.3245 C.ar      1 <0>        -0.0649
     13 C9          0.7865    8.6887   -3.5665 C.ar      1 <0>        -0.1047
     14 C10         1.7423    9.5355   -4.0960 C.ar      1 <0>        -0.1112
     15 C11         1.5955   10.0267   -5.3797 C.ar      1 <0>        -0.1206
     16 C12         0.4956    9.6670   -6.1359 C.ar      1 <0>        -0.1088
     17 C13        -0.4575    8.8161   -5.6082 C.ar      1 <0>        -0.1077
     18 C14        -1.9462    5.0170   -3.3932 C.2       1 <0>         0.5241
     19 O3         -2.6176    4.2541   -4.0551 O.2       1 <0>        -0.5252
     20 N2         -2.0679    5.0308   -2.0510 N.am      1 <0>        -0.6995
     21 C15        -3.0112    4.1243   -1.3917 C.3       1 <0>         0.1348
     22 H2         -3.0478    3.1801   -1.9349 H         1 <0>         0.1205
     23 C16        -2.5528    3.8685    0.0455 C.3       1 <0>        -0.0840
     24 C17        -1.2377    3.1328    0.0299 C.ar      1 <0>        -0.0886
     25 C18        -1.2190    1.7507    0.0173 C.ar      1 <0>        -0.1133
     26 C19        -0.0126    1.0758    0.0080 C.ar      1 <0>        -0.1157
     27 C20         1.1750    1.7832    0.0004 C.ar      1 <0>        -0.1178
     28 C21         1.1563    3.1654    0.0076 C.ar      1 <0>        -0.1151
     29 C22        -0.0501    3.8402    0.0223 C.ar      1 <0>        -0.1120
     30 C23        -4.3823    4.7494   -1.3779 C.2       1 <0>         0.5066
     31 O4         -4.5546    5.8443   -1.8703 O.2       1 <0>        -0.5269
     32 N3         -5.4172    4.0918   -0.8183 N.am      1 <0>        -0.8522
     33 H3          2.1415    4.3278   -8.0278 H         1 <0>         0.0577
     34 H4          3.2449    5.6547   -8.4640 H         1 <0>         0.0691
     35 H5          2.5305    5.5904   -6.8350 H         1 <0>         0.0880
     36 H6          0.0750    6.5220  -10.2126 H         1 <0>         0.0661
     37 H7          1.8110    6.1987  -10.4364 H         1 <0>         0.0803
     38 H8          0.7077    4.8718  -10.0002 H         1 <0>         0.0658
     39 H9          1.6425    7.9067   -7.1331 H         1 <0>         0.1016
     40 H10         2.3569    7.9710   -8.7621 H         1 <0>         0.0661
     41 H11         0.6209    8.2942   -8.5382 H         1 <0>         0.0574
     42 H12        -1.8337    5.3815   -5.9288 H         1 <0>         0.4139
     43 H13        -2.3226    7.6270   -4.1844 H         1 <0>         0.0855
     44 H14        -1.3956    7.5289   -2.6680 H         1 <0>         0.0884
     45 H15         0.8989    8.3084   -2.5619 H         1 <0>         0.1152
     46 H16         2.6014    9.8168   -3.5051 H         1 <0>         0.1167
     47 H17         2.3399   10.6918   -5.7918 H         1 <0>         0.1157
     48 H18         0.3807   10.0511   -7.1387 H         1 <0>         0.1148
     49 H19        -1.3170    8.5353   -6.1989 H         1 <0>         0.1098
     50 H20        -1.5309    5.6409   -1.5216 H         1 <0>         0.4063
     51 H21        -3.2997    3.2667    0.5633 H         1 <0>         0.0966
     52 H22        -2.4307    4.8201    0.5628 H         1 <0>         0.0889
     53 H23        -2.1469    1.1980    0.0188 H         1 <0>         0.1230
     54 H24         0.0021   -0.0041    0.0020 H         1 <0>         0.1234
     55 H25         2.1175    1.2560   -0.0115 H         1 <0>         0.1224
     56 H26         2.0841    3.7181    0.0014 H         1 <0>         0.1238
     57 H27        -0.0647    4.9201    0.0276 H         1 <0>         0.1198
     58 H28        -5.2794    3.2161   -0.4244 H         1 <0>         0.4017
     59 H29        -6.2997    4.4942   -0.8094 H         1 <0>         0.4051
@<TRIPOS>BOND
     1    1    2 1
     2    1   33 1
     3    1   34 1
     4    1   35 1
     5    2    3 1
     6    2    4 1
     7    2    5 1
     8    3   36 1
     9    3   37 1
    10    3   38 1
    11    4   39 1
    12    4   40 1
    13    4   41 1
    14    5    6 1
    15    6    7 2
    16    6    8 am
    17    8    9 1
    18    8   42 1
    19    9   10 1
    20    9   11 1
    21    9   18 1
    22   11   12 1
    23   11   43 1
    24   11   44 1
    25   12   17 ar
    26   12   13 ar
    27   13   14 ar
    28   13   45 1
    29   14   15 ar
    30   14   46 1
    31   15   16 ar
    32   15   47 1
    33   16   17 ar
    34   16   48 1
    35   17   49 1
    36   18   19 2
    37   18   20 am
    38   20   21 1
    39   20   50 1
    40   21   22 1
    41   21   23 1
    42   21   30 1
    43   23   24 1
    44   23   51 1
    45   23   52 1
    46   24   29 ar
    47   24   25 ar
    48   25   26 ar
    49   25   53 1
    50   26   27 ar
    51   26   54 1
    52   27   28 ar
    53   27   55 1
    54   28   29 ar
    55   28   56 1
    56   29   57 1
    57   30   31 2
    58   30   32 am
    59   32   58 1
    60   32   59 1
@<TRIPOS>MOLECULE
ZINC03067704
   59    60     0     0     0
SMALL
USER_CHARGES
tert-butyl [1-[(1-carbamoyl-2-phenyl-ethyl)carbamoyl]-2-phenyl-ethyl]aminoformate
@<TRIPOS>ATOM
      1 C1         -4.7148    1.2559    1.9822 C.3       1 <0>        -0.1894
      2 C2         -4.1255    2.6370    2.2758 C.3       1 <0>         0.1396
      3 C3         -4.6589    3.1445    3.6170 C.3       1 <0>        -0.1424
      4 C4         -4.5283    3.6098    1.1657 C.3       1 <0>        -0.1836
      5 O1         -2.6778    2.5429    2.3351 O.3       1 <0>        -0.3637
      6 C5         -2.0476    2.1087    1.2274 C.2       1 <0>         0.6552
      7 O2         -2.6898    1.8164    0.2381 O.2       1 <0>        -0.5484
      8 N1         -0.7044    1.9982    1.2158 N.am      1 <0>        -0.6976
      9 C6         -0.0187    1.5258    0.0104 C.3       1 <0>         0.1577
     10 H1         -0.5459    1.8868   -0.8726 H         1 <0>         0.1222
     11 C7          0.0021   -0.0041    0.0020 C.3       1 <0>        -0.0892
     12 C8         -1.4075   -0.5249   -0.1112 C.ar      1 <0>        -0.0657
     13 C9         -2.1450   -0.7770    1.0306 C.ar      1 <0>        -0.1078
     14 C10        -3.4396   -1.2502    0.9266 C.ar      1 <0>        -0.1089
     15 C11        -3.9932   -1.4813   -0.3188 C.ar      1 <0>        -0.1199
     16 C12        -3.2539   -1.2342   -1.4604 C.ar      1 <0>        -0.1110
     17 C13        -1.9611   -0.7560   -1.3566 C.ar      1 <0>        -0.1040
     18 C14         1.3951    2.0474   -0.0003 C.2       1 <0>         0.5245
     19 O3          1.7910    2.7451    0.9094 O.2       1 <0>        -0.5251
     20 N2          2.2197    1.7386   -1.0207 N.am      1 <0>        -0.6995
     21 C15         3.5941    2.2456   -1.0311 C.3       1 <0>         0.1354
     22 H2          3.9757    2.2819   -0.0107 H         1 <0>         0.1211
     23 C16         4.4736    1.3180   -1.8719 C.3       1 <0>        -0.0844
     24 C17         4.5525   -0.0343   -1.2115 C.ar      1 <0>        -0.0875
     25 C18         5.5556   -0.2999   -0.2982 C.ar      1 <0>        -0.1130
     26 C19         5.6252   -1.5388    0.3112 C.ar      1 <0>        -0.1153
     27 C20         4.6979   -2.5154   -0.0006 C.ar      1 <0>        -0.1178
     28 C21         3.6979   -2.2515   -0.9178 C.ar      1 <0>        -0.1145
     29 C22         3.6252   -1.0109   -1.5233 C.ar      1 <0>        -0.1121
     30 C23         3.6140    3.6308   -1.6243 C.2       1 <0>         0.5055
     31 O4          2.5817    4.1439   -2.0013 O.2       1 <0>        -0.5272
     32 N3          4.7789    4.2994   -1.7359 N.am      1 <0>        -0.8521
     33 H3         -4.4278    0.5629    2.7731 H         1 <0>         0.0572
     34 H4         -5.8016    1.3265    1.9377 H         1 <0>         0.0662
     35 H5         -4.3347    0.8943    1.0268 H         1 <0>         0.1014
     36 H6         -4.2391    4.1285    3.8261 H         1 <0>         0.0659
     37 H7         -5.7457    3.2152    3.5725 H         1 <0>         0.0803
     38 H8         -4.3720    2.4515    4.4078 H         1 <0>         0.0659
     39 H9         -4.1482    3.2482    0.2102 H         1 <0>         0.0881
     40 H10        -5.6151    3.6804    1.1212 H         1 <0>         0.0693
     41 H11        -4.1085    4.5937    1.3748 H         1 <0>         0.0581
     42 H12        -0.1917    2.2316    2.0055 H         1 <0>         0.4135
     43 H13         0.5883   -0.3548   -0.8473 H         1 <0>         0.0875
     44 H14         0.4501   -0.3665    0.9272 H         1 <0>         0.0835
     45 H15        -1.7109   -0.6007    2.0037 H         1 <0>         0.1097
     46 H16        -4.0171   -1.4437    1.8186 H         1 <0>         0.1148
     47 H17        -5.0031   -1.8552   -0.3999 H         1 <0>         0.1158
     48 H18        -3.6863   -1.4151   -2.4334 H         1 <0>         0.1169
     49 H19        -1.3833   -0.5633   -2.2485 H         1 <0>         0.1155
     50 H20         1.9031    1.1805   -1.7482 H         1 <0>         0.4062
     51 H21         4.0420    1.2117   -2.8672 H         1 <0>         0.0887
     52 H22         5.4746    1.7416   -1.9533 H         1 <0>         0.0967
     53 H23         6.2827    0.4616   -0.0580 H         1 <0>         0.1228
     54 H24         6.4067   -1.7451    1.0275 H         1 <0>         0.1231
     55 H25         4.7549   -3.4847    0.4722 H         1 <0>         0.1221
     56 H26         2.9736   -3.0146   -1.1616 H         1 <0>         0.1236
     57 H27         2.8442   -0.8048   -2.2401 H         1 <0>         0.1194
     58 H28         5.6044    3.8890   -1.4344 H         1 <0>         0.4017
     59 H29         4.7917    5.1910   -2.1178 H         1 <0>         0.4051
@<TRIPOS>BOND
     1    1    2 1
     2    1   33 1
     3    1   34 1
     4    1   35 1
     5    2    3 1
     6    2    4 1
     7    2    5 1
     8    3   36 1
     9    3   37 1
    10    3   38 1
    11    4   39 1
    12    4   40 1
    13    4   41 1
    14    5    6 1
    15    6    7 2
    16    6    8 am
    17    8    9 1
    18    8   42 1
    19    9   10 1
    20    9   11 1
    21    9   18 1
    22   11   12 1
    23   11   43 1
    24   11   44 1
    25   12   17 ar
    26   12   13 ar
    27   13   14 ar
    28   13   45 1
    29   14   15 ar
    30   14   46 1
    31   15   16 ar
    32   15   47 1
    33   16   17 ar
    34   16   48 1
    35   17   49 1
    36   18   19 2
    37   18   20 am
    38   20   21 1
    39   20   50 1
    40   21   22 1
    41   21   23 1
    42   21   30 1
    43   23   24 1
    44   23   51 1
    45   23   52 1
    46   24   29 ar
    47   24   25 ar
    48   25   26 ar
    49   25   53 1
    50   26   27 ar
    51   26   54 1
    52   27   28 ar
    53   27   55 1
    54   28   29 ar
    55   28   56 1
    56   29   57 1
    57   30   31 2
    58   30   32 am
    59   32   58 1
    60   32   59 1
@<TRIPOS>MOLECULE
ZINC03067705
   59    60     0     0     0
SMALL
USER_CHARGES
tert-butyl [1-[(1-carbamoyl-2-phenyl-ethyl)carbamoyl]-2-phenyl-ethyl]aminoformate
@<TRIPOS>ATOM
      1 C1         -4.9049   -1.3137    8.3518 C.3       1 <0>        -0.1836
      2 C2         -4.3166    0.0734    8.6177 C.3       1 <0>         0.1396
      3 C3         -3.8937    0.1755   10.0845 C.3       1 <0>        -0.1424
      4 C4         -5.3704    1.1407    8.3152 C.3       1 <0>        -0.1894
      5 O1         -3.1598    0.2801    7.7649 O.3       1 <0>        -0.3637
      6 C5         -3.3624    0.2219    6.4351 C.2       1 <0>         0.6553
      7 O2         -4.4755    0.0043    5.9991 O.2       1 <0>        -0.5484
      8 N1         -2.3306    0.4050    5.5876 N.am      1 <0>        -0.6976
      9 C6         -2.5510    0.3417    4.1407 C.3       1 <0>         0.1577
     10 H1         -3.3132   -0.4062    3.9217 H         1 <0>         0.1222
     11 C7         -3.0176    1.7084    3.6356 C.3       1 <0>        -0.0892
     12 C8         -4.3642    2.0309    4.2303 C.ar      1 <0>        -0.0657
     13 C9         -5.5192    1.6564    3.5695 C.ar      1 <0>        -0.1042
     14 C10        -6.7544    1.9479    4.1174 C.ar      1 <0>        -0.1109
     15 C11        -6.8347    2.6232    5.3209 C.ar      1 <0>        -0.1199
     16 C12        -5.6797    3.0023    5.9791 C.ar      1 <0>        -0.1090
     17 C13        -4.4445    2.7062    5.4338 C.ar      1 <0>        -0.1075
     18 C14        -1.2646   -0.0358    3.4526 C.2       1 <0>         0.5246
     19 O3         -0.2622   -0.2326    4.1064 O.2       1 <0>        -0.5251
     20 N2         -1.2279   -0.1548    2.1106 N.am      1 <0>        -0.6995
     21 C15         0.0228   -0.5218    1.4416 C.3       1 <0>         0.1353
     22 H2          0.8637   -0.0786    1.9750 H         1 <0>         0.1211
     23 C16         0.0021   -0.0041    0.0020 C.3       1 <0>        -0.0844
     24 C17        -0.0184    1.5028    0.0103 C.ar      1 <0>        -0.0875
     25 C18        -1.2248    2.1776    0.0197 C.ar      1 <0>        -0.1122
     26 C19        -1.2435    3.5598    0.0322 C.ar      1 <0>        -0.1145
     27 C20        -0.0559    4.2672    0.0247 C.ar      1 <0>        -0.1178
     28 C21         1.1505    3.5924    0.0100 C.ar      1 <0>        -0.1153
     29 C22         1.1693    2.2102    0.0028 C.ar      1 <0>        -0.1130
     30 C23         0.1670   -2.0218    1.4340 C.2       1 <0>         0.5055
     31 O4         -0.6905   -2.7160    1.9377 O.2       1 <0>        -0.5272
     32 N3          1.2488   -2.5919    0.8674 N.am      1 <0>        -0.8521
     33 H3         -4.1542   -2.0741    8.5672 H         1 <0>         0.0580
     34 H4         -5.7733   -1.4689    8.9919 H         1 <0>         0.0693
     35 H5         -5.2062   -1.3864    7.3068 H         1 <0>         0.0881
     36 H6         -3.4747    1.1637   10.2739 H         1 <0>         0.0660
     37 H7         -4.7622    0.0203   10.7247 H         1 <0>         0.0803
     38 H8         -3.1431   -0.5849   10.2999 H         1 <0>         0.0659
     39 H9         -5.6716    1.0680    7.2702 H         1 <0>         0.1015
     40 H10        -6.2388    0.9856    8.9554 H         1 <0>         0.0662
     41 H11        -4.9513    2.1290    8.5047 H         1 <0>         0.0572
     42 H12        -1.4420    0.5787    5.9357 H         1 <0>         0.4135
     43 H13        -2.2973    2.4708    3.9325 H         1 <0>         0.0835
     44 H14        -3.0962    1.6866    2.5486 H         1 <0>         0.0875
     45 H15        -5.4565    1.1327    2.6270 H         1 <0>         0.1155
     46 H16        -7.6567    1.6520    3.6030 H         1 <0>         0.1169
     47 H17        -7.7997    2.8549    5.7468 H         1 <0>         0.1158
     48 H18        -5.7424    3.5302    6.9192 H         1 <0>         0.1148
     49 H19        -3.5421    3.0027    5.9478 H         1 <0>         0.1097
     50 H20        -2.0295    0.0026    1.5876 H         1 <0>         0.4062
     51 H21        -0.8878   -0.3767   -0.5053 H         1 <0>         0.0887
     52 H22         0.8920   -0.3525   -0.5222 H         1 <0>         0.0967
     53 H23        -2.1527    1.6249    0.0211 H         1 <0>         0.1194
     54 H24        -2.1860    4.0870    0.0434 H         1 <0>         0.1236
     55 H25        -0.0705    5.3471    0.0299 H         1 <0>         0.1221
     56 H26         2.0784    4.1450    0.0037 H         1 <0>         0.1231
     57 H27         2.1118    1.6830   -0.0091 H         1 <0>         0.1228
     58 H28         1.9346   -2.0367    0.4645 H         1 <0>         0.4017
     59 H29         1.3416   -3.5575    0.8625 H         1 <0>         0.4051
@<TRIPOS>BOND
     1    1    2 1
     2    1   33 1
     3    1   34 1
     4    1   35 1
     5    2    3 1
     6    2    4 1
     7    2    5 1
     8    3   36 1
     9    3   37 1
    10    3   38 1
    11    4   39 1
    12    4   40 1
    13    4   41 1
    14    5    6 1
    15    6    7 2
    16    6    8 am
    17    8    9 1
    18    8   42 1
    19    9   10 1
    20    9   11 1
    21    9   18 1
    22   11   12 1
    23   11   43 1
    24   11   44 1
    25   12   17 ar
    26   12   13 ar
    27   13   14 ar
    28   13   45 1
    29   14   15 ar
    30   14   46 1
    31   15   16 ar
    32   15   47 1
    33   16   17 ar
    34   16   48 1
    35   17   49 1
    36   18   19 2
    37   18   20 am
    38   20   21 1
    39   20   50 1
    40   21   22 1
    41   21   23 1
    42   21   30 1
    43   23   24 1
    44   23   51 1
    45   23   52 1
    46   24   29 ar
    47   24   25 ar
    48   25   26 ar
    49   25   53 1
    50   26   27 ar
    51   26   54 1
    52   27   28 ar
    53   27   55 1
    54   28   29 ar
    55   28   56 1
    56   29   57 1
    57   30   31 2
    58   30   32 am
    59   32   58 1
    60   32   59 1
@<TRIPOS>MOLECULE
ZINC03067706
   59    60     0     0     0
SMALL
USER_CHARGES
tert-butyl [1-[(1-carbamoyl-2-phenyl-ethyl)carbamoyl]-2-phenyl-ethyl]aminoformate
@<TRIPOS>ATOM
      1 C1         -3.7239   -1.5674   -8.1860 C.3       1 <0>        -0.1897
      2 C2         -2.6142   -0.5318   -8.3783 C.3       1 <0>         0.1397
      3 C3         -2.5009   -0.1751   -9.8618 C.3       1 <0>        -0.1426
      4 C4         -1.2852   -1.1118   -7.8902 C.3       1 <0>        -0.1830
      5 O1         -2.9299    0.6630   -7.6160 O.3       1 <0>        -0.3636
      6 C5         -3.0648    0.5204   -6.2840 C.2       1 <0>         0.6551
      7 O2         -2.9226   -0.5727   -5.7725 O.2       1 <0>        -0.5489
      8 N1         -3.3575    1.5899   -5.5179 N.am      1 <0>        -0.6978
      9 C6         -3.5043    1.4347   -4.0686 C.3       1 <0>         0.1591
     10 H1         -2.8030    0.6808   -3.7110 H         1 <0>         0.1206
     11 C7         -4.9338    0.9957   -3.7449 C.3       1 <0>        -0.0897
     12 C8         -5.1806   -0.3753   -4.3197 C.ar      1 <0>        -0.0649
     13 C9         -5.6825   -0.5075   -5.6009 C.ar      1 <0>        -0.1079
     14 C10        -5.9043   -1.7652   -6.1300 C.ar      1 <0>        -0.1087
     15 C11        -5.6341   -2.8906   -5.3740 C.ar      1 <0>        -0.1205
     16 C12        -5.1372   -2.7583   -4.0908 C.ar      1 <0>        -0.1113
     17 C13        -4.9104   -1.5007   -3.5637 C.ar      1 <0>        -0.1044
     18 C14        -3.2170    2.7497   -3.3909 C.2       1 <0>         0.5242
     19 O3         -2.9190    3.7209   -4.0533 O.2       1 <0>        -0.5251
     20 N2         -3.2913    2.8464   -2.0487 N.am      1 <0>        -0.6995
     21 C15        -3.0120    4.1248   -1.3898 C.3       1 <0>         0.1347
     22 H2         -2.2270    4.6501   -1.9339 H         1 <0>         0.1205
     23 C16        -2.5528    3.8685    0.0469 C.3       1 <0>        -0.0840
     24 C17        -1.2377    3.1328    0.0303 C.ar      1 <0>        -0.0886
     25 C18        -1.2190    1.7507    0.0173 C.ar      1 <0>        -0.1119
     26 C19        -0.0126    1.0758    0.0080 C.ar      1 <0>        -0.1151
     27 C20         1.1750    1.7832    0.0004 C.ar      1 <0>        -0.1178
     28 C21         1.1563    3.1654    0.0076 C.ar      1 <0>        -0.1157
     29 C22        -0.0501    3.8402    0.0223 C.ar      1 <0>        -0.1133
     30 C23        -4.2623    4.9660   -1.3751 C.2       1 <0>         0.5066
     31 O4         -5.2858    4.5397   -1.8666 O.2       1 <0>        -0.5269
     32 N3         -4.2430    6.1921   -0.8159 N.am      1 <0>        -0.8522
     33 H3         -4.6707   -1.1542   -8.5337 H         1 <0>         0.0574
     34 H4         -3.4869   -2.4643   -8.7583 H         1 <0>         0.0661
     35 H5         -3.8046   -1.8215   -7.1292 H         1 <0>         0.1017
     36 H6         -1.7103    0.5627   -9.9987 H         1 <0>         0.0658
     37 H7         -2.2639   -1.0720  -10.4341 H         1 <0>         0.0803
     38 H8         -3.4477    0.2381  -10.2095 H         1 <0>         0.0661
     39 H9         -1.3659   -1.3659   -6.8334 H         1 <0>         0.0880
     40 H10        -1.0482   -2.0087   -8.4625 H         1 <0>         0.0691
     41 H11        -0.4946   -0.3740   -8.0272 H         1 <0>         0.0577
     42 H12        -3.4710    2.4624   -5.9262 H         1 <0>         0.4139
     43 H13        -5.0687    0.9660   -2.6637 H         1 <0>         0.0884
     44 H14        -5.6388    1.7043   -4.1797 H         1 <0>         0.0855
     45 H15        -5.8978    0.3717   -6.1899 H         1 <0>         0.1099
     46 H16        -6.2929   -1.8686   -7.1323 H         1 <0>         0.1147
     47 H17        -5.8116   -3.8731   -5.7857 H         1 <0>         0.1157
     48 H18        -4.9264   -3.6374   -3.5000 H         1 <0>         0.1167
     49 H19        -4.5225   -1.3973   -2.5611 H         1 <0>         0.1152
     50 H20        -3.5297    2.0697   -1.5188 H         1 <0>         0.4062
     51 H21        -3.2994    3.2665    0.5650 H         1 <0>         0.0888
     52 H22        -2.4304    4.8199    0.5645 H         1 <0>         0.0966
     53 H23        -2.1469    1.1980    0.0188 H         1 <0>         0.1197
     54 H24         0.0021   -0.0041    0.0020 H         1 <0>         0.1238
     55 H25         2.1175    1.2560   -0.0115 H         1 <0>         0.1224
     56 H26         2.0841    3.7181    0.0014 H         1 <0>         0.1234
     57 H27        -0.0647    4.9201    0.0280 H         1 <0>         0.1230
     58 H28        -3.4243    6.5331   -0.4228 H         1 <0>         0.4017
     59 H29        -5.0477    6.7336   -0.8064 H         1 <0>         0.4051
@<TRIPOS>BOND
     1    1    2 1
     2    1   33 1
     3    1   34 1
     4    1   35 1
     5    2    3 1
     6    2    4 1
     7    2    5 1
     8    3   36 1
     9    3   37 1
    10    3   38 1
    11    4   39 1
    12    4   40 1
    13    4   41 1
    14    5    6 1
    15    6    7 2
    16    6    8 am
    17    8    9 1
    18    8   42 1
    19    9   10 1
    20    9   11 1
    21    9   18 1
    22   11   12 1
    23   11   43 1
    24   11   44 1
    25   12   17 ar
    26   12   13 ar
    27   13   14 ar
    28   13   45 1
    29   14   15 ar
    30   14   46 1
    31   15   16 ar
    32   15   47 1
    33   16   17 ar
    34   16   48 1
    35   17   49 1
    36   18   19 2
    37   18   20 am
    38   20   21 1
    39   20   50 1
    40   21   22 1
    41   21   23 1
    42   21   30 1
    43   23   24 1
    44   23   51 1
    45   23   52 1
    46   24   29 ar
    47   24   25 ar
    48   25   26 ar
    49   25   53 1
    50   26   27 ar
    51   26   54 1
    52   27   28 ar
    53   27   55 1
    54   28   29 ar
    55   28   56 1
    56   29   57 1
    57   30   31 2
    58   30   32 am
    59   32   58 1
    60   32   59 1
@<TRIPOS>MOLECULE
ZINC19861699
   64    67     0     0     0
SMALL
USER_CHARGES
benzyl N-[(1S)-2-[[(1S)-2-amino-1-benzyl-2-oxo-ethyl]amino]-1-(1H-indol-3-ylmethyl)-2-oxo-ethyl]carbamate
@<TRIPOS>ATOM
      1 C1          1.6882   -1.3858   -3.6715 C.ar      1 <0>        -0.1193
      2 C2          2.5051   -1.1499   -2.5816 C.ar      1 <0>        -0.1155
      3 C3          1.9595   -0.7027   -1.3929 C.ar      1 <0>        -0.1114
      4 C4          0.5970   -0.4913   -1.2941 C.ar      1 <0>        -0.0856
      5 C5         -0.2206   -0.7322   -2.3824 C.ar      1 <0>        -0.1141
      6 C6          0.3257   -1.1744   -3.5727 C.ar      1 <0>        -0.1159
      7 C7          0.0021   -0.0041    0.0020 C.3       1 <0>        -0.0815
      8 C8         -0.0187    1.5258    0.0104 C.3       1 <0>         0.1375
      9 H1         -0.5240    1.9190   -0.8840 H         1 <0>         0.1167
     10 C9         -0.7240    2.0118    1.2503 C.2       1 <0>         0.5074
     11 O1         -0.1366    2.7127    2.0468 O.2       1 <0>        -0.5355
     12 N1         -2.0078    1.6675    1.4740 N.am      1 <0>        -0.8766
     13 N2          1.3557    2.0329    0.0000 N.am      1 <0>        -0.7123
     14 C10         1.6171    3.2612   -0.4892 C.2       1 <0>         0.5260
     15 O2          0.7146    3.9467   -0.9208 O.2       1 <0>        -0.5333
     16 C11         3.0309    3.7828   -0.4999 C.3       1 <0>         0.1635
     17 H2          3.6599    3.1412   -1.1345 H         1 <0>         0.1144
     18 C12         3.5666    3.8337    0.9324 C.3       1 <0>        -0.0482
     19 C13         5.0183    4.2377    0.9117 C.2       1 <0>        -0.1634
     20 C14         6.0770    3.4125    0.9236 C.2       1 <0>         0.0594
     21 N3          7.2358    4.1398    0.8968 N.pl3     1 <0>        -0.6036
     22 H3          8.2082    3.6255    0.9017 H         1 <0>         0.4379
     23 C15         6.9436    5.4850    0.8663 C.ar      1 <0>         0.1173
     24 C16         5.5417    5.6052    0.8684 C.ar      1 <0>        -0.0796
     25 C17         4.9510    6.8696    0.8353 C.ar      1 <0>        -0.0743
     26 C18         5.7389    7.9857    0.7976 C.ar      1 <0>        -0.1479
     27 C19         7.1221    7.8723    0.7920 C.ar      1 <0>        -0.1071
     28 C20         7.7260    6.6344    0.8318 C.ar      1 <0>        -0.1323
     29 N4          3.0503    5.1294   -1.0766 N.am      1 <0>        -0.7100
     30 C21         4.1747    5.6002   -1.6514 C.2       1 <0>         0.6584
     31 O3          5.1725    4.9078   -1.6913 O.2       1 <0>        -0.5596
     32 O4          4.1925    6.8377   -2.1814 O.3       1 <0>        -0.3622
     33 C22         5.4377    7.2789   -2.7840 C.3       1 <0>         0.1341
     34 C23         5.2687    8.6773   -3.3197 C.ar      1 <0>        -0.0958
     35 C24         4.8449    8.8724   -4.6210 C.ar      1 <0>        -0.0953
     36 C25         4.6852   10.1551   -5.1109 C.ar      1 <0>        -0.1242
     37 C26         4.9591   11.2427   -4.3028 C.ar      1 <0>        -0.1093
     38 C27         5.3884   11.0476   -3.0033 C.ar      1 <0>        -0.1243
     39 C28         5.5430    9.7649   -2.5118 C.ar      1 <0>        -0.0912
     40 H4          2.1145   -1.7356   -4.6002 H         1 <0>         0.1215
     41 H5          3.5696   -1.3154   -2.6587 H         1 <0>         0.1227
     42 H6          2.5976   -0.5187   -0.5412 H         1 <0>         0.1197
     43 H7         -1.2856   -0.5712   -2.3039 H         1 <0>         0.1223
     44 H8         -0.3125   -1.3591   -4.4242 H         1 <0>         0.1226
     45 H9         -1.0251   -0.3853    0.1002 H         1 <0>         0.0948
     46 H10         0.6099   -0.3672    0.8438 H         1 <0>         0.0883
     47 H11        -2.5227    2.0222    2.3790 H         1 <0>         0.4241
     48 H12        -2.5406    1.0318    0.7515 H         1 <0>         0.4184
     49 H13         2.1743    1.4111    0.3915 H         1 <0>         0.4239
     50 H14         2.9898    4.5682    1.5137 H         1 <0>         0.0813
     51 H15         3.4688    2.8409    1.3960 H         1 <0>         0.0825
     52 H16         6.0224    2.3343    0.9506 H         1 <0>         0.1616
     53 H17         3.8753    6.9655    0.8390 H         1 <0>         0.1127
     54 H18         5.2814    8.9637    0.7724 H         1 <0>         0.1164
     55 H19         7.7314    8.7636    0.7621 H         1 <0>         0.1200
     56 H20         8.8032    6.5565    0.8253 H         1 <0>         0.1143
     57 H21         2.1471    5.7563   -1.0405 H         1 <0>         0.4351
     58 H22         6.2350    7.2704   -2.0262 H         1 <0>         0.0806
     59 H23         5.7071    6.6009   -3.6073 H         1 <0>         0.0728
     60 H24         4.6349    8.0227   -5.2536 H         1 <0>         0.1225
     61 H25         4.3502   10.3076   -6.1262 H         1 <0>         0.1244
     62 H26         4.8379   12.2449   -4.6867 H         1 <0>         0.1236
     63 H27         5.6027   11.8973   -2.3721 H         1 <0>         0.1248
     64 H28         5.8785    9.6124   -1.4965 H         1 <0>         0.1260
@<TRIPOS>BOND
     1    1    6 ar
     2    1    2 ar
     3    1   40 1
     4    2    3 ar
     5    2   41 1
     6    3    4 ar
     7    3   42 1
     8    4    5 ar
     9    4    7 1
    10    5    6 ar
    11    5   43 1
    12    6   44 1
    13    7    8 1
    14    7   45 1
    15    7   46 1
    16    8    9 1
    17    8   10 1
    18    8   13 1
    19   10   11 2
    20   10   12 am
    21   12   47 1
    22   12   48 1
    23   13   14 am
    24   13   49 1
    25   14   15 2
    26   14   16 1
    27   16   17 1
    28   16   18 1
    29   16   29 1
    30   18   19 1
    31   18   50 1
    32   18   51 1
    33   19   24 1
    34   19   20 2
    35   20   21 1
    36   20   52 1
    37   21   22 1
    38   21   23 1
    39   23   28 ar
    40   23   24 ar
    41   24   25 ar
    42   25   26 ar
    43   25   53 1
    44   26   27 ar
    45   26   54 1
    46   27   28 ar
    47   27   55 1
    48   28   56 1
    49   29   30 am
    50   29   57 1
    51   30   31 2
    52   30   32 1
    53   32   33 1
    54   33   34 1
    55   33   58 1
    56   33   59 1
    57   34   39 ar
    58   34   35 ar
    59   35   36 ar
    60   35   60 1
    61   36   37 ar
    62   36   61 1
    63   37   38 ar
    64   37   62 1
    65   38   39 ar
    66   38   63 1
    67   39   64 1
@<TRIPOS>MOLECULE
ZINC03935475
   84    88     0     0     0
SMALL
USER_CHARGES
N-[1-[3-[1-benzoyl-3-(3,4-dichlorophenyl)-3-piperidyl]propyl]-4-phenyl-4-piperidyl]-N-methyl-acetamide
@<TRIPOS>ATOM
      1 C1         -1.7697   -6.2079   -2.9380 C.3       1 <0>        -0.1803
      2 C2         -1.5505   -6.7090   -1.5338 C.2       1 <0>         0.5117
      3 O1         -0.9517   -7.7470   -1.3470 O.2       1 <0>        -0.5158
      4 N1         -2.0200   -6.0038   -0.4856 N.am      1 <0>        -0.6196
      5 C3         -2.8344   -4.8075   -0.7134 C.3       1 <0>         0.0598
      6 C4         -1.7158   -6.4334    0.8815 C.3       1 <0>         0.2218
      7 C5         -2.0581   -5.3066    1.8601 C.3       1 <0>        -0.1522
      8 C6         -1.1856   -4.0876    1.5522 C.3       1 <0>        -0.0143
      9 C7          0.5945   -5.5017    0.7132 C.3       1 <0>        -0.0015
     10 C8         -0.2249   -6.7629    0.9960 C.3       1 <0>        -0.1633
     11 C9          1.0949   -3.2759    1.5231 C.3       1 <0>        -0.0069
     12 C10         2.5309   -3.6438    1.9020 C.3       1 <0>        -0.1650
     13 C11         3.4307   -2.4167    1.7428 C.3       1 <0>        -0.1087
     14 C12         4.8879   -2.8187    1.9788 C.3       1 <0>        -0.0228
     15 C13         5.0117   -3.5224    3.3322 C.3       1 <0>        -0.1128
     16 C14         4.5262   -2.5868    4.4417 C.3       1 <0>        -0.1363
     17 C15         5.4048   -1.3321    4.4670 C.3       1 <0>         0.0868
     18 N2          5.4068   -0.7292    3.1271 N.am      1 <0>        -0.6076
     19 C16         5.7706   -1.5667    1.9761 C.3       1 <0>         0.1233
     20 C17         5.0816    0.5677    2.9572 C.2       1 <0>         0.5642
     21 O2          5.0056    1.0335    1.8371 O.2       1 <0>        -0.5271
     22 C18         4.8172    1.4237    4.1333 C.ar      1 <0>        -0.1380
     23 C19         3.8267    2.4055    4.0772 C.ar      1 <0>        -0.0658
     24 C20         3.5814    3.1974    5.1799 C.ar      1 <0>        -0.1235
     25 C21         4.3223    3.0274    6.3360 C.ar      1 <0>        -0.0910
     26 C22         5.3095    2.0599    6.3964 C.ar      1 <0>        -0.1242
     27 C23         5.5609    1.2575    5.3027 C.ar      1 <0>        -0.0943
     28 C24         5.3358   -3.7522    0.8837 C.ar      1 <0>        -0.0612
     29 C25         6.5760   -4.3590    0.9573 C.ar      1 <0>        -0.0938
     30 C26         6.9904   -5.2105   -0.0493 C.ar      1 <0>        -0.0875
     31 C27         6.1595   -5.4650   -1.1258 C.ar      1 <0>        -0.0308
     32 C28         4.9176   -4.8575   -1.1994 C.ar      1 <0>        -0.0305
     33 C29         4.5067   -4.0010   -0.1937 C.ar      1 <0>        -0.1108
     34 Cl1         3.8765   -5.1707   -2.5528 Cl        1 <0>        -0.0437
     35 Cl2         6.6766   -6.5401   -2.3869 Cl        1 <0>        -0.0352
     36 C30        -2.5292   -7.6567    1.2177 C.ar      1 <0>        -0.1097
     37 C31        -2.7954   -7.9685    2.5378 C.ar      1 <0>        -0.1154
     38 C32        -3.5455   -9.0879    2.8460 C.ar      1 <0>        -0.1181
     39 C33        -4.0210   -9.9012    1.8343 C.ar      1 <0>        -0.1054
     40 C34        -3.7501   -9.5926    0.5144 C.ar      1 <0>        -0.1172
     41 C35        -3.0043   -8.4702    0.2060 C.ar      1 <0>        -0.0910
     42 H1         -1.3055   -5.2281   -3.0508 H         1 <0>         0.0906
     43 H2         -1.3229   -6.9053   -3.6466 H         1 <0>         0.0999
     44 H3         -2.8392   -6.1277   -3.1324 H         1 <0>         0.0950
     45 H4         -2.1822   -3.9477   -0.8667 H         1 <0>         0.0612
     46 H5         -3.4560   -4.9540   -1.5967 H         1 <0>         0.0865
     47 H6         -3.4709   -4.6308    0.1536 H         1 <0>         0.0853
     48 H7         -1.8694   -5.6408    2.8803 H         1 <0>         0.1081
     49 H8         -3.1091   -5.0381    1.7536 H         1 <0>         0.1241
     50 H9         -1.4168   -3.2883    2.2563 H         1 <0>         0.1344
     51 H10        -1.3849   -3.7455    0.5366 H         1 <0>         0.1377
     52 H11         0.3868   -5.1530   -0.2985 H         1 <0>         0.1261
     53 H12         1.6562   -5.7295    0.8079 H         1 <0>         0.1313
     54 H13        -0.0074   -7.1200    2.0026 H         1 <0>         0.0973
     55 H14         0.0339   -7.5350    0.2715 H         1 <0>         0.1491
     56 H15         0.7400   -2.4781    2.1755 H         1 <0>         0.1314
     57 H16         1.0678   -2.9374    0.4874 H         1 <0>         0.1297
     58 H17         2.8857   -4.4416    1.2496 H         1 <0>         0.0949
     59 H18         2.5580   -3.9823    2.9377 H         1 <0>         0.0941
     60 H19         3.1412   -1.6572    2.4691 H         1 <0>         0.0867
     61 H20         3.3231   -2.0155    0.7351 H         1 <0>         0.0808
     62 H21         4.4036   -4.4270    3.3281 H         1 <0>         0.0715
     63 H22         6.0541   -3.7866    3.5101 H         1 <0>         0.0770
     64 H23         4.5927   -3.0969    5.4027 H         1 <0>         0.0839
     65 H24         3.4913   -2.3024    4.2516 H         1 <0>         0.0685
     66 H25         6.4225   -1.6043    4.7467 H         1 <0>         0.0764
     67 H26         5.0037   -0.6196    5.1877 H         1 <0>         0.1053
     68 H27         6.8182   -1.8580    2.0527 H         1 <0>         0.0779
     69 H28         5.6109   -1.0089    1.0533 H         1 <0>         0.1008
     70 H29         3.2507    2.5422    3.1738 H         1 <0>         0.1304
     71 H30         2.8123    3.9545    5.1393 H         1 <0>         0.1320
     72 H31         4.1289    3.6525    7.1952 H         1 <0>         0.1306
     73 H32         5.8842    1.9322    7.3018 H         1 <0>         0.1322
     74 H33         6.3313    0.5021    5.3513 H         1 <0>         0.1330
     75 H34         7.2231   -4.1639    1.7997 H         1 <0>         0.1412
     76 H35         7.9611   -5.6806    0.0066 H         1 <0>         0.1481
     77 H36         3.5380   -3.5270   -0.2504 H         1 <0>         0.1410
     78 H37        -2.4204   -7.3353    3.3284 H         1 <0>         0.1191
     79 H38        -3.7569   -9.3292    3.8772 H         1 <0>         0.1268
     80 H39        -4.6040  -10.7779    2.0752 H         1 <0>         0.1269
     81 H40        -4.1213  -10.2282   -0.2759 H         1 <0>         0.1253
     82 H41        -2.7926   -8.2291   -0.8252 H         1 <0>         0.1286
     83 N3          0.2360   -4.4645    1.7037 N.4       1 <0>        -0.3924
     84 H42         0.3820   -4.8409    2.6477 H         1 <0>         0.4252
@<TRIPOS>BOND
     1    1    2 1
     2    1   42 1
     3    1   43 1
     4    1   44 1
     5    2    3 2
     6    2    4 am
     7    4    5 1
     8    4    6 1
     9    5   45 1
    10    5   46 1
    11    5   47 1
    12    6   10 1
    13    6    7 1
    14    6   36 1
    15    7    8 1
    16    7   48 1
    17    7   49 1
    18    8   50 1
    19    8   51 1
    20    8   83 1
    21    9   10 1
    22    9   52 1
    23    9   53 1
    24    9   83 1
    25   10   54 1
    26   10   55 1
    27   11   12 1
    28   11   56 1
    29   11   57 1
    30   11   83 1
    31   12   13 1
    32   12   58 1
    33   12   59 1
    34   13   14 1
    35   13   60 1
    36   13   61 1
    37   14   19 1
    38   14   15 1
    39   14   28 1
    40   15   16 1
    41   15   62 1
    42   15   63 1
    43   16   17 1
    44   16   64 1
    45   16   65 1
    46   17   18 1
    47   17   66 1
    48   17   67 1
    49   18   19 1
    50   18   20 am
    51   19   68 1
    52   19   69 1
    53   20   21 2
    54   20   22 1
    55   22   27 ar
    56   22   23 ar
    57   23   24 ar
    58   23   70 1
    59   24   25 ar
    60   24   71 1
    61   25   26 ar
    62   25   72 1
    63   26   27 ar
    64   26   73 1
    65   27   74 1
    66   28   33 ar
    67   28   29 ar
    68   29   30 ar
    69   29   75 1
    70   30   31 ar
    71   30   76 1
    72   31   32 ar
    73   31   35 1
    74   32   33 ar
    75   32   34 1
    76   33   77 1
    77   36   41 ar
    78   36   37 ar
    79   37   38 ar
    80   37   78 1
    81   38   39 ar
    82   38   79 1
    83   39   40 ar
    84   39   80 1
    85   40   41 ar
    86   40   81 1
    87   41   82 1
    88   83   84 1
@<TRIPOS>MOLECULE
ZINC13762380
   49    52     0     0     0
SMALL
USER_CHARGES
methyl (2S)-2-phenyl-2-[[2-(4-pyridyl)quinoline-4-carbonyl]amino]acetate
@<TRIPOS>ATOM
      1 C1         -6.9146    0.8426    3.0323 C.3       1 <0>         0.0354
      2 O1         -6.5616    0.6631    1.6354 O.3       1 <0>        -0.3504
      3 C2         -5.3876    0.0666    1.3753 C.2       1 <0>         0.4544
      4 O2         -4.6784   -0.2936    2.2848 O.2       1 <0>        -0.4919
      5 C3         -4.9541   -0.1539   -0.0511 C.3       1 <0>         0.2041
      6 H1         -4.8800    0.8067   -0.5609 H         1 <0>         0.1402
      7 C4         -5.9664   -1.0198   -0.7557 C.ar      1 <0>        -0.1042
      8 C5         -5.9454   -2.3907   -0.5793 C.ar      1 <0>        -0.1111
      9 C6         -6.8767   -3.1846   -1.2222 C.ar      1 <0>        -0.1130
     10 C7         -7.8233   -2.6085   -2.0485 C.ar      1 <0>        -0.1053
     11 C8         -7.8410   -1.2381   -2.2290 C.ar      1 <0>        -0.1131
     12 C9         -6.9124   -0.4438   -1.5827 C.ar      1 <0>        -0.0864
     13 N1         -3.6481   -0.8174   -0.0675 N.am      1 <0>        -0.7012
     14 C10        -2.5196   -0.0865    0.0265 C.2       1 <0>         0.5763
     15 O3         -2.5855    1.1231    0.1249 O.2       1 <0>        -0.5118
     16 C11        -1.2010   -0.7564    0.0099 C.ar      1 <0>        -0.0662
     17 C12        -1.1013   -2.1393    0.0203 C.ar      1 <0>        -0.1187
     18 C13         0.1663   -2.7404    0.0044 C.ar      1 <0>         0.1854
     19 N2          1.2714   -2.0229   -0.0203 N.ar      1 <0>        -0.4372
     20 C14         1.2427   -0.6894   -0.0314 C.ar      1 <0>         0.1324
     21 C15         0.0018   -0.0041   -0.0167 C.ar      1 <0>        -0.0593
     22 C16        -0.0174    1.3963   -0.0280 C.ar      1 <0>        -0.1061
     23 C17         1.1571    2.0871   -0.0531 C.ar      1 <0>        -0.1069
     24 C18         2.3793    1.4180   -0.0687 C.ar      1 <0>        -0.0936
     25 C19         2.4353    0.0587   -0.0578 C.ar      1 <0>        -0.0935
     26 C20         0.2651   -4.2207    0.0151 C.ar      1 <0>        -0.0069
     27 C21        -0.8834   -5.0167    0.0465 C.ar      1 <0>        -0.1563
     28 C22        -0.7462   -6.3901    0.0498 C.ar      1 <0>         0.1014
     29 N3          0.4474   -6.9513    0.0349 N.ar      1 <0>        -0.4774
     30 C23         1.5557   -6.2367    0.0107 C.ar      1 <0>         0.0997
     31 C24         1.5093   -4.8573   -0.0001 C.ar      1 <0>        -0.1310
     32 H2         -7.8844    1.3353    3.1016 H         1 <0>         0.1056
     33 H3         -6.9653   -0.1298    3.5221 H         1 <0>         0.0640
     34 H4         -6.1591    1.4571    3.5219 H         1 <0>         0.0649
     35 H5         -5.2034   -2.8412    0.0633 H         1 <0>         0.1204
     36 H6         -6.8630   -4.2552   -1.0810 H         1 <0>         0.1293
     37 H7         -8.5493   -3.2290   -2.5529 H         1 <0>         0.1282
     38 H8         -8.5806   -0.7879   -2.8746 H         1 <0>         0.1307
     39 H9         -6.9263    0.6269   -1.7237 H         1 <0>         0.1319
     40 H10        -3.5955   -1.7828   -0.1461 H         1 <0>         0.4080
     41 H11        -1.9925   -2.7491    0.0407 H         1 <0>         0.1423
     42 H12        -0.9585    1.9261   -0.0214 H         1 <0>         0.1692
     43 H13         1.1403    3.1669   -0.0622 H         1 <0>         0.1330
     44 H14         3.2967    1.9875   -0.0893 H         1 <0>         0.1351
     45 H15         3.3907   -0.4447   -0.0690 H         1 <0>         0.1410
     46 H16        -1.8637   -4.5638    0.0639 H         1 <0>         0.1370
     47 H17        -1.6278   -7.0135    0.0699 H         1 <0>         0.1614
     48 H18         2.5124   -6.7377   -0.0006 H         1 <0>         0.1618
     49 H19         2.4209   -4.2785   -0.0202 H         1 <0>         0.1482
@<TRIPOS>BOND
     1    1    2 1
     2    1   32 1
     3    1   33 1
     4    1   34 1
     5    2    3 1
     6    3    4 2
     7    3    5 1
     8    5    6 1
     9    5    7 1
    10    5   13 1
    11    7   12 ar
    12    7    8 ar
    13    8    9 ar
    14    8   35 1
    15    9   10 ar
    16    9   36 1
    17   10   11 ar
    18   10   37 1
    19   11   12 ar
    20   11   38 1
    21   12   39 1
    22   13   14 am
    23   13   40 1
    24   14   15 2
    25   14   16 1
    26   16   21 ar
    27   16   17 ar
    28   17   18 ar
    29   17   41 1
    30   18   19 ar
    31   18   26 1
    32   19   20 ar
    33   20   25 ar
    34   20   21 ar
    35   21   22 ar
    36   22   23 ar
    37   22   42 1
    38   23   24 ar
    39   23   43 1
    40   24   25 ar
    41   24   44 1
    42   25   45 1
    43   26   31 ar
    44   26   27 ar
    45   27   28 ar
    46   27   46 1
    47   28   29 ar
    48   28   47 1
    49   29   30 ar
    50   30   31 ar
    51   30   48 1
    52   31   49 1
@<TRIPOS>MOLECULE
ZINC13762382
   49    52     0     0     0
SMALL
USER_CHARGES
methyl (2R)-2-phenyl-2-[[2-(4-pyridyl)quinoline-4-carbonyl]amino]acetate
@<TRIPOS>ATOM
      1 C1         -2.6011    1.7037    2.7235 C.3       1 <0>         0.0355
      2 O1         -1.9921    1.2173    1.4984 O.3       1 <0>        -0.3505
      3 C2         -0.7147    1.5633    1.2738 C.2       1 <0>         0.4543
      4 O2         -0.1251    2.2498    2.0743 O.2       1 <0>        -0.4917
      5 C3         -0.0161    1.0954    0.0231 C.3       1 <0>         0.2041
      6 H1         -0.0016    0.0057    0.0011 H         1 <0>         0.1403
      7 C4         -0.7515    1.6125   -1.1864 C.ar      1 <0>        -0.1043
      8 C5         -0.5635    2.9167   -1.6043 C.ar      1 <0>        -0.1114
      9 C6         -1.2347    3.3897   -2.7164 C.ar      1 <0>        -0.1131
     10 C7         -2.1012    2.5614   -3.4048 C.ar      1 <0>        -0.1052
     11 C8         -2.2929    1.2587   -2.9841 C.ar      1 <0>        -0.1131
     12 C9         -1.6184    0.7844   -1.8746 C.ar      1 <0>        -0.0862
     13 N1          1.3583    1.6025    0.0127 N.am      1 <0>        -0.7010
     14 C10         2.3312    0.9256    0.6543 C.2       1 <0>         0.5761
     15 O3          2.0683   -0.1056    1.2415 O.2       1 <0>        -0.5119
     16 C11         3.7188    1.4375    0.6438 C.ar      1 <0>        -0.0658
     17 C12         4.0675    2.5429   -0.1172 C.ar      1 <0>        -0.1196
     18 C13         5.3937    3.0007   -0.1029 C.ar      1 <0>         0.1855
     19 N2          6.3224    2.4061    0.6183 N.ar      1 <0>        -0.4373
     20 C14         6.0510    1.3390    1.3712 C.ar      1 <0>         0.1326
     21 C15         4.7339    0.8165    1.4168 C.ar      1 <0>        -0.0591
     22 C16         4.4581   -0.3007    2.2152 C.ar      1 <0>        -0.1056
     23 C17         5.4575   -0.8719    2.9447 C.ar      1 <0>        -0.1070
     24 C18         6.7526   -0.3589    2.9073 C.ar      1 <0>        -0.0933
     25 C19         7.0583    0.7185    2.1345 C.ar      1 <0>        -0.0937
     26 C20         5.7592    4.1840   -0.9197 C.ar      1 <0>        -0.0068
     27 C21         4.8041    4.8391   -1.7022 C.ar      1 <0>        -0.1564
     28 C22         5.1858    5.9396   -2.4426 C.ar      1 <0>         0.1014
     29 N3          6.4336    6.3668   -2.4264 N.ar      1 <0>        -0.4775
     30 C23         7.3663    5.7743   -1.7063 C.ar      1 <0>         0.0998
     31 C24         7.0694    4.6707   -0.9323 C.ar      1 <0>        -0.1310
     32 H2         -3.6314    1.3527    2.7813 H         1 <0>         0.1056
     33 H3         -2.0413    1.3299    3.5808 H         1 <0>         0.0649
     34 H4         -2.5877    2.7936    2.7280 H         1 <0>         0.0639
     35 H5          0.1104    3.5651   -1.0640 H         1 <0>         0.1207
     36 H6         -1.0847    4.4074   -3.0453 H         1 <0>         0.1293
     37 H7         -2.6282    2.9320   -4.2716 H         1 <0>         0.1282
     38 H8         -2.9699    0.6115   -3.5219 H         1 <0>         0.1307
     39 H9         -1.7684   -0.2333   -1.5457 H         1 <0>         0.1319
     40 H10         1.5681    2.4255   -0.4559 H         1 <0>         0.4080
     41 H11         3.3241    3.0473   -0.7166 H         1 <0>         0.1426
     42 H12         3.4583   -0.7073    2.2529 H         1 <0>         0.1689
     43 H13         5.2431   -1.7335    3.5596 H         1 <0>         0.1329
     44 H14         7.5278   -0.8292    3.4940 H         1 <0>         0.1352
     45 H15         8.0670    1.1041    2.1168 H         1 <0>         0.1410
     46 H16         3.7818    4.4917   -1.7240 H         1 <0>         0.1371
     47 H17         4.4541    6.4549   -3.0472 H         1 <0>         0.1614
     48 H18         8.3759    6.1575   -1.7228 H         1 <0>         0.1618
     49 H19         7.8380    4.1906   -0.3448 H         1 <0>         0.1482
@<TRIPOS>BOND
     1    1    2 1
     2    1   32 1
     3    1   33 1
     4    1   34 1
     5    2    3 1
     6    3    4 2
     7    3    5 1
     8    5    6 1
     9    5    7 1
    10    5   13 1
    11    7   12 ar
    12    7    8 ar
    13    8    9 ar
    14    8   35 1
    15    9   10 ar
    16    9   36 1
    17   10   11 ar
    18   10   37 1
    19   11   12 ar
    20   11   38 1
    21   12   39 1
    22   13   14 am
    23   13   40 1
    24   14   15 2
    25   14   16 1
    26   16   21 ar
    27   16   17 ar
    28   17   18 ar
    29   17   41 1
    30   18   19 ar
    31   18   26 1
    32   19   20 ar
    33   20   25 ar
    34   20   21 ar
    35   21   22 ar
    36   22   23 ar
    37   22   42 1
    38   23   24 ar
    39   23   43 1
    40   24   25 ar
    41   24   44 1
    42   25   45 1
    43   26   31 ar
    44   26   27 ar
    45   27   28 ar
    46   27   46 1
    47   28   29 ar
    48   28   47 1
    49   29   30 ar
    50   30   31 ar
    51   30   48 1
    52   31   49 1
@<TRIPOS>MOLECULE
ZINC00601874
   50    53     0     0     0
SMALL
USER_CHARGES

@<TRIPOS>ATOM
      1 C1         -0.0662    1.4462    0.0463 C.3       1 <0>         0.0332
      2 O1         -0.0227    0.0180    0.0243 O.3       1 <0>        -0.3453
      3 C2          0.5977   -0.5886    1.0484 C.2       1 <0>         0.4532
      4 O2          1.0876    0.0711    1.9343 O.2       1 <0>        -0.4900
      5 C3          0.6833   -2.0925    1.0934 C.3       1 <0>         0.2045
      6 H1         -0.3220   -2.5134    1.1080 H         1 <0>         0.1403
      7 C4          1.4187   -2.5904   -0.1242 C.ar      1 <0>        -0.1039
      8 C5          2.8001   -2.5527   -0.1608 C.ar      1 <0>        -0.1111
      9 C6          3.4746   -3.0094   -1.2776 C.ar      1 <0>        -0.1132
     10 C7          2.7678   -3.5042   -2.3576 C.ar      1 <0>        -0.1055
     11 C8          1.3865   -3.5428   -2.3207 C.ar      1 <0>        -0.1132
     12 C9          0.7121   -3.0901   -1.2021 C.ar      1 <0>        -0.0863
     13 N1          1.4029   -2.5048    2.3010 N.am      1 <0>        -0.7017
     14 C10         0.7413   -2.6366    3.4678 C.2       1 <0>         0.5763
     15 O3         -0.4524   -2.4134    3.5180 O.2       1 <0>        -0.5130
     16 C11         1.4678   -3.0529    4.6871 C.ar      1 <0>        -0.0668
     17 C12         2.8006   -3.4295    4.6314 C.ar      1 <0>        -0.1237
     18 C13         3.4584   -3.8188    5.8086 C.ar      1 <0>         0.1954
     19 N2          2.8399   -3.8362    6.9724 N.ar      1 <0>        -0.4462
     20 C14         1.5582   -3.4851    7.0919 C.ar      1 <0>         0.1347
     21 C15         0.8237   -3.0736    5.9516 C.ar      1 <0>        -0.0649
     22 C16        -0.5194   -2.7014    6.0889 C.ar      1 <0>        -0.1039
     23 C17        -1.1062   -2.7332    7.3186 C.ar      1 <0>        -0.1118
     24 C18        -0.3868   -3.1317    8.4433 C.ar      1 <0>        -0.0937
     25 C19         0.9163   -3.5112    8.3445 C.ar      1 <0>        -0.0962
     26 C20         4.8841   -4.2209    5.7412 C.ar      1 <0>        -0.0568
     27 C21         5.5587   -4.2047    4.5214 C.ar      1 <0>        -0.0993
     28 C22         6.8855   -4.5800    4.4648 C.ar      1 <0>        -0.1220
     29 C23         7.5459   -4.9721    5.6153 C.ar      1 <0>        -0.1040
     30 C24         6.8814   -4.9906    6.8285 C.ar      1 <0>        -0.1241
     31 C25         5.5564   -4.6110    6.8983 C.ar      1 <0>        -0.0744
     32 H2          0.9498    1.8407    0.0484 H         1 <0>         0.0612
     33 H3         -0.5944    1.8072   -0.8361 H         1 <0>         0.1058
     34 H4         -0.5874    1.7800    0.9436 H         1 <0>         0.0623
     35 H5          3.3523   -2.1660    0.6830 H         1 <0>         0.1207
     36 H6          4.5538   -2.9792   -1.3065 H         1 <0>         0.1289
     37 H7          3.2948   -3.8604   -3.2305 H         1 <0>         0.1280
     38 H8          0.8343   -3.9292   -3.1646 H         1 <0>         0.1306
     39 H9         -0.3669   -3.1237   -1.1717 H         1 <0>         0.1320
     40 H10         2.3556   -2.6830    2.2609 H         1 <0>         0.4081
     41 H11         3.3288   -3.4238    3.6894 H         1 <0>         0.1412
     42 H12        -1.0874   -2.3904    5.2246 H         1 <0>         0.1676
     43 H13        -2.1420   -2.4456    7.4226 H         1 <0>         0.1314
     44 H14        -0.8736   -3.1484    9.4073 H         1 <0>         0.1336
     45 H15         1.4600   -3.8175    9.2259 H         1 <0>         0.1396
     46 H16         5.0439   -3.8994    3.6224 H         1 <0>         0.1244
     47 H17         7.4092   -4.5679    3.5203 H         1 <0>         0.1280
     48 H18         8.5842   -5.2653    5.5662 H         1 <0>         0.1258
     49 H19         7.4019   -5.2979    7.7234 H         1 <0>         0.1278
     50 H20         5.0400   -4.6211    7.8468 H         1 <0>         0.1364
@<TRIPOS>BOND
     1    1    2 1
     2    1   32 1
     3    1   33 1
     4    1   34 1
     5    2    3 1
     6    3    4 2
     7    3    5 1
     8    5    6 1
     9    5    7 1
    10    5   13 1
    11    7   12 ar
    12    7    8 ar
    13    8    9 ar
    14    8   35 1
    15    9   10 ar
    16    9   36 1
    17   10   11 ar
    18   10   37 1
    19   11   12 ar
    20   11   38 1
    21   12   39 1
    22   13   14 am
    23   13   40 1
    24   14   15 2
    25   14   16 1
    26   16   21 ar
    27   16   17 ar
    28   17   18 ar
    29   17   41 1
    30   18   19 ar
    31   18   26 1
    32   19   20 ar
    33   20   25 ar
    34   20   21 ar
    35   21   22 ar
    36   22   23 ar
    37   22   42 1
    38   23   24 ar
    39   23   43 1
    40   24   25 ar
    41   24   44 1
    42   25   45 1
    43   26   31 ar
    44   26   27 ar
    45   27   28 ar
    46   27   46 1
    47   28   29 ar
    48   28   47 1
    49   29   30 ar
    50   29   48 1
    51   30   31 ar
    52   30   49 1
    53   31   50 1
@<TRIPOS>MOLECULE
ZINC06734987
   50    53     0     0     0
SMALL
USER_CHARGES

@<TRIPOS>ATOM
      1 C1         -0.0721    1.4005    0.0342 C.3       1 <0>         0.0332
      2 O1         -0.0285   -0.0277    0.0122 O.3       1 <0>        -0.3453
      3 C2          0.5919   -0.6343    1.0363 C.2       1 <0>         0.4532
      4 O2          1.0817    0.0254    1.9221 O.2       1 <0>        -0.4901
      5 C3          0.6775   -2.1382    1.0812 C.3       1 <0>         0.2046
      6 H1          1.2094   -2.4983    0.2006 H         1 <0>         0.1402
      7 C4         -0.7125   -2.7201    1.1014 C.ar      1 <0>        -0.1040
      8 C5         -1.4301   -2.7548    2.2824 C.ar      1 <0>        -0.1108
      9 C6         -2.7051   -3.2886    2.3009 C.ar      1 <0>        -0.1132
     10 C7         -3.2627   -3.7872    1.1384 C.ar      1 <0>        -0.1055
     11 C8         -2.5454   -3.7516   -0.0427 C.ar      1 <0>        -0.1133
     12 C9         -1.2720   -3.2140   -0.0622 C.ar      1 <0>        -0.0862
     13 N1          1.3971   -2.5505    2.2889 N.am      1 <0>        -0.7016
     14 C10         2.7438   -2.6029    2.2860 C.2       1 <0>         0.5764
     15 O3          3.3613   -2.3081    1.2815 O.2       1 <0>        -0.5130
     16 C11         3.4704   -3.0192    3.5053 C.ar      1 <0>        -0.0672
     17 C12         2.7980   -3.2431    4.6966 C.ar      1 <0>        -0.1228
     18 C13         3.5199   -3.6372    5.8339 C.ar      1 <0>         0.1955
     19 N2          4.8272   -3.8012    5.8001 N.ar      1 <0>        -0.4462
     20 C14         5.5316   -3.6014    4.6846 C.ar      1 <0>         0.1346
     21 C15         4.8770   -3.2076    3.4907 C.ar      1 <0>        -0.0652
     22 C16         5.6248   -3.0063    2.3237 C.ar      1 <0>        -0.1044
     23 C17         6.9742   -3.1964    2.3457 C.ar      1 <0>        -0.1117
     24 C18         7.6214   -3.5889    3.5155 C.ar      1 <0>        -0.0939
     25 C19         6.9276   -3.7818    4.6701 C.ar      1 <0>        -0.0961
     26 C20         2.7939   -3.8745    7.1049 C.ar      1 <0>        -0.0568
     27 C21         1.4106   -3.7119    7.1614 C.ar      1 <0>        -0.0993
     28 C22         0.7403   -3.9340    8.3470 C.ar      1 <0>        -0.1221
     29 C23         1.4385   -4.3168    9.4782 C.ar      1 <0>        -0.1039
     30 C24         2.8113   -4.4793    9.4282 C.ar      1 <0>        -0.1241
     31 C25         3.4914   -4.2664    8.2464 C.ar      1 <0>        -0.0744
     32 H2          0.9440    1.7950    0.0362 H         1 <0>         0.0623
     33 H3         -0.6003    1.7615   -0.8483 H         1 <0>         0.1058
     34 H4         -0.5932    1.7342    0.9315 H         1 <0>         0.0612
     35 H5         -0.9945   -2.3653    3.1906 H         1 <0>         0.1205
     36 H6         -3.2656   -3.3163    3.2237 H         1 <0>         0.1289
     37 H7         -4.2585   -4.2048    1.1530 H         1 <0>         0.1280
     38 H8         -2.9808   -4.1415   -0.9509 H         1 <0>         0.1306
     39 H9         -0.7130   -3.1828   -0.9857 H         1 <0>         0.1320
     40 H10         0.9043   -2.7858    3.0906 H         1 <0>         0.4081
     41 H11         1.7270   -3.1150    4.7493 H         1 <0>         0.1410
     42 H12         5.1345   -2.7023    1.4107 H         1 <0>         0.1678
     43 H13         7.5492   -3.0410    1.4448 H         1 <0>         0.1315
     44 H14         8.6916   -3.7335    3.5080 H         1 <0>         0.1336
     45 H15         7.4442   -4.0860    5.5685 H         1 <0>         0.1395
     46 H16         0.8646   -3.4123    6.2790 H         1 <0>         0.1242
     47 H17        -0.3315   -3.8083    8.3919 H         1 <0>         0.1280
     48 H18         0.9097   -4.4892   10.4040 H         1 <0>         0.1258
     49 H19         3.3513   -4.7780   10.3145 H         1 <0>         0.1278
     50 H20         4.5626   -4.3982    8.2073 H         1 <0>         0.1364
@<TRIPOS>BOND
     1    1    2 1
     2    1   32 1
     3    1   33 1
     4    1   34 1
     5    2    3 1
     6    3    4 2
     7    3    5 1
     8    5    6 1
     9    5    7 1
    10    5   13 1
    11    7   12 ar
    12    7    8 ar
    13    8    9 ar
    14    8   35 1
    15    9   10 ar
    16    9   36 1
    17   10   11 ar
    18   10   37 1
    19   11   12 ar
    20   11   38 1
    21   12   39 1
    22   13   14 am
    23   13   40 1
    24   14   15 2
    25   14   16 1
    26   16   21 ar
    27   16   17 ar
    28   17   18 ar
    29   17   41 1
    30   18   19 ar
    31   18   26 1
    32   19   20 ar
    33   20   25 ar
    34   20   21 ar
    35   21   22 ar
    36   22   23 ar
    37   22   42 1
    38   23   24 ar
    39   23   43 1
    40   24   25 ar
    41   24   44 1
    42   25   45 1
    43   26   31 ar
    44   26   27 ar
    45   27   28 ar
    46   27   46 1
    47   28   29 ar
    48   28   47 1
    49   29   30 ar
    50   29   48 1
    51   30   31 ar
    52   30   49 1
    53   31   50 1
@<TRIPOS>MOLECULE
ZINC00020920
   44    47     0     0     0
SMALL
USER_CHARGES
N-benzyl-2-phenyl-quinoline-4-carboxamide
@<TRIPOS>ATOM
      1 C1          0.0090    1.4235    0.0097 C.ar      1 <0>        -0.1088
      2 C2          1.2033    2.1196    0.0060 C.ar      1 <0>        -0.1209
      3 C3          2.4032    1.4334   -0.0101 C.ar      1 <0>        -0.0996
      4 C4          2.4088    0.0511   -0.0212 C.ar      1 <0>        -0.1154
      5 C5          1.2145   -0.6450   -0.0175 C.ar      1 <0>        -0.0997
      6 C6          0.0146    0.0412   -0.0018 C.ar      1 <0>        -0.1210
      7 C7          3.7169   -0.6969   -0.0378 C.3       1 <0>         0.1611
      8 N1          4.1299   -0.9279   -1.4243 N.am      1 <0>        -0.7164
      9 C8          5.2781   -1.5836   -1.6851 C.2       1 <0>         0.5641
     10 O1          5.9710   -1.9833   -0.7700 O.2       1 <0>        -0.5195
     11 C9          5.6950   -1.8168   -3.0850 C.ar      1 <0>        -0.0689
     12 C10         4.8663   -1.4785   -4.1434 C.ar      1 <0>        -0.1268
     13 C11         5.2966   -1.7098   -5.4591 C.ar      1 <0>         0.1950
     14 N2          6.4701   -2.2517   -5.7173 N.ar      1 <0>        -0.4484
     15 C12         7.3107   -2.6039   -4.7427 C.ar      1 <0>         0.1340
     16 C13         6.9536   -2.3994   -3.3864 C.ar      1 <0>        -0.0671
     17 C14         7.8428   -2.7736   -2.3711 C.ar      1 <0>        -0.1036
     18 C15         9.0431   -3.3308   -2.6969 C.ar      1 <0>        -0.1135
     19 C16         9.3986   -3.5338   -4.0288 C.ar      1 <0>        -0.0939
     20 C17         8.5590   -3.1826   -5.0402 C.ar      1 <0>        -0.0973
     21 C18         4.4069   -1.3406   -6.5865 C.ar      1 <0>        -0.0570
     22 C19         3.1593   -0.7716   -6.3357 C.ar      1 <0>        -0.0992
     23 C20         2.3376   -0.4251   -7.3889 C.ar      1 <0>        -0.1223
     24 C21         2.7454   -0.6515   -8.6912 C.ar      1 <0>        -0.1042
     25 C22         3.9802   -1.2207   -8.9460 C.ar      1 <0>        -0.1243
     26 C23         4.8125   -1.5664   -7.9009 C.ar      1 <0>        -0.0749
     27 H1         -0.9285    1.9597    0.0171 H         1 <0>         0.1248
     28 H2          1.1989    3.1996    0.0150 H         1 <0>         0.1256
     29 H3          3.3363    1.9773   -0.0134 H         1 <0>         0.1247
     30 H4          1.2189   -1.7249   -0.0264 H         1 <0>         0.1248
     31 H5         -0.9184   -0.5026    0.0011 H         1 <0>         0.1257
     32 H6          4.4782   -0.1090    0.4749 H         1 <0>         0.0821
     33 H7          3.5946   -1.6541    0.4692 H         1 <0>         0.0822
     34 H8          3.5769   -0.6089   -2.1545 H         1 <0>         0.4024
     35 H9          3.8985   -1.0370   -3.9571 H         1 <0>         0.1419
     36 H10         7.5787   -2.6211   -1.3351 H         1 <0>         0.1689
     37 H11         9.7274   -3.6191   -1.9126 H         1 <0>         0.1311
     38 H12        10.3555   -3.9771   -4.2619 H         1 <0>         0.1331
     39 H13         8.8495   -3.3465   -6.0674 H         1 <0>         0.1388
     40 H14         2.8379   -0.5988   -5.3192 H         1 <0>         0.1247
     41 H15         1.3725    0.0196   -7.1959 H         1 <0>         0.1279
     42 H16         2.0974   -0.3825   -9.5123 H         1 <0>         0.1257
     43 H17         4.2934   -1.3952   -9.9648 H         1 <0>         0.1277
     44 H18         5.7763   -2.0107   -8.1009 H         1 <0>         0.1362
@<TRIPOS>BOND
     1    1    6 ar
     2    1    2 ar
     3    1   27 1
     4    2    3 ar
     5    2   28 1
     6    3    4 ar
     7    3   29 1
     8    4    5 ar
     9    4    7 1
    10    5    6 ar
    11    5   30 1
    12    6   31 1
    13    7    8 1
    14    7   32 1
    15    7   33 1
    16    8    9 am
    17    8   34 1
    18    9   10 2
    19    9   11 1
    20   11   16 ar
    21   11   12 ar
    22   12   13 ar
    23   12   35 1
    24   13   14 ar
    25   13   21 1
    26   14   15 ar
    27   15   20 ar
    28   15   16 ar
    29   16   17 ar
    30   17   18 ar
    31   17   36 1
    32   18   19 ar
    33   18   37 1
    34   19   20 ar
    35   19   38 1
    36   20   39 1
    37   21   26 ar
    38   21   22 ar
    39   22   23 ar
    40   22   40 1
    41   23   24 ar
    42   23   41 1
    43   24   25 ar
    44   24   42 1
    45   25   26 ar
    46   25   43 1
    47   26   44 1
