@<TRIPOS>MOLECULE
ZINC01543566
   51    54     0     0     0
SMALL
USER_CHARGES
3-hydroxy-2-phenyl-N-(1-phenylpropyl)quinoline-4-carboxamide
@<TRIPOS>ATOM
      1 C1          1.6797    2.1494   -5.4302 C.3       1 <0>        -0.1505
      2 C2          1.6218    0.6235   -5.5259 C.3       1 <0>        -0.1293
      3 C3          0.7549    0.0738   -4.3914 C.3       1 <0>         0.1865
      4 H1         -0.2258    0.5486   -4.4207 H         1 <0>         0.1009
      5 C4          0.5970   -1.4158   -4.5564 C.ar      1 <0>        -0.0945
      6 C5          1.6099   -2.2668   -4.1555 C.ar      1 <0>        -0.1156
      7 C6          1.4632   -3.6335   -4.3029 C.ar      1 <0>        -0.1149
      8 C7          0.3074   -4.1486   -4.8594 C.ar      1 <0>        -0.1165
      9 C8         -0.7033   -3.2972   -5.2651 C.ar      1 <0>        -0.1138
     10 C9         -0.5584   -1.9308   -5.1138 C.ar      1 <0>        -0.1055
     11 N1          1.3965    0.3573   -3.1052 N.am      1 <0>        -0.7155
     12 C10         1.2025    1.5475   -2.5033 C.2       1 <0>         0.5767
     13 O1          0.4949    2.3859   -3.0277 O.2       1 <0>        -0.5050
     14 C11         1.8482    1.8329   -1.2088 C.ar      1 <0>        -0.1037
     15 C12         3.1761    2.4457   -1.1381 C.ar      1 <0>        -0.0609
     16 C13         3.8856    2.7840   -2.2951 C.ar      1 <0>        -0.1058
     17 C14         5.1200    3.3537   -2.1862 C.ar      1 <0>        -0.0985
     18 C15         5.6831    3.6018   -0.9368 C.ar      1 <0>        -0.1016
     19 C16         5.0194    3.2843    0.2085 C.ar      1 <0>        -0.0816
     20 C17         3.7435    2.6957    0.1358 C.ar      1 <0>         0.1232
     21 N2          3.0716    2.3742    1.2436 N.ar      1 <0>        -0.4401
     22 C18         1.8763    1.8287    1.2111 C.ar      1 <0>         0.1917
     23 C19         1.2190    1.5307   -0.0014 C.ar      1 <0>         0.1103
     24 O2         -0.0110    0.9628    0.0073 O.3       1 <0>        -0.4734
     25 C20         1.1990    1.5104    2.4903 C.ar      1 <0>        -0.0632
     26 C21        -0.1852    1.6380    2.6000 C.ar      1 <0>        -0.0803
     27 C22        -0.8109    1.3342    3.7918 C.ar      1 <0>        -0.1272
     28 C23        -0.0664    0.9152    4.8799 C.ar      1 <0>        -0.1020
     29 C24         1.3078    0.7926    4.7789 C.ar      1 <0>        -0.1291
     30 C25         1.9441    1.0876    3.5905 C.ar      1 <0>        -0.0750
     31 H2          0.6721    2.5571   -5.5125 H         1 <0>         0.0633
     32 H3          2.1108    2.4372   -4.4713 H         1 <0>         0.0544
     33 H4          2.2973    2.5410   -6.2385 H         1 <0>         0.0521
     34 H5          2.6294    0.2158   -5.4436 H         1 <0>         0.0664
     35 H6          1.1907    0.3357   -6.4848 H         1 <0>         0.0767
     36 H7          2.5144   -1.8642   -3.7242 H         1 <0>         0.1188
     37 H8          2.2527   -4.2986   -3.9856 H         1 <0>         0.1243
     38 H9          0.1939   -5.2161   -4.9770 H         1 <0>         0.1241
     39 H10        -1.6063   -3.6996   -5.6999 H         1 <0>         0.1258
     40 H11        -1.3481   -1.2657   -5.4307 H         1 <0>         0.1256
     41 H12         1.9609   -0.3115   -2.6869 H         1 <0>         0.4007
     42 H13         3.4584    2.5956   -3.2689 H         1 <0>         0.1306
     43 H14         5.6676    3.6152   -3.0796 H         1 <0>         0.1334
     44 H15         6.6623    4.0532   -0.8756 H         1 <0>         0.1361
     45 H16         5.4703    3.4839    1.1694 H         1 <0>         0.1417
     46 H17         0.0021   -0.0041    0.0020 H         1 <0>         0.3956
     47 H18        -0.7669    1.9694    1.7526 H         1 <0>         0.1378
     48 H19        -1.8835    1.4281    3.8766 H         1 <0>         0.1271
     49 H20        -0.5601    0.6825    5.8119 H         1 <0>         0.1247
     50 H21         1.8839    0.4650    5.6317 H         1 <0>         0.1266
     51 H22         3.0169    0.9909    3.5125 H         1 <0>         0.1288
@<TRIPOS>BOND
     1    1    2 1
     2    1   31 1
     3    1   32 1
     4    1   33 1
     5    2    3 1
     6    2   34 1
     7    2   35 1
     8    3    4 1
     9    3    5 1
    10    3   11 1
    11    5   10 ar
    12    5    6 ar
    13    6    7 ar
    14    6   36 1
    15    7    8 ar
    16    7   37 1
    17    8    9 ar
    18    8   38 1
    19    9   10 ar
    20    9   39 1
    21   10   40 1
    22   11   12 am
    23   11   41 1
    24   12   13 2
    25   12   14 1
    26   14   23 ar
    27   14   15 ar
    28   15   20 ar
    29   15   16 ar
    30   16   17 ar
    31   16   42 1
    32   17   18 ar
    33   17   43 1
    34   18   19 ar
    35   18   44 1
    36   19   20 ar
    37   19   45 1
    38   20   21 ar
    39   21   22 ar
    40   22   23 ar
    41   22   25 1
    42   23   24 1
    43   24   46 1
    44   25   30 ar
    45   25   26 ar
    46   26   27 ar
    47   26   47 1
    48   27   28 ar
    49   27   48 1
    50   28   29 ar
    51   28   49 1
    52   29   30 ar
    53   29   50 1
    54   30   51 1
@<TRIPOS>MOLECULE
ZINC71296558
   52    55     0     0     0
SMALL
USER_CHARGES

@<TRIPOS>ATOM
      1 C1          0.7045   -3.1874   -1.4727 C.3       1 <0>         0.0892
      2 N1          0.2902   -2.0466   -0.6522 N.pl3     1 <0>        -0.2489
      3 C2          0.0747   -0.7805   -1.1195 C.2       1 <0>        -0.0277
      4 C3         -0.2982   -0.0188   -0.0286 C.2       1 <0>        -0.1848
      5 C4         -0.2835   -0.9040    1.0647 C.2       1 <0>         0.0614
      6 N2          0.0700   -2.0886    0.6123 N.2       1 <0>        -0.2582
      7 C5         -0.6122   -0.5650    2.4721 C.ar      1 <0>         0.0000
      8 C6         -0.9835    0.7347    2.8094 C.ar      1 <0>        -0.0895
      9 C7         -1.2886    1.0449    4.1190 C.ar      1 <0>        -0.1072
     10 C8         -1.2257    0.0672    5.0970 C.ar      1 <0>        -0.0319
     11 C9         -0.8573   -1.2257    4.7667 C.ar      1 <0>        -0.1082
     12 C10        -0.5559   -1.5469    3.4588 C.ar      1 <0>        -0.0831
     13 Cl1        -1.6095    0.4637    6.7429 Cl        1 <0>        -0.0677
     14 C11         0.2135   -0.3191   -2.5104 C.2       1 <0>         0.5909
     15 O1          0.1756   -1.1212   -3.4238 O.2       1 <0>        -0.5374
     16 N3          0.3825    0.9923   -2.7716 N.am      1 <0>        -0.5875
     17 C12         0.5757    1.9541   -1.6774 C.3       1 <0>         0.0600
     18 C13         1.8774    2.7258   -1.9275 C.3       1 <0>         0.1353
     19 N4          1.8722    3.2194   -3.3117 N.pl3     1 <0>        -0.6654
     20 C14         1.6789    2.2575   -4.4059 C.3       1 <0>         0.1356
     21 C15         0.3828    1.4851   -4.1562 C.3       1 <0>         0.0999
     22 C16         2.0477    4.5812   -3.5831 C.ar      1 <0>         0.1345
     23 C17         3.3216    5.0912   -3.7871 C.ar      1 <0>        -0.0856
     24 C18         3.4923    6.4363   -4.0554 C.ar      1 <0>        -0.1510
     25 C19         2.3959    7.2761   -4.1211 C.ar      1 <0>        -0.0818
     26 C20         1.1232    6.7748   -3.9188 C.ar      1 <0>        -0.2059
     27 C21         0.9431    5.4272   -3.6547 C.ar      1 <0>         0.1202
     28 O2         -0.3087    4.9318   -3.4606 O.3       1 <0>        -0.3052
     29 C22        -1.3936    5.8576   -3.5489 C.3       1 <0>         0.0248
     30 H1         -0.1728   -3.6403   -1.9346 H         1 <0>         0.0916
     31 H2          1.3890   -2.8466   -2.2495 H         1 <0>         0.1009
     32 H3          1.2054   -3.9239   -0.8444 H         1 <0>         0.0989
     33 H4         -0.5477    1.0319   -0.0176 H         1 <0>         0.1757
     34 H5         -1.0321    1.4983    2.0472 H         1 <0>         0.1353
     35 H6         -1.5765    2.0522    4.3815 H         1 <0>         0.1382
     36 H7         -0.8093   -1.9851    5.5331 H         1 <0>         0.1370
     37 H8         -0.2730   -2.5569    3.2013 H         1 <0>         0.1388
     38 H9         -0.2626    2.6501   -1.6498 H         1 <0>         0.0807
     39 H10         0.6430    1.4208   -0.7292 H         1 <0>         0.1149
     40 H11         1.9412    3.5683   -1.2389 H         1 <0>         0.0820
     41 H12         2.7299    2.0631   -1.7786 H         1 <0>         0.0553
     42 H13         1.6116    2.7908   -5.3542 H         1 <0>         0.0818
     43 H14         2.5173    1.5615   -4.4335 H         1 <0>         0.0557
     44 H15         0.3228    0.6421   -4.8446 H         1 <0>         0.0981
     45 H16        -0.4696    2.1469   -4.3092 H         1 <0>         0.0774
     46 H17         4.1797    4.4374   -3.7360 H         1 <0>         0.1283
     47 H18         4.4845    6.8324   -4.2137 H         1 <0>         0.1248
     48 H19         2.5340    8.3266   -4.3306 H         1 <0>         0.1248
     49 H20         0.2689    7.4336   -3.9708 H         1 <0>         0.1277
     50 H21        -1.2677    6.6376   -2.7980 H         1 <0>         0.0545
     51 H22        -1.4074    6.3076   -4.5415 H         1 <0>         0.0541
     52 H23        -2.3334    5.3337   -3.3744 H         1 <0>         0.0987
@<TRIPOS>BOND
     1    1    2 1
     2    1   30 1
     3    1   31 1
     4    1   32 1
     5    2    6 1
     6    2    3 1
     7    3    4 2
     8    3   14 1
     9    4    5 1
    10    4   33 1
    11    5    6 2
    12    5    7 1
    13    7   12 ar
    14    7    8 ar
    15    8    9 ar
    16    8   34 1
    17    9   10 ar
    18    9   35 1
    19   10   11 ar
    20   10   13 1
    21   11   12 ar
    22   11   36 1
    23   12   37 1
    24   14   15 2
    25   14   16 am
    26   16   21 1
    27   16   17 1
    28   17   18 1
    29   17   38 1
    30   17   39 1
    31   18   19 1
    32   18   40 1
    33   18   41 1
    34   19   20 1
    35   19   22 1
    36   20   21 1
    37   20   42 1
    38   20   43 1
    39   21   44 1
    40   21   45 1
    41   22   27 ar
    42   22   23 ar
    43   23   24 ar
    44   23   46 1
    45   24   25 ar
    46   24   47 1
    47   25   26 ar
    48   25   48 1
    49   26   27 ar
    50   26   49 1
    51   27   28 1
    52   28   29 1
    53   29   50 1
    54   29   51 1
    55   29   52 1
@<TRIPOS>MOLECULE
ZINC14049704
   49    52     0     0     0
SMALL
USER_CHARGES

@<TRIPOS>ATOM
      1 C1          1.3541    1.7301    0.6487 C.3       1 <0>         0.0253
      2 O1          1.1131    0.3321    0.4768 O.3       1 <0>        -0.3052
      3 C2         -0.1803   -0.0562    0.3149 C.ar      1 <0>         0.1196
      4 C3         -1.1938    0.8878    0.3157 C.ar      1 <0>        -0.2065
      5 C4         -2.5084    0.4915    0.1515 C.ar      1 <0>        -0.0828
      6 C5         -2.8156   -0.8462   -0.0144 C.ar      1 <0>        -0.1518
      7 C6         -1.8099   -1.7945   -0.0169 C.ar      1 <0>        -0.0862
      8 C7         -0.4883   -1.4039    0.1421 C.ar      1 <0>         0.1367
      9 N1          0.5323   -2.3616    0.1341 N.pl3     1 <0>        -0.6659
     10 C8          0.9575   -3.0119    1.3816 C.3       1 <0>         0.1360
     11 C9          0.8502   -4.5314    1.2033 C.3       1 <0>         0.0962
     12 N2          1.5156   -4.9051   -0.0527 N.am      1 <0>        -0.5949
     13 C10         1.0904   -4.2547   -1.3002 C.3       1 <0>         0.0708
     14 C11         1.1938   -2.7393   -1.1227 C.3       1 <0>         0.1361
     15 C12         2.4984   -5.8273   -0.0603 C.2       1 <0>         0.6029
     16 O2          2.9287   -6.2657    0.9887 O.2       1 <0>        -0.5300
     17 C13         3.0527   -6.3055   -1.3436 C.2       1 <0>        -0.0035
     18 C14         4.1695   -7.1533   -1.5083 C.2       1 <0>        -0.1513
     19 C15         4.3041   -7.3200   -2.8582 C.2       1 <0>         0.0582
     20 N3          3.3071   -6.5988   -3.4460 N.pl3     1 <0>        -0.3782
     21 H1          3.1574   -6.5326   -4.4021 H         1 <0>         0.4465
     22 N4          2.5925   -6.0240   -2.5466 N.2       1 <0>        -0.2453
     23 C16         5.3343   -8.1274   -3.5492 C.ar      1 <0>        -0.0191
     24 C17         6.2937   -8.8192   -2.8098 C.ar      1 <0>        -0.0807
     25 C18         7.2517   -9.5702   -3.4592 C.ar      1 <0>        -0.1013
     26 C19         7.2619   -9.6379   -4.8421 C.ar      1 <0>        -0.0297
     27 C20         6.3123   -8.9528   -5.5810 C.ar      1 <0>        -0.1021
     28 C21         5.3459   -8.2038   -4.9420 C.ar      1 <0>        -0.1025
     29 Cl1         8.4703  -10.5848   -5.6526 Cl        1 <0>        -0.0613
     30 H2          2.4239    1.9026    0.7668 H         1 <0>         0.0988
     31 H3          0.9931    2.2713   -0.2259 H         1 <0>         0.0538
     32 H4          0.8291    2.0828    1.5365 H         1 <0>         0.0542
     33 H5         -0.9573    1.9336    0.4450 H         1 <0>         0.1274
     34 H6         -3.2974    1.2290    0.1531 H         1 <0>         0.1244
     35 H7         -3.8438   -1.1511   -0.1420 H         1 <0>         0.1244
     36 H8         -2.0527   -2.8389   -0.1462 H         1 <0>         0.1276
     37 H9          1.9902   -2.7414    1.6016 H         1 <0>         0.0570
     38 H10         0.3111   -2.6929    2.1992 H         1 <0>         0.0800
     39 H11         1.3380   -5.0331    2.0390 H         1 <0>         0.0995
     40 H12        -0.1996   -4.8216    1.1616 H         1 <0>         0.0713
     41 H13         1.7368   -4.5737   -2.1178 H         1 <0>         0.1303
     42 H14         0.0576   -4.5252   -1.5201 H         1 <0>         0.0682
     43 H15         0.7034   -2.2403   -1.9586 H         1 <0>         0.0781
     44 H16         2.2438   -2.4489   -1.0851 H         1 <0>         0.0531
     45 H17         4.7870   -7.5800   -0.7317 H         1 <0>         0.1687
     46 H18         6.2868   -8.7668   -1.7311 H         1 <0>         0.1424
     47 H19         7.9952  -10.1060   -2.8878 H         1 <0>         0.1422
     48 H20         6.3252   -9.0088   -6.6595 H         1 <0>         0.1398
     49 H21         4.6027   -7.6737   -5.5192 H         1 <0>         0.1287
@<TRIPOS>BOND
     1    1    2 1
     2    1   30 1
     3    1   31 1
     4    1   32 1
     5    2    3 1
     6    3    8 ar
     7    3    4 ar
     8    4    5 ar
     9    4   33 1
    10    5    6 ar
    11    5   34 1
    12    6    7 ar
    13    6   35 1
    14    7    8 ar
    15    7   36 1
    16    8    9 1
    17    9   14 1
    18    9   10 1
    19   10   11 1
    20   10   37 1
    21   10   38 1
    22   11   12 1
    23   11   39 1
    24   11   40 1
    25   12   13 1
    26   12   15 am
    27   13   14 1
    28   13   41 1
    29   13   42 1
    30   14   43 1
    31   14   44 1
    32   15   16 2
    33   15   17 1
    34   17   22 2
    35   17   18 1
    36   18   19 2
    37   18   45 1
    38   19   20 1
    39   19   23 1
    40   20   21 1
    41   20   22 1
    42   23   28 ar
    43   23   24 ar
    44   24   25 ar
    45   24   46 1
    46   25   26 ar
    47   25   47 1
    48   26   27 ar
    49   26   29 1
    50   27   28 ar
    51   27   48 1
    52   28   49 1
@<TRIPOS>MOLECULE
ZINC03935475
   84    88     0     0     0
SMALL
USER_CHARGES
N-[1-[3-[1-benzoyl-3-(3,4-dichlorophenyl)-3-piperidyl]propyl]-4-phenyl-4-piperidyl]-N-methyl-acetamide
@<TRIPOS>ATOM
      1 C1         -1.7697   -6.2079   -2.9380 C.3       1 <0>        -0.1803
      2 C2         -1.5505   -6.7090   -1.5338 C.2       1 <0>         0.5117
      3 O1         -0.9517   -7.7470   -1.3470 O.2       1 <0>        -0.5158
      4 N1         -2.0200   -6.0038   -0.4856 N.am      1 <0>        -0.6196
      5 C3         -2.8344   -4.8075   -0.7134 C.3       1 <0>         0.0598
      6 C4         -1.7158   -6.4334    0.8815 C.3       1 <0>         0.2218
      7 C5         -2.0581   -5.3066    1.8601 C.3       1 <0>        -0.1522
      8 C6         -1.1856   -4.0876    1.5522 C.3       1 <0>        -0.0143
      9 C7          0.5945   -5.5017    0.7132 C.3       1 <0>        -0.0015
     10 C8         -0.2249   -6.7629    0.9960 C.3       1 <0>        -0.1633
     11 C9          1.0949   -3.2759    1.5231 C.3       1 <0>        -0.0069
     12 C10         2.5309   -3.6438    1.9020 C.3       1 <0>        -0.1650
     13 C11         3.4307   -2.4167    1.7428 C.3       1 <0>        -0.1087
     14 C12         4.8879   -2.8187    1.9788 C.3       1 <0>        -0.0228
     15 C13         5.0117   -3.5224    3.3322 C.3       1 <0>        -0.1128
     16 C14         4.5262   -2.5868    4.4417 C.3       1 <0>        -0.1363
     17 C15         5.4048   -1.3321    4.4670 C.3       1 <0>         0.0868
     18 N2          5.4068   -0.7292    3.1271 N.am      1 <0>        -0.6076
     19 C16         5.7706   -1.5667    1.9761 C.3       1 <0>         0.1233
     20 C17         5.0816    0.5677    2.9572 C.2       1 <0>         0.5642
     21 O2          5.0056    1.0335    1.8371 O.2       1 <0>        -0.5271
     22 C18         4.8172    1.4237    4.1333 C.ar      1 <0>        -0.1380
     23 C19         3.8267    2.4055    4.0772 C.ar      1 <0>        -0.0658
     24 C20         3.5814    3.1974    5.1799 C.ar      1 <0>        -0.1235
     25 C21         4.3223    3.0274    6.3360 C.ar      1 <0>        -0.0910
     26 C22         5.3095    2.0599    6.3964 C.ar      1 <0>        -0.1242
     27 C23         5.5609    1.2575    5.3027 C.ar      1 <0>        -0.0943
     28 C24         5.3358   -3.7522    0.8837 C.ar      1 <0>        -0.0612
     29 C25         6.5760   -4.3590    0.9573 C.ar      1 <0>        -0.0938
     30 C26         6.9904   -5.2105   -0.0493 C.ar      1 <0>        -0.0875
     31 C27         6.1595   -5.4650   -1.1258 C.ar      1 <0>        -0.0308
     32 C28         4.9176   -4.8575   -1.1994 C.ar      1 <0>        -0.0305
     33 C29         4.5067   -4.0010   -0.1937 C.ar      1 <0>        -0.1108
     34 Cl1         3.8765   -5.1707   -2.5528 Cl        1 <0>        -0.0437
     35 Cl2         6.6766   -6.5401   -2.3869 Cl        1 <0>        -0.0352
     36 C30        -2.5292   -7.6567    1.2177 C.ar      1 <0>        -0.1097
     37 C31        -2.7954   -7.9685    2.5378 C.ar      1 <0>        -0.1154
     38 C32        -3.5455   -9.0879    2.8460 C.ar      1 <0>        -0.1181
     39 C33        -4.0210   -9.9012    1.8343 C.ar      1 <0>        -0.1054
     40 C34        -3.7501   -9.5926    0.5144 C.ar      1 <0>        -0.1172
     41 C35        -3.0043   -8.4702    0.2060 C.ar      1 <0>        -0.0910
     42 H1         -1.3055   -5.2281   -3.0508 H         1 <0>         0.0906
     43 H2         -1.3229   -6.9053   -3.6466 H         1 <0>         0.0999
     44 H3         -2.8392   -6.1277   -3.1324 H         1 <0>         0.0950
     45 H4         -2.1822   -3.9477   -0.8667 H         1 <0>         0.0612
     46 H5         -3.4560   -4.9540   -1.5967 H         1 <0>         0.0865
     47 H6         -3.4709   -4.6308    0.1536 H         1 <0>         0.0853
     48 H7         -1.8694   -5.6408    2.8803 H         1 <0>         0.1081
     49 H8         -3.1091   -5.0381    1.7536 H         1 <0>         0.1241
     50 H9         -1.4168   -3.2883    2.2563 H         1 <0>         0.1344
     51 H10        -1.3849   -3.7455    0.5366 H         1 <0>         0.1377
     52 H11         0.3868   -5.1530   -0.2985 H         1 <0>         0.1261
     53 H12         1.6562   -5.7295    0.8079 H         1 <0>         0.1313
     54 H13        -0.0074   -7.1200    2.0026 H         1 <0>         0.0973
     55 H14         0.0339   -7.5350    0.2715 H         1 <0>         0.1491
     56 H15         0.7400   -2.4781    2.1755 H         1 <0>         0.1314
     57 H16         1.0678   -2.9374    0.4874 H         1 <0>         0.1297
     58 H17         2.8857   -4.4416    1.2496 H         1 <0>         0.0949
     59 H18         2.5580   -3.9823    2.9377 H         1 <0>         0.0941
     60 H19         3.1412   -1.6572    2.4691 H         1 <0>         0.0867
     61 H20         3.3231   -2.0155    0.7351 H         1 <0>         0.0808
     62 H21         4.4036   -4.4270    3.3281 H         1 <0>         0.0715
     63 H22         6.0541   -3.7866    3.5101 H         1 <0>         0.0770
     64 H23         4.5927   -3.0969    5.4027 H         1 <0>         0.0839
     65 H24         3.4913   -2.3024    4.2516 H         1 <0>         0.0685
     66 H25         6.4225   -1.6043    4.7467 H         1 <0>         0.0764
     67 H26         5.0037   -0.6196    5.1877 H         1 <0>         0.1053
     68 H27         6.8182   -1.8580    2.0527 H         1 <0>         0.0779
     69 H28         5.6109   -1.0089    1.0533 H         1 <0>         0.1008
     70 H29         3.2507    2.5422    3.1738 H         1 <0>         0.1304
     71 H30         2.8123    3.9545    5.1393 H         1 <0>         0.1320
     72 H31         4.1289    3.6525    7.1952 H         1 <0>         0.1306
     73 H32         5.8842    1.9322    7.3018 H         1 <0>         0.1322
     74 H33         6.3313    0.5021    5.3513 H         1 <0>         0.1330
     75 H34         7.2231   -4.1639    1.7997 H         1 <0>         0.1412
     76 H35         7.9611   -5.6806    0.0066 H         1 <0>         0.1481
     77 H36         3.5380   -3.5270   -0.2504 H         1 <0>         0.1410
     78 H37        -2.4204   -7.3353    3.3284 H         1 <0>         0.1191
     79 H38        -3.7569   -9.3292    3.8772 H         1 <0>         0.1268
     80 H39        -4.6040  -10.7779    2.0752 H         1 <0>         0.1269
     81 H40        -4.1213  -10.2282   -0.2759 H         1 <0>         0.1253
     82 H41        -2.7926   -8.2291   -0.8252 H         1 <0>         0.1286
     83 N3          0.2360   -4.4645    1.7037 N.4       1 <0>        -0.3924
     84 H42         0.3820   -4.8409    2.6477 H         1 <0>         0.4252
@<TRIPOS>BOND
     1    1    2 1
     2    1   42 1
     3    1   43 1
     4    1   44 1
     5    2    3 2
     6    2    4 am
     7    4    5 1
     8    4    6 1
     9    5   45 1
    10    5   46 1
    11    5   47 1
    12    6   10 1
    13    6    7 1
    14    6   36 1
    15    7    8 1
    16    7   48 1
    17    7   49 1
    18    8   50 1
    19    8   51 1
    20    8   83 1
    21    9   10 1
    22    9   52 1
    23    9   53 1
    24    9   83 1
    25   10   54 1
    26   10   55 1
    27   11   12 1
    28   11   56 1
    29   11   57 1
    30   11   83 1
    31   12   13 1
    32   12   58 1
    33   12   59 1
    34   13   14 1
    35   13   60 1
    36   13   61 1
    37   14   19 1
    38   14   15 1
    39   14   28 1
    40   15   16 1
    41   15   62 1
    42   15   63 1
    43   16   17 1
    44   16   64 1
    45   16   65 1
    46   17   18 1
    47   17   66 1
    48   17   67 1
    49   18   19 1
    50   18   20 am
    51   19   68 1
    52   19   69 1
    53   20   21 2
    54   20   22 1
    55   22   27 ar
    56   22   23 ar
    57   23   24 ar
    58   23   70 1
    59   24   25 ar
    60   24   71 1
    61   25   26 ar
    62   25   72 1
    63   26   27 ar
    64   26   73 1
    65   27   74 1
    66   28   33 ar
    67   28   29 ar
    68   29   30 ar
    69   29   75 1
    70   30   31 ar
    71   30   76 1
    72   31   32 ar
    73   31   35 1
    74   32   33 ar
    75   32   34 1
    76   33   77 1
    77   36   41 ar
    78   36   37 ar
    79   37   38 ar
    80   37   78 1
    81   38   39 ar
    82   38   79 1
    83   39   40 ar
    84   39   80 1
    85   40   41 ar
    86   40   81 1
    87   41   82 1
    88   83   84 1
