@<TRIPOS>MOLECULE
ZINC06092461
   45    47     0     0     0
SMALL
USER_CHARGES
3-[1-(1-piperidyl)cyclohexyl]phenol
@<TRIPOS>ATOM
      1 C1          1.1504    1.7752    0.0622 C.ar      1 <0>        -0.0815
      2 C2          1.1385    3.1566   -0.0008 C.ar      1 <0>        -0.1768
      3 C3         -0.0559    3.8452    0.1007 C.ar      1 <0>        -0.0929
      4 C4         -1.2411    3.1545    0.2658 C.ar      1 <0>        -0.1219
      5 C5         -1.2325    1.7686    0.3231 C.ar      1 <0>         0.1336
      6 C6         -0.0318    1.0800    0.2268 C.ar      1 <0>        -0.1283
      7 O1         -2.3976    1.0866    0.4794 O.3       1 <0>        -0.4925
      8 C7         -0.0652    5.3506    0.0316 C.3       1 <0>         0.1193
      9 C8         -0.9064    5.9088    1.1812 C.3       1 <0>        -0.1365
     10 C9         -0.9158    7.4371    1.1111 C.3       1 <0>        -0.1337
     11 C10        -1.5166    7.8827   -0.2236 C.3       1 <0>        -0.1324
     12 C11        -0.6754    7.3246   -1.3733 C.3       1 <0>        -0.1364
     13 C12        -0.6660    5.7962   -1.3031 C.3       1 <0>        -0.1360
     14 C13         2.0692    5.5858   -1.0864 C.3       1 <0>        -0.0362
     15 C14         3.4451    6.2493   -0.9928 C.3       1 <0>        -0.1451
     16 C15         4.1924    5.6941    0.2228 C.3       1 <0>        -0.1400
     17 C16         3.3585    5.9437    1.4825 C.3       1 <0>        -0.1446
     18 C17         1.9851    5.2891    1.3172 C.3       1 <0>        -0.0405
     19 H1          2.0847    1.2394   -0.0176 H         1 <0>         0.1406
     20 H2          2.0639    3.6983   -0.1291 H         1 <0>         0.1454
     21 H3         -2.1739    3.6930    0.3454 H         1 <0>         0.1399
     22 H4         -0.0220    0.0012    0.2760 H         1 <0>         0.1422
     23 H5         -2.6410    0.9301    1.4021 H         1 <0>         0.4029
     24 H6         -1.9270    5.5350    1.0994 H         1 <0>         0.1121
     25 H7         -0.4784    5.5913    2.1321 H         1 <0>         0.0902
     26 H8          0.1048    7.8109    1.1929 H         1 <0>         0.0559
     27 H9         -1.5151    7.8348    1.9301 H         1 <0>         0.0959
     28 H10        -1.5234    8.9715   -0.2736 H         1 <0>         0.0824
     29 H11        -2.5373    7.5089   -0.3054 H         1 <0>         0.0811
     30 H12         0.3452    7.6983   -1.2915 H         1 <0>         0.0576
     31 H13        -1.1035    7.6420   -2.3241 H         1 <0>         0.0948
     32 H14        -0.0667    5.3986   -2.1222 H         1 <0>         0.0924
     33 H15        -1.6866    5.4224   -1.3849 H         1 <0>         0.1114
     34 H16         2.1924    4.5098   -1.2092 H         1 <0>         0.1453
     35 H17         1.5288    5.9894   -1.9427 H         1 <0>         0.1343
     36 H18         3.3228    7.3269   -0.8838 H         1 <0>         0.0866
     37 H19         4.0139    6.0367   -1.8980 H         1 <0>         0.1133
     38 H20         5.1557    6.1952    0.3184 H         1 <0>         0.0961
     39 H21         4.3501    4.6229    0.0967 H         1 <0>         0.0813
     40 H22         3.2349    7.0165    1.6304 H         1 <0>         0.0852
     41 H23         3.8655    5.5127    2.3459 H         1 <0>         0.1125
     42 H24         1.3838    5.4771    2.2066 H         1 <0>         0.1276
     43 H25         2.1089    4.2145    1.1831 H         1 <0>         0.1549
     44 N1          1.3079    5.8840    0.1455 N.4       1 <0>        -0.3834
     45 H26         1.2608    6.9022    0.2696 H         1 <0>         0.4240
@<TRIPOS>BOND
     1    1    6 ar
     2    1    2 ar
     3    1   19 1
     4    2    3 ar
     5    2   20 1
     6    3    4 ar
     7    3    8 1
     8    4    5 ar
     9    4   21 1
    10    5    6 ar
    11    5    7 1
    12    6   22 1
    13    7   23 1
    14    8   13 1
    15    8    9 1
    16    8   44 1
    17    9   10 1
    18    9   24 1
    19    9   25 1
    20   10   11 1
    21   10   26 1
    22   10   27 1
    23   11   12 1
    24   11   28 1
    25   11   29 1
    26   12   13 1
    27   12   30 1
    28   12   31 1
    29   13   32 1
    30   13   33 1
    31   14   15 1
    32   14   34 1
    33   14   35 1
    34   14   44 1
    35   15   16 1
    36   15   36 1
    37   15   37 1
    38   16   17 1
    39   16   38 1
    40   16   39 1
    41   17   18 1
    42   17   40 1
    43   17   41 1
    44   18   42 1
    45   18   43 1
    46   18   44 1
    47   44   45 1
@<TRIPOS>MOLECULE
ZINC00132781
   21    22     0     0     0
SMALL
USER_CHARGES
5-bromo-7-(trifluoromethyl)-1,4-dihydroquinoxaline-2,3-dione
@<TRIPOS>ATOM
      1 C1         -2.4847    3.6997    0.0434 C.ar      1 <0>        -0.0517
      2 C2         -3.6598    2.9760    0.0502 C.ar      1 <0>        -0.1680
      3 C3         -3.6267    1.5921    0.0429 C.ar      1 <0>        -0.0241
      4 C4         -2.4175    0.9255    0.0287 C.ar      1 <0>        -0.1080
      5 C5         -1.2267    1.6446    0.0168 C.ar      1 <0>         0.1819
      6 C6         -1.2608    3.0401    0.0290 C.ar      1 <0>         0.1270
      7 N1         -0.0801    3.7774    0.0222 N.am      1 <0>        -0.6349
      8 H1         -0.1155    4.7768    0.0279 H         1 <0>         0.4358
      9 C7          1.1114    3.1460    0.0079 C.2       1 <0>         0.5118
     10 O1          2.1442    3.7851    0.0010 O.2       1 <0>        -0.4525
     11 C8          1.1480    1.6550   -0.0000 C.2       1 <0>         0.5119
     12 O2          2.2110    1.0675   -0.0133 O.2       1 <0>        -0.4472
     13 N2         -0.0111    0.9658    0.0074 N.am      1 <0>        -0.6395
     14 H2          0.0025   -0.0341    0.0061 H         1 <0>         0.4328
     15 Br1        -2.3802   -0.9651    0.0188 Br        1 <0>        -0.0019
     16 C9         -4.9841    3.6951    0.0663 C.3       1 <0>         0.5157
     17 F1         -5.4060    3.9247   -1.2477 F         1 <0>        -0.1696
     18 F2         -5.9329    2.9102    0.7303 F         1 <0>        -0.1702
     19 F3         -4.8428    4.9179    0.7311 F         1 <0>        -0.1716
     20 H3         -2.5158    4.7793    0.0495 H         1 <0>         0.1615
     21 H4         -4.5500    1.0317    0.0480 H         1 <0>         0.1606
@<TRIPOS>BOND
     1    1    6 ar
     2    1    2 ar
     3    1   20 1
     4    2    3 ar
     5    2   16 1
     6    3    4 ar
     7    3   21 1
     8    4    5 ar
     9    4   15 1
    10    5   13 1
    11    5    6 ar
    12    6    7 1
    13    7    8 1
    14    7    9 am
    15    9   10 2
    16    9   11 1
    17   11   12 2
    18   11   13 am
    19   13   14 1
    20   16   17 1
    21   16   18 1
    22   16   19 1
@<TRIPOS>MOLECULE
ZINC02391832
   36    38     0     0     0
SMALL
USER_CHARGES
(1S)-1-(4-methoxyphenyl)-1,2,3,4-tetrahydroisoquinoline
@<TRIPOS>ATOM
      1 C1          4.8857    5.3914    4.9232 C.3       1 <0>         0.0212
      2 O1          5.2082    5.3756    3.5312 O.3       1 <0>        -0.3066
      3 C2          4.2416    4.9444    2.6788 C.ar      1 <0>         0.1619
      4 C3          4.4867    4.9031    1.3139 C.ar      1 <0>        -0.1413
      5 C4          3.5023    4.4648    0.4495 C.ar      1 <0>        -0.0475
      6 C5          2.2734    4.0679    0.9435 C.ar      1 <0>        -0.1853
      7 C6          2.0247    4.1134    2.3028 C.ar      1 <0>        -0.0708
      8 C7          3.0079    4.5451    3.1720 C.ar      1 <0>        -0.1983
      9 C8          1.2012    3.5907   -0.0018 C.3       1 <0>         0.1461
     10 H1          1.4268    3.9431   -1.0083 H         1 <0>         0.1496
     11 C9          1.1693    2.0848    0.0021 C.ar      1 <0>        -0.1251
     12 C10         2.3750    1.3987   -0.0072 C.ar      1 <0>        -0.0829
     13 C11         2.3927    0.0186   -0.0126 C.ar      1 <0>        -0.1072
     14 C12         1.2026   -0.6852   -0.0089 C.ar      1 <0>        -0.0909
     15 C13         0.0021   -0.0041    0.0020 C.ar      1 <0>        -0.1071
     16 C14        -0.0167    1.3825    0.0096 C.ar      1 <0>        -0.0905
     17 C15        -1.3508    2.0834    0.0324 C.3       1 <0>        -0.1077
     18 C16        -1.1789    3.5458   -0.3803 C.3       1 <0>         0.0007
     19 H2          4.0326    6.0488    5.0911 H         1 <0>         0.0616
     20 H3          4.6362    4.3819    5.2499 H         1 <0>         0.0619
     21 H4          5.7422    5.7556    5.4905 H         1 <0>         0.1115
     22 H5          5.4464    5.2131    0.9276 H         1 <0>         0.1460
     23 H6          3.6926    4.4325   -0.6131 H         1 <0>         0.1417
     24 H7          1.0624    3.8074    2.6858 H         1 <0>         0.1208
     25 H8          2.8148    4.5760    4.2341 H         1 <0>         0.1409
     26 H9          3.3051    1.9475   -0.0100 H         1 <0>         0.1328
     27 H10         3.3342   -0.5104   -0.0193 H         1 <0>         0.1361
     28 H11         1.2123   -1.7651   -0.0141 H         1 <0>         0.1362
     29 H12        -0.9275   -0.5539    0.0050 H         1 <0>         0.1346
     30 H13        -2.0310    1.5894   -0.6614 H         1 <0>         0.1236
     31 H14        -1.7666    2.0375    1.0389 H         1 <0>         0.1028
     32 H15        -2.1056    4.0895   -0.1962 H         1 <0>         0.1413
     33 H16        -0.9230    3.6005   -1.4384 H         1 <0>         0.1350
     34 N1         -0.0944    4.1364    0.4259 N.4       1 <0>        -0.5132
     35 H17        -0.0928    5.1554    0.2999 H         1 <0>         0.4393
     36 H18        -0.2470    3.9143    1.4166 H         1 <0>         0.4289
@<TRIPOS>BOND
     1    1    2 1
     2    1   19 1
     3    1   20 1
     4    1   21 1
     5    2    3 1
     6    3    8 ar
     7    3    4 ar
     8    4    5 ar
     9    4   22 1
    10    5    6 ar
    11    5   23 1
    12    6    7 ar
    13    6    9 1
    14    7    8 ar
    15    7   24 1
    16    8   25 1
    17    9   10 1
    18    9   11 1
    19    9   34 1
    20   11   16 ar
    21   11   12 ar
    22   12   13 ar
    23   12   26 1
    24   13   14 ar
    25   13   27 1
    26   14   15 ar
    27   14   28 1
    28   15   16 ar
    29   15   29 1
    30   16   17 1
    31   17   18 1
    32   17   30 1
    33   17   31 1
    34   18   32 1
    35   18   33 1
    36   18   34 1
    37   34   35 1
    38   34   36 1
@<TRIPOS>MOLECULE
ZINC11597198
   36    38     0     0     0
SMALL
USER_CHARGES
(1R)-1-(4-methoxyphenyl)-1,2,3,4-tetrahydroisoquinoline
@<TRIPOS>ATOM
      1 C1          5.8235    1.6717   -4.9922 C.3       1 <0>         0.0212
      2 O1          5.9888    1.3684   -3.6056 O.3       1 <0>        -0.3066
      3 C2          5.1425    1.9793   -2.7353 C.ar      1 <0>         0.1621
      4 C3          5.2467    1.7305   -1.3744 C.ar      1 <0>        -0.1416
      5 C4          4.3849    2.3524   -0.4918 C.ar      1 <0>        -0.0472
      6 C5          3.4189    3.2218   -0.9637 C.ar      1 <0>        -0.1856
      7 C6          3.3093    3.4670   -2.3200 C.ar      1 <0>        -0.0703
      8 C7          4.1726    2.8523   -3.2062 C.ar      1 <0>        -0.1987
      9 C8          2.4798    3.8984    0.0013 C.3       1 <0>         0.1462
     10 H1          2.9101    3.8702    1.0024 H         1 <0>         0.1493
     11 C9          1.1610    3.1707    0.0057 C.ar      1 <0>        -0.1251
     12 C10         1.1723    1.7834    0.0004 C.ar      1 <0>        -0.0829
     13 C11        -0.0126    1.0758    0.0080 C.ar      1 <0>        -0.1072
     14 C12        -1.2184    1.7522    0.0173 C.ar      1 <0>        -0.0909
     15 C13        -1.2314    3.1324    0.0281 C.ar      1 <0>        -0.1071
     16 C14        -0.0414    3.8444    0.0178 C.ar      1 <0>        -0.0906
     17 C15        -0.1046    5.3502    0.0176 C.3       1 <0>        -0.1074
     18 C16         1.2517    5.9295    0.4208 C.3       1 <0>         0.0006
     19 H2          4.8206    1.3861   -5.3096 H         1 <0>         0.0619
     20 H3          5.9636    2.7412   -5.1494 H         1 <0>         0.0616
     21 H4          6.5603    1.1193   -5.5753 H         1 <0>         0.1115
     22 H5          6.0007    1.0510   -1.0054 H         1 <0>         0.1460
     23 H6          4.4656    2.1591    0.5677 H         1 <0>         0.1417
     24 H7          2.5508    4.1428   -2.6866 H         1 <0>         0.1210
     25 H8          4.0893    3.0473   -4.2652 H         1 <0>         0.1408
     26 H9          2.1137    1.2542   -0.0099 H         1 <0>         0.1328
     27 H10         0.0021   -0.0041    0.0020 H         1 <0>         0.1361
     28 H11        -2.1478    1.2020    0.0203 H         1 <0>         0.1362
     29 H12        -2.1733    3.6607    0.0403 H         1 <0>         0.1346
     30 H13        -0.8643    5.6807    0.7260 H         1 <0>         0.1237
     31 H14        -0.3649    5.6999   -0.9814 H         1 <0>         0.1027
     32 H15         1.4403    5.7216    1.4740 H         1 <0>         0.1347
     33 H16         1.2575    7.0066    0.2535 H         1 <0>         0.1414
     34 N1          2.2966    5.2982   -0.4066 N.4       1 <0>        -0.5133
     35 H17         2.0155    5.3312   -1.3936 H         1 <0>         0.4289
     36 H18         3.1803    5.8066   -0.2852 H         1 <0>         0.4393
@<TRIPOS>BOND
     1    1    2 1
     2    1   19 1
     3    1   20 1
     4    1   21 1
     5    2    3 1
     6    3    8 ar
     7    3    4 ar
     8    4    5 ar
     9    4   22 1
    10    5    6 ar
    11    5   23 1
    12    6    7 ar
    13    6    9 1
    14    7    8 ar
    15    7   24 1
    16    8   25 1
    17    9   10 1
    18    9   11 1
    19    9   34 1
    20   11   16 ar
    21   11   12 ar
    22   12   13 ar
    23   12   26 1
    24   13   14 ar
    25   13   27 1
    26   14   15 ar
    27   14   28 1
    28   15   16 ar
    29   15   29 1
    30   16   17 1
    31   17   18 1
    32   17   30 1
    33   17   31 1
    34   18   32 1
    35   18   33 1
    36   18   34 1
    37   34   35 1
    38   34   36 1
@<TRIPOS>MOLECULE
ZINC19793818
   28    30     0     0     0
SMALL
USER_CHARGES
(1S)-1-(2-thienyl)-1,2,3,4-tetrahydroisoquinoline
@<TRIPOS>ATOM
      1 C1         -4.1020    1.3304   -3.9793 C.ar      1 <0>        -0.1128
      2 C2         -2.8040    0.9249   -3.7295 C.ar      1 <0>        -0.1223
      3 C3         -2.3323    0.8897   -2.4330 C.ar      1 <0>        -0.1009
      4 C4         -3.1532    1.2598   -1.3775 C.ar      1 <0>        -0.1160
      5 C5         -4.4461    1.6668   -1.6274 C.ar      1 <0>        -0.0743
      6 C6         -4.9197    1.6998   -2.9304 C.ar      1 <0>        -0.1194
      7 C7         -5.3732    2.0842   -0.5149 C.3       1 <0>        -0.1227
      8 C8         -4.8314    1.5925    0.8277 C.3       1 <0>         0.0446
      9 N1         -3.4198    1.9940    0.9367 N.3       1 <0>        -0.6549
     10 C9         -2.5943    1.2015    0.0200 C.3       1 <0>         0.2031
     11 H1         -2.6093    0.1621    0.3799 H         1 <0>         0.1124
     12 C10        -1.1898    1.7477    0.0171 C.2       1 <0>        -0.1254
     13 C11        -0.0126    1.0758    0.0080 C.2       1 <0>        -0.1561
     14 C12         1.1688    1.7934    0.0005 C.2       1 <0>        -0.1548
     15 C13         1.1153    3.1478    0.0084 C.2       1 <0>        -0.1750
     16 S1         -0.6445    3.4477    0.0268 S.3       1 <0>         0.0496
     17 H2         -4.4752    1.3577   -4.9924 H         1 <0>         0.1237
     18 H3         -2.1604    0.6366   -4.5474 H         1 <0>         0.1233
     19 H4         -1.3184    0.5724   -2.2389 H         1 <0>         0.1231
     20 H5         -5.9336    2.0166   -3.1255 H         1 <0>         0.1230
     21 H6         -5.4508    3.1813   -0.4945 H         1 <0>         0.0816
     22 H7         -6.3692    1.6493   -0.6849 H         1 <0>         0.0850
     23 H8         -5.4139    2.0425    1.6451 H         1 <0>         0.0912
     24 H9         -4.9151    0.4968    0.8778 H         1 <0>         0.0793
     25 H10        -3.3207    3.0591    0.6802 H         1 <0>         0.3423
     26 H11         0.0021   -0.0041    0.0020 H         1 <0>         0.1326
     27 H12         2.1203    1.2826   -0.0117 H         1 <0>         0.1343
     28 H13         1.9267    3.8606    0.0041 H         1 <0>         0.1857
@<TRIPOS>BOND
     1    1    6 ar
     2    1    2 ar
     3    1   17 1
     4    2    3 ar
     5    2   18 1
     6    3    4 ar
     7    3   19 1
     8    4   10 1
     9    4    5 ar
    10    5    6 ar
    11    5    7 1
    12    6   20 1
    13    7    8 1
    14    7   21 1
    15    7   22 1
    16    8    9 1
    17    8   23 1
    18    8   24 1
    19    9   10 1
    20    9   25 1
    21   10   11 1
    22   10   12 1
    23   12   16 1
    24   12   13 2
    25   13   14 1
    26   13   26 1
    27   14   15 2
    28   14   27 1
    29   15   16 1
    30   15   28 1
@<TRIPOS>MOLECULE
ZINC19793819
   28    30     0     0     0
SMALL
USER_CHARGES
(1R)-1-(2-thienyl)-1,2,3,4-tetrahydroisoquinoline
@<TRIPOS>ATOM
      1 C1          1.5935   -2.3178   -2.5081 C.ar      1 <0>        -0.1135
      2 C2          2.5227   -1.4925   -3.1141 C.ar      1 <0>        -0.1239
      3 C3          2.6379   -0.1768   -2.7137 C.ar      1 <0>        -0.1051
      4 C4          1.8260    0.3236   -1.7062 C.ar      1 <0>        -0.0794
      5 C5          0.9019   -0.5004   -1.1005 C.ar      1 <0>        -0.0631
      6 C6          0.7863   -1.8221   -1.5042 C.ar      1 <0>        -0.1230
      7 C7          0.0021   -0.0041    0.0020 C.3       1 <0>        -0.0818
      8 C8         -0.0187    1.5247    0.0104 C.3       1 <0>         0.0469
      9 N1          1.3703    2.0109   -0.0002 N.3       1 <0>        -0.6648
     10 C9          1.9828    1.7684   -1.3102 C.3       1 <0>         0.2049
     11 H1          1.4639    2.4086   -2.0388 H         1 <0>         0.0719
     12 C10         3.4489    2.1109   -1.2457 C.2       1 <0>        -0.1313
     13 C11         4.2168    2.7522   -2.1602 C.2       1 <0>        -0.1605
     14 C12         5.5551    2.9601   -1.8842 C.2       1 <0>        -0.1588
     15 C13         6.0603    2.5164   -0.7072 C.2       1 <0>        -0.1869
     16 S1          4.6234    1.7842    0.0586 S.3       1 <0>         0.0862
     17 H2          1.4998   -3.3478   -2.8192 H         1 <0>         0.1232
     18 H3          3.1568   -1.8766   -3.8995 H         1 <0>         0.1229
     19 H4          3.3642    0.4670   -3.1875 H         1 <0>         0.1218
     20 H5          0.0611   -2.4670   -1.0303 H         1 <0>         0.1230
     21 H6         -1.0190   -0.3794   -0.1612 H         1 <0>         0.0805
     22 H7          0.3754   -0.3666    0.9711 H         1 <0>         0.0864
     23 H8         -0.5507    1.8890   -0.8808 H         1 <0>         0.0393
     24 H9         -0.5336    1.8795    0.9154 H         1 <0>         0.0877
     25 H10         1.3823    3.0909    0.2080 H         1 <0>         0.3520
     26 H11         3.7891    3.0960   -3.0904 H         1 <0>         0.1298
     27 H12         6.1890    3.4681   -2.5960 H         1 <0>         0.1316
     28 H13         7.0692    2.5903   -0.3291 H         1 <0>         0.1838
@<TRIPOS>BOND
     1    1    6 ar
     2    1    2 ar
     3    1   17 1
     4    2    3 ar
     5    2   18 1
     6    3    4 ar
     7    3   19 1
     8    4   10 1
     9    4    5 ar
    10    5    6 ar
    11    5    7 1
    12    6   20 1
    13    7    8 1
    14    7   21 1
    15    7   22 1
    16    8    9 1
    17    8   23 1
    18    8   24 1
    19    9   10 1
    20    9   25 1
    21   10   11 1
    22   10   12 1
    23   12   16 1
    24   12   13 2
    25   13   14 1
    26   13   26 1
    27   14   15 2
    28   14   27 1
    29   15   16 1
    30   15   28 1
@<TRIPOS>MOLECULE
ZINC22028288
   32    32     0     0     0
SMALL
USER_CHARGES

@<TRIPOS>ATOM
      1 C1         -0.0178    1.4646    0.0101 C.3       1 <0>        -0.0021
      2 C2          1.4177    1.9945   -0.0008 C.3       1 <0>         0.0195
      3 N1          2.1091    1.5033   -1.2012 N.3       1 <0>        -0.5387
      4 C3          2.1152    0.0340   -1.2356 C.3       1 <0>         0.0516
      5 C4          0.6738   -0.4797   -1.2145 C.3       1 <0>        -0.0413
      6 H1          0.1431   -0.1087   -2.0913 H         1 <0>         0.1387
      7 N2          0.0021   -0.0041    0.0020 N.4       1 <0>        -0.4837
      8 C5          0.6774   -1.9866   -1.2299 C.2       1 <0>         0.4937
      9 O1          0.3358   -2.6072   -0.2376 O.co2     1 <0>        -0.6772
     10 O2          1.0218   -2.5852   -2.2347 O.co2     1 <0>        -0.6364
     11 C6          3.4755    2.0374   -1.2772 C.3       1 <0>         0.0599
     12 C7          3.4202    3.5524   -1.4833 C.3       1 <0>        -0.0877
     13 C8          4.8433    4.1086   -1.5626 C.3       1 <0>        -0.7296
     14 P1          4.7774    5.9138   -1.8081 P.3       1 <0>         2.2588
     15 O3          3.9209    6.2332   -3.0537 O.2       1 <0>        -1.0956
     16 O4          4.1468    6.5799   -0.5649 O.3       1 <0>        -1.0987
     17 O5          6.2688    6.4810   -2.0225 O.3       1 <0>        -0.9059
     18 H2         -0.5281    1.8161    0.9069 H         1 <0>         0.1295
     19 H3         -0.5451    1.8257   -0.8730 H         1 <0>         0.1332
     20 H4          1.4031    3.0843   -0.0098 H         1 <0>         0.1256
     21 H5          1.9412    1.6448    0.8891 H         1 <0>         0.0535
     22 H6          2.6093   -0.3064   -2.1455 H         1 <0>         0.1178
     23 H7          2.6501   -0.3479   -0.3661 H         1 <0>         0.0497
     24 H8          0.5002   -0.3379    0.8135 H         1 <0>         0.4219
     25 H9          4.0043    1.8158   -0.3502 H         1 <0>         0.0346
     26 H10         3.9999    1.5758   -2.1139 H         1 <0>         0.0787
     27 H11         2.8913    3.7739   -2.4103 H         1 <0>         0.0847
     28 H12         2.8957    4.0140   -0.6466 H         1 <0>         0.0686
     29 H13         5.3721    3.8871   -0.6355 H         1 <0>         0.0680
     30 H14         5.3677    3.6470   -2.3992 H         1 <0>         0.0706
     31 H15         6.3100    7.4374   -2.1595 H         1 <0>         0.4126
     32 H16        -0.9444   -0.3532    0.0217 H         1 <0>         0.4258
@<TRIPOS>BOND
     1    1    7 1
     2    1    2 1
     3    1   18 1
     4    1   19 1
     5    2    3 1
     6    2   20 1
     7    2   21 1
     8    3    4 1
     9    3   11 1
    10    4    5 1
    11    4   22 1
    12    4   23 1
    13    5    6 1
    14    5    7 1
    15    5    8 1
    16    7   24 1
    17    7   32 1
    18    8    9 2
    19    8   10 1
    20   11   12 1
    21   11   25 1
    22   11   26 1
    23   12   13 1
    24   12   27 1
    25   12   28 1
    26   13   14 1
    27   13   29 1
    28   13   30 1
    29   14   15 2
    30   14   16 1
    31   14   17 1
    32   17   31 1
@<TRIPOS>MOLECULE
ZINC22028288
   31    31     0     0     0
SMALL
USER_CHARGES

@<TRIPOS>ATOM
      1 C1         -0.0178    1.4646    0.0101 C.3       1 <0>        -0.0013
      2 C2          1.4177    1.9945   -0.0008 C.3       1 <0>         0.0193
      3 N1          2.1091    1.5033   -1.2012 N.3       1 <0>        -0.5378
      4 C3          2.1152    0.0340   -1.2356 C.3       1 <0>         0.0504
      5 C4          0.6738   -0.4797   -1.2145 C.3       1 <0>        -0.0405
      6 H1          0.1431   -0.1087   -2.0913 H         1 <0>         0.1377
      7 N2          0.0021   -0.0041    0.0020 N.4       1 <0>        -0.4825
      8 C5          0.6774   -1.9866   -1.2299 C.2       1 <0>         0.4958
      9 O1          0.3358   -2.6072   -0.2376 O.co2     1 <0>        -0.6821
     10 O2          1.0218   -2.5852   -2.2347 O.co2     1 <0>        -0.6392
     11 C6          3.4755    2.0374   -1.2772 C.3       1 <0>         0.0593
     12 C7          3.4202    3.5524   -1.4833 C.3       1 <0>        -0.0800
     13 C8          4.8433    4.1086   -1.5626 C.3       1 <0>        -0.7273
     14 P1          4.7774    5.9138   -1.8081 P.3       1 <0>         2.2121
     15 O3          3.9089    6.2377   -3.0711 O.2       1 <0>        -1.1806
     16 O4          4.1380    6.5893   -0.5474 O.3       1 <0>        -1.1837
     17 O5          6.2287    6.4657   -2.0167 O.3       1 <0>        -1.1866
     18 H2         -0.5281    1.8161    0.9069 H         1 <0>         0.1273
     19 H3         -0.5451    1.8257   -0.8730 H         1 <0>         0.1326
     20 H4          1.4031    3.0843   -0.0098 H         1 <0>         0.1290
     21 H5          1.9412    1.6448    0.8891 H         1 <0>         0.0510
     22 H6          2.6093   -0.3064   -2.1455 H         1 <0>         0.1156
     23 H7          2.6501   -0.3479   -0.3661 H         1 <0>         0.0460
     24 H8          0.5002   -0.3379    0.8135 H         1 <0>         0.4207
     25 H9          4.0043    1.8158   -0.3502 H         1 <0>         0.0297
     26 H10         3.9999    1.5758   -2.1139 H         1 <0>         0.0741
     27 H11         2.8913    3.7739   -2.4103 H         1 <0>         0.0737
     28 H12         2.8957    4.0140   -0.6466 H         1 <0>         0.0572
     29 H13         5.3721    3.8871   -0.6355 H         1 <0>         0.0419
     30 H14         5.3677    3.6470   -2.3992 H         1 <0>         0.0461
     31 H15        -0.9444   -0.3532    0.0217 H         1 <0>         0.4219
@<TRIPOS>BOND
     1    1    7 1
     2    1    2 1
     3    1   18 1
     4    1   19 1
     5    2    3 1
     6    2   20 1
     7    2   21 1
     8    3    4 1
     9    3   11 1
    10    4    5 1
    11    4   22 1
    12    4   23 1
    13    5    6 1
    14    5    7 1
    15    5    8 1
    16    7   24 1
    17    7   31 1
    18    8    9 2
    19    8   10 1
    20   11   12 1
    21   11   25 1
    22   11   26 1
    23   12   13 1
    24   12   27 1
    25   12   28 1
    26   13   14 1
    27   13   29 1
    28   13   30 1
    29   14   15 2
    30   14   16 1
    31   14   17 1
@<TRIPOS>MOLECULE
ZINC22033348
   32    32     0     0     0
SMALL
USER_CHARGES

@<TRIPOS>ATOM
      1 C1         -0.0178    1.4646    0.0101 C.3       1 <0>        -0.0020
      2 C2          1.4177    1.9945   -0.0008 C.3       1 <0>         0.0198
      3 N1          2.1318    1.4905    1.1809 N.3       1 <0>        -0.5385
      4 C3          2.1384    0.0209    1.1994 C.3       1 <0>         0.0499
      5 C4          0.6969   -0.4926    1.2004 C.3       1 <0>        -0.0402
      6 H1          0.1830   -0.1311    2.0910 H         1 <0>         0.1380
      7 N2          0.0021   -0.0041    0.0020 N.4       1 <0>        -0.4854
      8 C5          0.7006   -1.9996    1.1995 C.2       1 <0>         0.4915
      9 O1          0.7030   -2.6099    2.2550 O.co2     1 <0>        -0.6375
     10 O2          0.7011   -2.6086    0.1432 O.co2     1 <0>        -0.6728
     11 C6          3.4995    2.0239    1.2366 C.3       1 <0>         0.0598
     12 C7          3.4483    3.5366    1.4599 C.3       1 <0>        -0.0878
     13 C8          4.8727    4.0921    1.5180 C.3       1 <0>        -0.7296
     14 P1          4.8117    5.8945    1.7841 P.3       1 <0>         2.2588
     15 O3          3.9400    6.5476    0.6884 O.2       1 <0>        -1.0979
     16 O4          4.2010    6.1898    3.1722 O.3       1 <0>        -1.0962
     17 O5          6.3027    6.4980    1.7143 O.3       1 <0>        -0.9060
     18 H2         -0.5281    1.8161    0.9069 H         1 <0>         0.1335
     19 H3         -0.5451    1.8257   -0.8730 H         1 <0>         0.1295
     20 H4          1.9241    1.6544   -0.9041 H         1 <0>         0.0538
     21 H5          1.4034    3.0842    0.0203 H         1 <0>         0.1261
     22 H6          2.6566   -0.3516    0.3158 H         1 <0>         0.0531
     23 H7          2.6498   -0.3292    2.0960 H         1 <0>         0.1143
     24 H8         -0.9446   -0.3530   -0.0034 H         1 <0>         0.4239
     25 H9          4.0397    1.5534    2.0581 H         1 <0>         0.0785
     26 H10         4.0105    1.8123    0.2973 H         1 <0>         0.0348
     27 H11         2.9080    4.0071    0.6384 H         1 <0>         0.0717
     28 H12         2.9373    3.7481    2.3992 H         1 <0>         0.0818
     29 H13         5.4130    3.6216    2.3395 H         1 <0>         0.0721
     30 H14         5.3837    3.8805    0.5787 H         1 <0>         0.0665
     31 H15         6.3463    7.4548    1.8476 H         1 <0>         0.4126
     32 H16         0.4846   -0.3292   -0.8223 H         1 <0>         0.4236
@<TRIPOS>BOND
     1    1    7 1
     2    1    2 1
     3    1   18 1
     4    1   19 1
     5    2    3 1
     6    2   20 1
     7    2   21 1
     8    3    4 1
     9    3   11 1
    10    4    5 1
    11    4   22 1
    12    4   23 1
    13    5    6 1
    14    5    7 1
    15    5    8 1
    16    7   24 1
    17    7   32 1
    18    8    9 2
    19    8   10 1
    20   11   12 1
    21   11   25 1
    22   11   26 1
    23   12   13 1
    24   12   27 1
    25   12   28 1
    26   13   14 1
    27   13   29 1
    28   13   30 1
    29   14   15 2
    30   14   16 1
    31   14   17 1
    32   17   31 1
@<TRIPOS>MOLECULE
ZINC22033348
   31    31     0     0     0
SMALL
USER_CHARGES

@<TRIPOS>ATOM
      1 C1         -0.0178    1.4646    0.0101 C.3       1 <0>        -0.0011
      2 C2          1.4177    1.9945   -0.0008 C.3       1 <0>         0.0195
      3 N1          2.1318    1.4905    1.1809 N.3       1 <0>        -0.5376
      4 C3          2.1384    0.0209    1.1994 C.3       1 <0>         0.0487
      5 C4          0.6969   -0.4926    1.2004 C.3       1 <0>        -0.0393
      6 H1          0.1830   -0.1311    2.0910 H         1 <0>         0.1370
      7 N2          0.0021   -0.0041    0.0020 N.4       1 <0>        -0.4842
      8 C5          0.7006   -1.9996    1.1995 C.2       1 <0>         0.4938
      9 O1          0.7030   -2.6099    2.2550 O.co2     1 <0>        -0.6413
     10 O2          0.7011   -2.6086    0.1432 O.co2     1 <0>        -0.6768
     11 C6          3.4995    2.0239    1.2366 C.3       1 <0>         0.0592
     12 C7          3.4483    3.5366    1.4599 C.3       1 <0>        -0.0801
     13 C8          4.8727    4.0921    1.5180 C.3       1 <0>        -0.7273
     14 P1          4.8117    5.8945    1.7841 P.3       1 <0>         2.2124
     15 O3          3.9277    6.5568    0.6730 O.2       1 <0>        -1.1828
     16 O4          4.1924    6.1939    3.1916 O.3       1 <0>        -1.1815
     17 O5          6.2625    6.4818    1.7162 O.3       1 <0>        -1.1868
     18 H2         -0.5281    1.8161    0.9069 H         1 <0>         0.1328
     19 H3         -0.5451    1.8257   -0.8730 H         1 <0>         0.1274
     20 H4          1.9241    1.6544   -0.9041 H         1 <0>         0.0515
     21 H5          1.4034    3.0842    0.0203 H         1 <0>         0.1298
     22 H6          2.6566   -0.3516    0.3158 H         1 <0>         0.0496
     23 H7          2.6498   -0.3292    2.0960 H         1 <0>         0.1120
     24 H8         -0.9446   -0.3530   -0.0034 H         1 <0>         0.4198
     25 H9          4.0397    1.5534    2.0581 H         1 <0>         0.0736
     26 H10         4.0105    1.8123    0.2973 H         1 <0>         0.0302
     27 H11         2.9080    4.0071    0.6384 H         1 <0>         0.0611
     28 H12         2.9373    3.7481    2.3992 H         1 <0>         0.0701
     29 H13         5.4130    3.6216    2.3395 H         1 <0>         0.0460
     30 H14         5.3837    3.8805    0.5787 H         1 <0>         0.0421
     31 H15         0.4846   -0.3292   -0.8223 H         1 <0>         0.4224
@<TRIPOS>BOND
     1    1    7 1
     2    1    2 1
     3    1   18 1
     4    1   19 1
     5    2    3 1
     6    2   20 1
     7    2   21 1
     8    3    4 1
     9    3   11 1
    10    4    5 1
    11    4   22 1
    12    4   23 1
    13    5    6 1
    14    5    7 1
    15    5    8 1
    16    7   24 1
    17    7   31 1
    18    8    9 2
    19    8   10 1
    20   11   12 1
    21   11   25 1
    22   11   26 1
    23   12   13 1
    24   12   27 1
    25   12   28 1
    26   13   14 1
    27   13   29 1
    28   13   30 1
    29   14   15 2
    30   14   16 1
    31   14   17 1
@<TRIPOS>MOLECULE
ZINC25757829
   32    35     0     0     0
SMALL
USER_CHARGES

@<TRIPOS>ATOM
      1 C1         -0.0187    1.5258    0.0104 C.3       1 <0>        -0.1252
      2 C2          0.0021   -0.0041    0.0020 C.3       1 <0>         0.1700
      3 C3          0.7167   -0.5895   -1.2034 C.ar      1 <0>        -0.1069
      4 C4          0.8979    0.1802   -2.3343 C.ar      1 <0>        -0.1048
      5 C5          1.5405   -0.3573   -3.4350 C.ar      1 <0>        -0.1212
      6 C6          1.9955   -1.6623   -3.3949 C.ar      1 <0>        -0.1154
      7 C7          1.8143   -2.4276   -2.2597 C.ar      1 <0>        -0.1172
      8 C8          1.1755   -1.8892   -1.1532 C.ar      1 <0>        -0.0768
      9 C9          1.0113   -2.7345    0.0833 C.3       1 <0>        -0.1060
     10 C10         0.1766   -2.0033    1.1369 C.3       1 <0>         0.1001
     11 H1          0.2513   -2.4929    2.1079 H         1 <0>         0.1081
     12 N1          0.6774   -0.5970    1.1980 N.3       1 <0>        -0.6342
     13 C11        -1.2530   -1.8806    0.6988 C.ar      1 <0>        -0.0952
     14 C12        -1.3755   -0.6242    0.0348 C.ar      1 <0>        -0.0809
     15 C13        -2.5771   -0.1782   -0.4723 C.ar      1 <0>        -0.0931
     16 C14        -3.6801   -1.0063   -0.2906 C.ar      1 <0>        -0.1176
     17 C15        -3.5744   -2.2154    0.3646 C.ar      1 <0>        -0.1209
     18 C16        -2.3295   -2.7288    0.8705 C.ar      1 <0>        -0.0946
     19 H2          1.0039    1.9031    0.0027 H         1 <0>         0.0650
     20 H3         -0.5459    1.8868   -0.8726 H         1 <0>         0.0670
     21 H4         -0.5289    1.8773    0.9072 H         1 <0>         0.0732
     22 H5          0.5390    1.1985   -2.3601 H         1 <0>         0.1272
     23 H6          1.6860    0.2402   -4.3228 H         1 <0>         0.1244
     24 H7          2.4941   -2.0848   -4.2547 H         1 <0>         0.1231
     25 H8          2.1706   -3.4468   -2.2339 H         1 <0>         0.1229
     26 H9          0.5143   -3.6672   -0.1835 H         1 <0>         0.0854
     27 H10         1.9944   -2.9588    0.4973 H         1 <0>         0.0869
     28 H11         1.6807   -0.5800    1.0922 H         1 <0>         0.3441
     29 H12        -2.6584    0.7686   -0.9856 H         1 <0>         0.1300
     30 H13        -4.6417   -0.6950   -0.6711 H         1 <0>         0.1239
     31 H14        -4.4549   -2.8304    0.4782 H         1 <0>         0.1194
     32 H15        -2.2281   -3.6740    1.3830 H         1 <0>         0.1394
@<TRIPOS>BOND
     1    1    2 1
     2    1   19 1
     3    1   20 1
     4    1   21 1
     5    2   12 1
     6    2   14 1
     7    2    3 1
     8    3    8 ar
     9    3    4 ar
    10    4    5 ar
    11    4   22 1
    12    5    6 ar
    13    5   23 1
    14    6    7 ar
    15    6   24 1
    16    7    8 ar
    17    7   25 1
    18    8    9 1
    19    9   10 1
    20    9   26 1
    21    9   27 1
    22   10   11 1
    23   10   12 1
    24   10   13 1
    25   12   28 1
    26   13   18 ar
    27   13   14 ar
    28   14   15 ar
    29   15   16 ar
    30   15   29 1
    31   16   17 ar
    32   16   30 1
    33   17   18 ar
    34   17   31 1
    35   18   32 1
@<TRIPOS>MOLECULE
ZINC13829431
   43    45     0     0     0
SMALL
USER_CHARGES

@<TRIPOS>ATOM
      1 C1          0.1416    1.6069    0.1038 C.3       1 <0>        -0.1611
      2 C2          0.1684    0.0784    0.0434 C.3       1 <0>         0.1179
      3 H1         -0.8507   -0.3001   -0.0359 H         1 <0>         0.0467
      4 C3          0.9630   -0.3629   -1.1587 C.ar      1 <0>        -0.0630
      5 C4          2.3443   -0.3805   -1.1055 C.ar      1 <0>        -0.0963
      6 C5          3.0735   -0.7856   -2.2076 C.ar      1 <0>        -0.0906
      7 C6          2.4209   -1.1735   -3.3639 C.ar      1 <0>        -0.0957
      8 C7          1.0388   -1.1557   -3.4167 C.ar      1 <0>        -0.0914
      9 C8          0.3103   -0.7555   -2.3123 C.ar      1 <0>        -0.1117
     10 Br1         3.4179   -1.7272   -4.8723 Br        1 <0>        -0.0608
     11 N1          0.7931   -0.4491    1.2638 N.3       1 <0>        -0.6424
     12 C9         -0.1906   -0.5721    2.3478 C.3       1 <0>        -0.4605
     13 H2         -1.1954   -0.4562    1.9415 H         1 <0>         0.0812
     14 C10        -0.0622   -1.9289    2.9911 C.ar      1 <0>        -0.0782
     15 C11         1.1792   -2.5190    3.1145 C.ar      1 <0>        -0.1020
     16 C12         1.3033   -3.7655    3.7041 C.ar      1 <0>        -0.1037
     17 C13         0.1865   -4.4271    4.1728 C.ar      1 <0>        -0.1257
     18 C14        -1.0693   -3.8425    4.0545 C.ar      1 <0>         0.1113
     19 C15        -1.1938   -2.5829    3.4650 C.ar      1 <0>         0.1386
     20 N2         -2.4418   -1.9788    3.3420 N.am      1 <0>        -0.6186
     21 C16        -3.5446   -2.6058    3.7993 C.2       1 <0>         0.5081
     22 C17        -3.4109   -3.9485    4.4350 C.2       1 <0>         0.5122
     23 N3         -2.1911   -4.5160    4.5296 N.am      1 <0>        -0.6301
     24 O1         -4.3919   -4.5295    4.8535 O.2       1 <0>        -0.4801
     25 O2         -4.6357   -2.0824    3.6950 O.2       1 <0>        -0.4744
     26 P1          0.1138    0.7227    3.5945 P.3       1 <0>         2.2764
     27 O3         -0.1406    2.1115    2.9673 O.2       1 <0>        -1.0799
     28 O4         -0.8382    0.5170    4.7938 O.3       1 <0>        -1.0911
     29 O5          1.6400    0.6333    4.0994 O.3       1 <0>        -0.8935
     30 H3          1.1607    1.9854    0.1831 H         1 <0>         0.0612
     31 H4         -0.3219    1.9983   -0.8017 H         1 <0>         0.0427
     32 H5         -0.4331    1.9261    0.9733 H         1 <0>         0.1200
     33 H6          2.8537   -0.0773   -0.2028 H         1 <0>         0.1439
     34 H7          4.1526   -0.7990   -2.1660 H         1 <0>         0.1322
     35 H8          0.5288   -1.4585   -4.3193 H         1 <0>         0.1297
     36 H9         -0.7689   -0.7455   -2.3521 H         1 <0>         0.1281
     37 H10         1.2467   -1.3325    1.0851 H         1 <0>         0.3344
     38 H11         2.0571   -2.0067    2.7494 H         1 <0>         0.1427
     39 H12         2.2777   -4.2219    3.7973 H         1 <0>         0.1353
     40 H13         0.2881   -5.3996    4.6314 H         1 <0>         0.1365
     41 H14         1.8733    1.2943    4.7656 H         1 <0>         0.4093
     42 H15        -2.0938   -5.3892    4.9406 H         1 <0>         0.4192
     43 H16        -2.5184   -1.1053    2.9271 H         1 <0>         0.4234
@<TRIPOS>BOND
     1    1    2 1
     2    1   30 1
     3    1   31 1
     4    1   32 1
     5    2    3 1
     6    2    4 1
     7    2   11 1
     8    4    9 ar
     9    4    5 ar
    10    5    6 ar
    11    5   33 1
    12    6    7 ar
    13    6   34 1
    14    7    8 ar
    15    7   10 1
    16    8    9 ar
    17    8   35 1
    18    9   36 1
    19   11   12 1
    20   11   37 1
    21   12   13 1
    22   12   14 1
    23   12   26 1
    24   14   19 ar
    25   14   15 ar
    26   15   16 ar
    27   15   38 1
    28   16   17 ar
    29   16   39 1
    30   17   18 ar
    31   17   40 1
    32   18   23 1
    33   18   19 ar
    34   19   20 1
    35   20   21 am
    36   20   43 1
    37   21   22 1
    38   21   25 2
    39   22   23 am
    40   22   24 2
    41   23   42 1
    42   26   27 2
    43   26   28 1
    44   26   29 1
    45   29   41 1
@<TRIPOS>MOLECULE
ZINC13829431
   43    45     0     0     0
SMALL
USER_CHARGES

@<TRIPOS>ATOM
      1 C1         -0.5197   -2.5153   -0.9883 C.3       1 <0>        -0.1705
      2 C2         -1.3740   -1.9647    0.1553 C.3       1 <0>         0.0549
      3 H1         -2.4018   -2.3087    0.0393 H         1 <0>         0.1440
      4 C3         -0.8264   -2.4532    1.4716 C.ar      1 <0>        -0.1101
      5 C4          0.2671   -1.8271    2.0401 C.ar      1 <0>        -0.1108
      6 C5          0.7695   -2.2744    3.2476 C.ar      1 <0>        -0.0758
      7 C6          0.1778   -3.3488    3.8871 C.ar      1 <0>        -0.0787
      8 C7         -0.9164   -3.9750    3.3179 C.ar      1 <0>        -0.0842
      9 C8         -1.4213   -3.5236    2.1130 C.ar      1 <0>        -0.0856
     10 Br1         0.8650   -3.9617    5.5388 Br        1 <0>        -0.0385
     11 N1         -1.3430   -0.4963    0.1267 N.4       1 <0>        -0.4666
     12 C9         -2.0000   -0.0164   -1.0964 C.3       1 <0>        -0.5004
     13 H2         -1.5524   -0.5017   -1.9637 H         1 <0>         0.1322
     14 C10        -3.4695   -0.3455   -1.0394 C.ar      1 <0>        -0.0672
     15 C11        -4.0492   -0.7079    0.1595 C.ar      1 <0>        -0.1239
     16 C12        -5.3986   -1.0117    0.2180 C.ar      1 <0>        -0.0975
     17 C13        -6.1741   -0.9544   -0.9222 C.ar      1 <0>        -0.1216
     18 C14        -5.6016   -0.5902   -2.1356 C.ar      1 <0>         0.1208
     19 C15        -4.2418   -0.2783   -2.1934 C.ar      1 <0>         0.1541
     20 N2         -3.6512    0.0935   -3.3979 N.am      1 <0>        -0.6016
     21 C16        -4.3928    0.1617   -4.5220 C.2       1 <0>         0.5095
     22 C17        -5.8467   -0.1652   -4.4589 C.2       1 <0>         0.5113
     23 N3         -6.3902   -0.5347   -3.2813 N.am      1 <0>        -0.6323
     24 O1         -6.5320   -0.1094   -5.4602 O.2       1 <0>        -0.4790
     25 O2         -3.8822    0.4864   -5.5751 O.2       1 <0>        -0.4652
     26 P1         -1.7864    1.7889   -1.2326 P.3       1 <0>         2.0731
     27 O3         -2.5804    2.4970   -0.0826 O.2       1 <0>        -1.1067
     28 O4         -0.2654    2.1453   -1.1132 O.3       1 <0>        -1.1174
     29 O5         -2.3296    2.2759   -2.6190 O.3       1 <0>        -1.0939
     30 H3         -0.4643   -3.6011   -0.9102 H         1 <0>         0.0970
     31 H4         -0.9703   -2.2422   -1.9425 H         1 <0>         0.0832
     32 H5          0.4841   -2.0949   -0.9269 H         1 <0>         0.0833
     33 H6          0.7292   -0.9884    1.5405 H         1 <0>         0.1389
     34 H7          1.6240   -1.7854    3.6915 H         1 <0>         0.1447
     35 H8         -1.3787   -4.8139    3.8169 H         1 <0>         0.1413
     36 H9         -2.2781   -4.0099    1.6705 H         1 <0>         0.1410
     37 H10        -1.8283   -0.1339    0.9336 H         1 <0>         0.4257
     38 H11        -3.4478   -0.7549    1.0553 H         1 <0>         0.1174
     39 H12        -5.8460   -1.2949    1.1593 H         1 <0>         0.1366
     40 H13        -7.2263   -1.1930   -0.8719 H         1 <0>         0.1393
     41 H14        -7.3346   -0.7500   -3.2301 H         1 <0>         0.4186
     42 H15        -2.7048    0.3042   -3.4285 H         1 <0>         0.4303
     43 H16        -0.3850   -0.1799    0.1402 H         1 <0>         0.4307
@<TRIPOS>BOND
     1    1    2 1
     2    1   30 1
     3    1   31 1
     4    1   32 1
     5    2    3 1
     6    2    4 1
     7    2   11 1
     8    4    9 ar
     9    4    5 ar
    10    5    6 ar
    11    5   33 1
    12    6    7 ar
    13    6   34 1
    14    7    8 ar
    15    7   10 1
    16    8    9 ar
    17    8   35 1
    18    9   36 1
    19   11   12 1
    20   11   37 1
    21   11   43 1
    22   12   13 1
    23   12   14 1
    24   12   26 1
    25   14   19 ar
    26   14   15 ar
    27   15   16 ar
    28   15   38 1
    29   16   17 ar
    30   16   39 1
    31   17   18 ar
    32   17   40 1
    33   18   23 1
    34   18   19 ar
    35   19   20 1
    36   20   21 am
    37   20   42 1
    38   21   22 1
    39   21   25 2
    40   22   23 am
    41   22   24 2
    42   23   41 1
    43   26   27 2
    44   26   28 1
    45   26   29 1
@<TRIPOS>MOLECULE
ZINC13829431
   42    44     0     0     0
SMALL
USER_CHARGES

@<TRIPOS>ATOM
      1 C1          0.1560    1.6195    0.1183 C.3       1 <0>        -0.1622
      2 C2          0.1714    0.0912    0.0475 C.3       1 <0>         0.1176
      3 H1         -0.8506   -0.2791   -0.0334 H         1 <0>         0.0349
      4 C3          0.9617   -0.3479   -1.1582 C.ar      1 <0>        -0.0494
      5 C4          2.3428   -0.3760   -1.1063 C.ar      1 <0>        -0.0923
      6 C5          3.0681   -0.7791   -2.2118 C.ar      1 <0>        -0.0916
      7 C6          2.4117   -1.1543   -3.3701 C.ar      1 <0>        -0.1013
      8 C7          1.0297   -1.1259   -3.4216 C.ar      1 <0>        -0.0955
      9 C8          0.3051   -0.7278   -2.3139 C.ar      1 <0>        -0.1164
     10 Br1         3.4034   -1.7052   -4.8830 Br        1 <0>        -0.0740
     11 N1          0.7931   -0.4491    1.2638 N.3       1 <0>        -0.6206
     12 C9         -0.1906   -0.5721    2.3478 C.3       1 <0>        -0.4519
     13 H2         -1.1954   -0.4562    1.9415 H         1 <0>         0.0469
     14 C10        -0.0622   -1.9289    2.9911 C.ar      1 <0>        -0.0265
     15 C11         1.1792   -2.5190    3.1145 C.ar      1 <0>        -0.1010
     16 C12         1.3034   -3.7653    3.7045 C.ar      1 <0>        -0.1040
     17 C13         0.1866   -4.4267    4.1736 C.ar      1 <0>        -0.1476
     18 C14        -1.0692   -3.8421    4.0553 C.ar      1 <0>         0.1015
     19 C15        -1.1938   -2.5829    3.4650 C.ar      1 <0>         0.1245
     20 N2         -2.4419   -1.9789    3.3417 N.am      1 <0>        -0.6069
     21 H3         -2.5184   -1.1056    2.9265 H         1 <0>         0.4249
     22 C16        -3.5447   -2.6064    3.7983 C.2       1 <0>         0.5038
     23 O1         -4.6360   -2.0838    3.6922 O.2       1 <0>        -0.4948
     24 C17        -3.4109   -3.9488    4.4344 C.2       1 <0>         0.5128
     25 O2         -4.3922   -4.5305    4.8516 O.2       1 <0>        -0.5002
     26 N3         -2.1910   -4.5154    4.5309 N.am      1 <0>        -0.6247
     27 H4         -2.0936   -5.3885    4.9422 H         1 <0>         0.4136
     28 P1          0.1138    0.7227    3.5945 P.3       1 <0>         2.2006
     29 O3          1.6486    0.8048    3.8981 O.2       1 <0>        -1.1550
     30 O4         -0.3846    2.1030    3.0462 O.3       1 <0>        -1.1598
     31 O5         -0.6608    0.3730    4.9105 O.3       1 <0>        -1.1694
     32 H5          1.1779    1.9898    0.1992 H         1 <0>         0.0593
     33 H6         -0.3054    2.0204   -0.7842 H         1 <0>         0.0309
     34 H7         -0.4156    1.9371    0.9904 H         1 <0>         0.1275
     35 H8          2.8552   -0.0827   -0.2020 H         1 <0>         0.1505
     36 H9          4.1471   -0.8008   -2.1712 H         1 <0>         0.1300
     37 H10         0.5168   -1.4188   -4.3257 H         1 <0>         0.1251
     38 H11        -0.7741   -0.7095   -2.3527 H         1 <0>         0.1259
     39 H12         2.0570   -2.0069    2.7491 H         1 <0>         0.1440
     40 H13         2.2777   -4.2217    3.7977 H         1 <0>         0.1277
     41 H14         0.2883   -5.3990    4.6326 H         1 <0>         0.1271
     42 H15         1.2399   -1.3347    1.0788 H         1 <0>         0.3162
@<TRIPOS>BOND
     1    1    2 1
     2    1   32 1
     3    1   33 1
     4    1   34 1
     5    2    3 1
     6    2    4 1
     7    2   11 1
     8    4    9 ar
     9    4    5 ar
    10    5    6 ar
    11    5   35 1
    12    6    7 ar
    13    6   36 1
    14    7    8 ar
    15    7   10 1
    16    8    9 ar
    17    8   37 1
    18    9   38 1
    19   11   12 1
    20   11   42 1
    21   12   13 1
    22   12   14 1
    23   12   28 1
    24   14   19 ar
    25   14   15 ar
    26   15   16 ar
    27   15   39 1
    28   16   17 ar
    29   16   40 1
    30   17   18 ar
    31   17   41 1
    32   18   26 1
    33   18   19 ar
    34   19   20 1
    35   20   21 1
    36   20   22 am
    37   22   23 2
    38   22   24 1
    39   24   25 2
    40   24   26 am
    41   26   27 1
    42   28   29 2
    43   28   30 1
    44   28   31 1
@<TRIPOS>MOLECULE
ZINC13829431
   43    45     0     0     0
SMALL
USER_CHARGES

@<TRIPOS>ATOM
      1 C1          0.1314    1.5978    0.0935 C.3       1 <0>        -0.1483
      2 C2          0.1666    0.0691    0.0405 C.3       1 <0>         0.1126
      3 H1         -0.8504   -0.3153   -0.0376 H         1 <0>         0.0473
      4 C3          0.9645   -0.3737   -1.1589 C.ar      1 <0>        -0.0658
      5 C4          2.3458   -0.3835   -1.1046 C.ar      1 <0>        -0.0944
      6 C5          3.0779   -0.7900   -2.2042 C.ar      1 <0>        -0.0899
      7 C6          2.4283   -1.1871   -3.3591 C.ar      1 <0>        -0.0939
      8 C7          1.0461   -1.1771   -3.4129 C.ar      1 <0>        -0.0920
      9 C8          0.3147   -0.7754   -2.3110 C.ar      1 <0>        -0.1110
     10 Br1         3.4295   -1.7427   -4.8640 Br        1 <0>        -0.0591
     11 N1          0.7933   -0.4490    1.2639 N.3       1 <0>        -0.6405
     12 C9         -0.1906   -0.5721    2.3478 C.3       1 <0>        -0.4593
     13 H2         -1.1953   -0.4563    1.9414 H         1 <0>         0.0646
     14 C10        -0.0622   -1.9289    2.9911 C.ar      1 <0>        -0.0650
     15 C11         1.1792   -2.5190    3.1145 C.ar      1 <0>        -0.0787
     16 C12         1.3034   -3.7653    3.7045 C.ar      1 <0>        -0.1042
     17 C13         0.1866   -4.4267    4.1736 C.ar      1 <0>        -0.1247
     18 C14        -1.0692   -3.8421    4.0553 C.ar      1 <0>         0.1064
     19 C15        -1.1938   -2.5829    3.4650 C.ar      1 <0>         0.1313
     20 N2         -2.4419   -1.9789    3.3417 N.am      1 <0>        -0.6180
     21 H3         -2.5184   -1.1056    2.9265 H         1 <0>         0.4208
     22 C16        -3.5447   -2.6064    3.7983 C.2       1 <0>         0.5081
     23 O1         -4.6360   -2.0838    3.6922 O.2       1 <0>        -0.4794
     24 C17        -3.4109   -3.9488    4.4344 C.2       1 <0>         0.5115
     25 O2         -4.3922   -4.5305    4.8516 O.2       1 <0>        -0.4833
     26 N3         -2.1910   -4.5154    4.5309 N.am      1 <0>        -0.6285
     27 H4         -2.0936   -5.3885    4.9422 H         1 <0>         0.4190
     28 P1          0.1136    0.7227    3.5945 P.3       1 <0>         2.2675
     29 O3          1.4873    0.4840    4.2603 O.2       1 <0>        -1.0780
     30 O4          0.1063    2.1663    2.8818 O.3       1 <0>        -0.8947
     31 O5         -0.9951    0.6734    4.6694 O.3       1 <0>        -1.0906
     32 H5          1.1484    1.9821    0.1716 H         1 <0>         0.0686
     33 H6         -0.3335    1.9822   -0.8143 H         1 <0>         0.0492
     34 H7         -0.4456    1.9180    0.9610 H         1 <0>         0.0892
     35 H8          2.8529   -0.0732   -0.2030 H         1 <0>         0.1461
     36 H9          4.1571   -0.7973   -2.1618 H         1 <0>         0.1336
     37 H10         0.5385   -1.4870   -4.3144 H         1 <0>         0.1301
     38 H11        -0.7645   -0.7715   -2.3516 H         1 <0>         0.1275
     39 H12         2.0570   -2.0069    2.7491 H         1 <0>         0.1454
     40 H13         2.2777   -4.2217    3.7977 H         1 <0>         0.1356
     41 H14         0.2883   -5.3990    4.6326 H         1 <0>         0.1357
     42 H15         1.2517   -1.3309    1.0898 H         1 <0>         0.3397
     43 H16         0.2623    2.9044    3.4867 H         1 <0>         0.4095
@<TRIPOS>BOND
     1    1    2 1
     2    1   32 1
     3    1   33 1
     4    1   34 1
     5    2    3 1
     6    2    4 1
     7    2   11 1
     8    4    9 ar
     9    4    5 ar
    10    5    6 ar
    11    5   35 1
    12    6    7 ar
    13    6   36 1
    14    7    8 ar
    15    7   10 1
    16    8    9 ar
    17    8   37 1
    18    9   38 1
    19   11   12 1
    20   11   42 1
    21   12   13 1
    22   12   14 1
    23   12   28 1
    24   14   19 ar
    25   14   15 ar
    26   15   16 ar
    27   15   39 1
    28   16   17 ar
    29   16   40 1
    30   17   18 ar
    31   17   41 1
    32   18   26 1
    33   18   19 ar
    34   19   20 1
    35   20   21 1
    36   20   22 am
    37   22   23 2
    38   22   24 1
    39   24   25 2
    40   24   26 am
    41   26   27 1
    42   28   29 2
    43   28   30 1
    44   28   31 1
    45   30   43 1
@<TRIPOS>MOLECULE
ZINC13829433
   43    45     0     0     0
SMALL
USER_CHARGES

@<TRIPOS>ATOM
      1 C1          2.4622    0.9393    1.6978 C.3       1 <0>        -0.1319
      2 C2          1.2487    0.6754    0.8041 C.3       1 <0>         0.1190
      3 H1          0.4670    1.4009    1.0293 H         1 <0>         0.0579
      4 C3          1.6523    0.8045   -0.6421 C.ar      1 <0>        -0.0677
      5 C4          2.2965   -0.2418   -1.2757 C.ar      1 <0>        -0.0948
      6 C5          2.6664   -0.1240   -2.6022 C.ar      1 <0>        -0.0912
      7 C6          2.3921    1.0409   -3.2958 C.ar      1 <0>        -0.0919
      8 C7          1.7475    2.0876   -2.6613 C.ar      1 <0>        -0.0914
      9 C8          1.3732    1.9669   -1.3362 C.ar      1 <0>        -0.1028
     10 Br1         2.8985    1.2029   -5.1105 Br        1 <0>        -0.0593
     11 N1          0.7437   -0.6815    1.0523 N.3       1 <0>        -0.6565
     12 C9         -0.2039   -0.6935    2.1748 C.3       1 <0>        -0.4684
     13 H2         -0.1032    0.2299    2.7451 H         1 <0>         0.0867
     14 C10         0.0907   -1.8706    3.0685 C.ar      1 <0>        -0.0366
     15 C11         0.8585   -2.9172    2.5997 C.ar      1 <0>        -0.0675
     16 C12         1.1322   -4.0015    3.4159 C.ar      1 <0>        -0.1146
     17 C13         0.6393   -4.0437    4.7043 C.ar      1 <0>        -0.1291
     18 C14        -0.1349   -2.9951    5.1878 C.ar      1 <0>         0.1033
     19 C15        -0.4062   -1.8989    4.3666 C.ar      1 <0>         0.1281
     20 N2         -1.1751   -0.8368    4.8340 N.am      1 <0>        -0.6050
     21 C16        -1.6607   -0.8559    6.0919 C.2       1 <0>         0.5088
     22 C17        -1.3655   -2.0238    6.9714 C.2       1 <0>         0.5102
     23 N3         -0.6286   -3.0448    6.4885 N.am      1 <0>        -0.6293
     24 O1         -1.7934   -2.0598    8.1076 O.2       1 <0>        -0.4886
     25 O2         -2.3315    0.0688    6.5046 O.2       1 <0>        -0.4816
     26 P1         -1.9048   -0.8287    1.5328 P.3       1 <0>         2.2031
     27 O3         -2.0817   -2.1911    0.8260 O.2       1 <0>        -1.0616
     28 O4         -2.9072   -0.7219    2.7036 O.3       1 <0>        -1.0662
     29 O5         -2.1780    0.3603    0.4822 O.3       1 <0>        -0.8997
     30 H3          3.2085    0.1614    1.5362 H         1 <0>         0.0655
     31 H4          2.8907    1.9107    1.4512 H         1 <0>         0.0557
     32 H5          2.1520    0.9338    2.7427 H         1 <0>         0.0548
     33 H6          2.5110   -1.1512   -0.7340 H         1 <0>         0.1413
     34 H7          3.1700   -0.9413   -3.0971 H         1 <0>         0.1328
     35 H8          1.5331    2.9973   -3.2024 H         1 <0>         0.1317
     36 H9          0.8663    2.7825   -0.8420 H         1 <0>         0.1313
     37 H10         0.3238   -1.0689    0.2206 H         1 <0>         0.3476
     38 H11         1.2470   -2.8906    1.5924 H         1 <0>         0.1398
     39 H12         1.7333   -4.8175    3.0429 H         1 <0>         0.1296
     40 H13         0.8548   -4.8919    5.3372 H         1 <0>         0.1315
     41 H14        -3.0659    0.3507    0.0994 H         1 <0>         0.4169
     42 H15        -0.4318   -3.8092    7.0523 H         1 <0>         0.4167
     43 H16        -1.3615   -0.0819    4.2543 H         1 <0>         0.4234
@<TRIPOS>BOND
     1    1    2 1
     2    1   30 1
     3    1   31 1
     4    1   32 1
     5    2    3 1
     6    2    4 1
     7    2   11 1
     8    4    9 ar
     9    4    5 ar
    10    5    6 ar
    11    5   33 1
    12    6    7 ar
    13    6   34 1
    14    7    8 ar
    15    7   10 1
    16    8    9 ar
    17    8   35 1
    18    9   36 1
    19   11   12 1
    20   11   37 1
    21   12   13 1
    22   12   14 1
    23   12   26 1
    24   14   19 ar
    25   14   15 ar
    26   15   16 ar
    27   15   38 1
    28   16   17 ar
    29   16   39 1
    30   17   18 ar
    31   17   40 1
    32   18   23 1
    33   18   19 ar
    34   19   20 1
    35   20   21 am
    36   20   43 1
    37   21   22 1
    38   21   25 2
    39   22   23 am
    40   22   24 2
    41   23   42 1
    42   26   27 2
    43   26   28 1
    44   26   29 1
    45   29   41 1
@<TRIPOS>MOLECULE
ZINC19632753
   29    28     0     0     0
SMALL
USER_CHARGES

@<TRIPOS>ATOM
      1 C1         -0.0187    1.5258    0.0104 C.3       1 <0>        -0.1166
      2 C2          0.0021   -0.0041    0.0020 C.3       1 <0>        -0.1322
      3 C3         -1.4333   -0.5336    0.0129 C.3       1 <0>        -0.1273
      4 C4         -1.4126   -2.0635    0.0045 C.3       1 <0>        -0.0483
      5 H1         -0.8102   -2.4233    0.8386 H         1 <0>         0.1330
      6 C5         -2.8198   -2.5857    0.1389 C.2       1 <0>         0.4896
      7 O1         -3.4911   -2.7925   -0.8576 O.co2     1 <0>        -0.6734
      8 O2         -3.2870   -2.8013    1.2443 O.co2     1 <0>        -0.6411
      9 N1         -0.8327   -2.5384   -1.2589 N.4       1 <0>        -0.6145
     10 C6          1.4167    2.0553   -0.0004 C.3       1 <0>        -0.0935
     11 C7          1.3960    3.5852    0.0080 C.3       1 <0>        -0.7309
     12 P1          3.1062    4.2162   -0.0050 P.3       1 <0>         2.2581
     13 O3          3.8899    3.6042    1.1776 O.2       1 <0>        -1.0979
     14 O4          3.7898    3.8240   -1.3338 O.3       1 <0>        -1.0994
     15 O5          3.0877    5.8199    0.1361 O.3       1 <0>        -0.9057
     16 H2         -0.5459    1.8868   -0.8726 H         1 <0>         0.0572
     17 H3         -0.5289    1.8773    0.9072 H         1 <0>         0.0611
     18 H4          0.5123   -0.3556   -0.8948 H         1 <0>         0.0555
     19 H5          0.5293   -0.3651    0.8851 H         1 <0>         0.0766
     20 H6         -1.9435   -0.1821    0.9097 H         1 <0>         0.1036
     21 H7         -1.9605   -0.1726   -0.8702 H         1 <0>         0.0813
     22 H8         -1.3902   -2.2053   -2.0311 H         1 <0>         0.4317
     23 H9          0.1095   -2.1887   -1.3490 H         1 <0>         0.4169
     24 H10         1.9439    1.6943    0.8826 H         1 <0>         0.0733
     25 H11         1.9269    1.7038   -0.8972 H         1 <0>         0.0677
     26 H12         0.8688    3.9463   -0.8751 H         1 <0>         0.0681
     27 H13         0.8858    3.9367    0.9048 H         1 <0>         0.0678
     28 H14         3.9658    6.2249    0.1366 H         1 <0>         0.4121
     29 H15        -0.8190   -3.5473   -1.2645 H         1 <0>         0.4273
@<TRIPOS>BOND
     1    1    2 1
     2    1   10 1
     3    1   16 1
     4    1   17 1
     5    2    3 1
     6    2   18 1
     7    2   19 1
     8    3    4 1
     9    3   20 1
    10    3   21 1
    11    4    5 1
    12    4    6 1
    13    4    9 1
    14    6    7 2
    15    6    8 1
    16    9   22 1
    17    9   23 1
    18    9   29 1
    19   10   11 1
    20   10   24 1
    21   10   25 1
    22   11   12 1
    23   11   26 1
    24   11   27 1
    25   12   13 2
    26   12   14 1
    27   12   15 1
    28   15   28 1
@<TRIPOS>MOLECULE
ZINC19632758
   29    28     0     0     0
SMALL
USER_CHARGES

@<TRIPOS>ATOM
      1 C1         -0.0187    1.5258    0.0104 C.3       1 <0>        -0.1166
      2 C2          0.0021   -0.0041    0.0020 C.3       1 <0>        -0.1324
      3 C3         -1.4333   -0.5336    0.0129 C.3       1 <0>        -0.1263
      4 C4         -1.4126   -2.0635    0.0045 C.3       1 <0>        -0.0493
      5 H1         -0.8263   -2.4142   -0.8449 H         1 <0>         0.1336
      6 C5         -2.8221   -2.5844   -0.1087 C.2       1 <0>         0.4915
      7 O1         -3.4399   -2.4497   -1.1512 O.co2     1 <0>        -0.6389
      8 O2         -3.3448   -3.1404    0.8422 O.co2     1 <0>        -0.6788
      9 N1         -0.8087   -2.5519    1.2514 N.4       1 <0>        -0.6130
     10 C6          1.4167    2.0553   -0.0004 C.3       1 <0>        -0.0935
     11 C7          1.3960    3.5852    0.0080 C.3       1 <0>        -0.7309
     12 P1          3.1062    4.2162   -0.0050 P.3       1 <0>         2.2581
     13 O3          3.8899    3.6042    1.1776 O.2       1 <0>        -1.0989
     14 O4          3.7898    3.8240   -1.3338 O.3       1 <0>        -1.0984
     15 O5          3.0877    5.8199    0.1361 O.3       1 <0>        -0.9057
     16 H2         -0.5459    1.8868   -0.8726 H         1 <0>         0.0615
     17 H3         -0.5289    1.8773    0.9072 H         1 <0>         0.0567
     18 H4          0.5123   -0.3556   -0.8948 H         1 <0>         0.0764
     19 H5          0.5293   -0.3651    0.8851 H         1 <0>         0.0551
     20 H6         -1.9435   -0.1821    0.9097 H         1 <0>         0.0781
     21 H7         -1.9605   -0.1726   -0.8702 H         1 <0>         0.1075
     22 H8         -1.3514   -2.2272    2.0376 H         1 <0>         0.4301
     23 H9         -0.7950   -3.5608    1.2458 H         1 <0>         0.4289
     24 H10         1.9439    1.6943    0.8826 H         1 <0>         0.0705
     25 H11         1.9269    1.7038   -0.8972 H         1 <0>         0.0703
     26 H12         0.8688    3.9463   -0.8751 H         1 <0>         0.0695
     27 H13         0.8858    3.9367    0.9048 H         1 <0>         0.0664
     28 H14         3.9658    6.2249    0.1366 H         1 <0>         0.4121
     29 H15         0.1351   -2.2031    1.3272 H         1 <0>         0.4163
@<TRIPOS>BOND
     1    1    2 1
     2    1   10 1
     3    1   16 1
     4    1   17 1
     5    2    3 1
     6    2   18 1
     7    2   19 1
     8    3    4 1
     9    3   20 1
    10    3   21 1
    11    4    5 1
    12    4    6 1
    13    4    9 1
    14    6    7 2
    15    6    8 1
    16    9   22 1
    17    9   23 1
    18    9   29 1
    19   10   11 1
    20   10   24 1
    21   10   25 1
    22   11   12 1
    23   11   26 1
    24   11   27 1
    25   12   13 2
    26   12   14 1
    27   12   15 1
    28   15   28 1
@<TRIPOS>MOLECULE
ZINC00968311
   44    46     0     0     0
SMALL
USER_CHARGES
1-(1-phenylcyclohexyl)piperidine
@<TRIPOS>ATOM
      1 C1         -6.8504    0.6158   -1.3000 C.ar      1 <0>        -0.0983
      2 C2         -5.9618   -0.3997   -1.0001 C.ar      1 <0>        -0.0987
      3 C3         -4.6847   -0.0953   -0.5672 C.ar      1 <0>        -0.0916
      4 C4         -4.2963    1.2246   -0.4342 C.ar      1 <0>        -0.1122
      5 C5         -5.1866    2.2402   -0.7291 C.ar      1 <0>        -0.1651
      6 C6         -6.4619    1.9358   -1.1669 C.ar      1 <0>        -0.1010
      7 C7         -2.9042    1.5565    0.0381 C.3       1 <0>         0.1193
      8 C8         -1.8862    0.7425   -0.7631 C.3       1 <0>        -0.1361
      9 C9         -0.4729    1.0794   -0.2835 C.3       1 <0>        -0.1341
     10 C10        -0.3434    0.7376    1.2022 C.3       1 <0>        -0.1320
     11 C11        -1.3614    1.5516    2.0034 C.3       1 <0>        -0.1367
     12 C12        -2.7747    1.2147    1.5238 C.3       1 <0>        -0.1352
     13 C13        -3.4122    3.7968    0.8019 C.3       1 <0>        -0.0359
     14 C14        -3.0128    5.2678    0.6650 C.3       1 <0>        -0.1453
     15 C15        -3.2968    5.7378   -0.7643 C.3       1 <0>        -0.1398
     16 C16        -2.5281    4.8504   -1.7473 C.3       1 <0>        -0.1447
     17 C17        -2.9415    3.3915   -1.5404 C.3       1 <0>        -0.0394
     18 H1         -7.8482    0.3780   -1.6378 H         1 <0>         0.1358
     19 H2         -6.2654   -1.4310   -1.1036 H         1 <0>         0.1373
     20 H3         -3.9906   -0.8888   -0.3326 H         1 <0>         0.1331
     21 H4         -4.8845    3.2714   -0.6209 H         1 <0>         0.1421
     22 H5         -7.1563    2.7292   -1.4009 H         1 <0>         0.1351
     23 H6         -1.9784    0.9860   -1.8215 H         1 <0>         0.0898
     24 H7         -2.0755   -0.3209   -0.6171 H         1 <0>         0.1120
     25 H8         -0.2835    2.1429   -0.4295 H         1 <0>         0.0554
     26 H9          0.2524    0.4995   -0.8543 H         1 <0>         0.0955
     27 H10        -0.5328   -0.3259    1.3482 H         1 <0>         0.0810
     28 H11         0.6635    0.9776    1.5438 H         1 <0>         0.0819
     29 H12        -1.2692    1.3081    3.0618 H         1 <0>         0.0942
     30 H13        -1.1721    2.6150    1.8574 H         1 <0>         0.0570
     31 H14        -3.5000    1.7946    2.0946 H         1 <0>         0.0914
     32 H15        -2.9641    0.1512    1.6698 H         1 <0>         0.1109
     33 H16        -4.4780    3.6896    0.6004 H         1 <0>         0.1454
     34 H17        -3.1980    3.4551    1.8145 H         1 <0>         0.1336
     35 H18        -1.9499    5.3779    0.8798 H         1 <0>         0.0864
     36 H19        -3.5902    5.8691    1.3673 H         1 <0>         0.1130
     37 H20        -2.9737    6.7726   -0.8785 H         1 <0>         0.0959
     38 H21        -4.3653    5.6654   -0.9671 H         1 <0>         0.0810
     39 H22        -1.4576    4.9538   -1.5704 H         1 <0>         0.0851
     40 H23        -2.7597    5.1530   -2.7685 H         1 <0>         0.1123
     41 H24        -2.3855    2.7553   -2.2290 H         1 <0>         0.1276
     42 H25        -4.0096    3.2863   -1.7309 H         1 <0>         0.1542
     43 N1         -2.6198    2.9937   -0.1533 N.4       1 <0>        -0.3833
     44 H26        -1.6215    3.1617    0.0183 H         1 <0>         0.4232
@<TRIPOS>BOND
     1    1    6 ar
     2    1    2 ar
     3    1   18 1
     4    2    3 ar
     5    2   19 1
     6    3    4 ar
     7    3   20 1
     8    4    5 ar
     9    4    7 1
    10    5    6 ar
    11    5   21 1
    12    6   22 1
    13    7   12 1
    14    7    8 1
    15    7   43 1
    16    8    9 1
    17    8   23 1
    18    8   24 1
    19    9   10 1
    20    9   25 1
    21    9   26 1
    22   10   11 1
    23   10   27 1
    24   10   28 1
    25   11   12 1
    26   11   29 1
    27   11   30 1
    28   12   31 1
    29   12   32 1
    30   13   14 1
    31   13   33 1
    32   13   34 1
    33   13   43 1
    34   14   15 1
    35   14   35 1
    36   14   36 1
    37   15   16 1
    38   15   37 1
    39   15   38 1
    40   16   17 1
    41   16   39 1
    42   16   40 1
    43   17   41 1
    44   17   42 1
    45   17   43 1
    46   43   44 1
@<TRIPOS>MOLECULE
ZINC12428297
   18    19     0     0     0
SMALL
USER_CHARGES

@<TRIPOS>ATOM
      1 C1         -0.0168    1.3862    0.0097 C.ar      1 <0>        -0.1045
      2 C2          1.1691    2.0939    0.0021 C.ar      1 <0>        -0.0139
      3 C3          2.3815    1.4234   -0.0130 C.ar      1 <0>        -0.0845
      4 C4          2.4122    0.0428   -0.0206 C.ar      1 <0>        -0.0327
      5 C5          1.2234   -0.6800   -0.0132 C.ar      1 <0>         0.1328
      6 C6          0.0021   -0.0041    0.0020 C.ar      1 <0>         0.1454
      7 N1         -1.1978   -0.7098    0.0096 N.am      1 <0>        -0.6311
      8 C7         -1.1895   -2.0582    0.0023 C.2       1 <0>         0.5117
      9 C8          0.1151   -2.7807   -0.0140 C.2       1 <0>         0.5110
     10 O1          0.1439   -3.9950   -0.0211 O.2       1 <0>        -0.4536
     11 N2          1.2625   -2.0722   -0.0210 N.am      1 <0>        -0.6332
     12 H1          2.1161   -2.5327   -0.0315 H         1 <0>         0.4259
     13 O2         -2.2340   -2.6781    0.0093 O.2       1 <0>        -0.4544
     14 Cl1         3.9346   -0.7911   -0.0401 Cl        1 <0>        -0.0290
     15 Cl2         1.1406    3.8296    0.0111 Cl        1 <0>        -0.0357
     16 H2         -0.9595    1.9129    0.0260 H         1 <0>         0.1584
     17 H3          3.3056    1.9824   -0.0192 H         1 <0>         0.1589
     18 H4         -2.0412   -0.2308    0.0205 H         1 <0>         0.4285
@<TRIPOS>BOND
     1    1    6 ar
     2    1    2 ar
     3    1   16 1
     4    2    3 ar
     5    2   15 1
     6    3    4 ar
     7    3   17 1
     8    4    5 ar
     9    4   14 1
    10    5   11 1
    11    5    6 ar
    12    6    7 1
    13    7    8 am
    14    7   18 1
    15    8    9 1
    16    8   13 2
    17    9   10 2
    18    9   11 am
    19   11   12 1
@<TRIPOS>MOLECULE
ZINC12428297
   17    18     0     0     0
SMALL
USER_CHARGES

@<TRIPOS>ATOM
      1 C1         -0.0168    1.3862    0.0097 C.ar      1 <0>        -0.1094
      2 C2          1.1683    2.0925    0.0021 C.ar      1 <0>        -0.0647
      3 C3          2.3861    1.4248   -0.0135 C.ar      1 <0>        -0.0944
      4 C4          2.4275    0.0495   -0.0218 C.ar      1 <0>        -0.0347
      5 C5          1.2320   -0.6859   -0.0139 C.ar      1 <0>         0.1832
      6 C6          0.0021   -0.0041    0.0020 C.ar      1 <0>         0.0626
      7 N1         -1.1839   -0.7152    0.0091 N.am      1 <0>        -0.6297
      8 C7         -1.1390   -2.0653    0.0010 C.2       1 <0>         0.4750
      9 C8          0.1705   -2.7392   -0.0151 C.2       1 <0>         0.4190
     10 O1          0.2347   -4.0928   -0.0239 O.3       1 <0>        -0.6202
     11 N2          1.2703   -2.0340   -0.0224 N.2       1 <0>        -0.5943
     12 O2         -2.1676   -2.7165    0.0073 O.2       1 <0>        -0.5221
     13 Cl1         3.9554   -0.7745   -0.0425 Cl        1 <0>        -0.0534
     14 Cl2         1.1372    3.8282    0.0118 Cl        1 <0>        -0.0836
     15 H1         -0.9593    1.9133    0.0260 H         1 <0>         0.1297
     16 H2          3.3070    1.9890   -0.0197 H         1 <0>         0.1353
     17 H3         -2.0357   -0.2512    0.0200 H         1 <0>         0.4016
@<TRIPOS>BOND
     1    1    6 ar
     2    1    2 ar
     3    1   15 1
     4    2    3 ar
     5    2   14 1
     6    3    4 ar
     7    3   16 1
     8    4    5 ar
     9    4   13 1
    10    5   11 1
    11    5    6 ar
    12    6    7 1
    13    7    8 am
    14    7   17 1
    15    8    9 1
    16    8   12 2
    17    9   10 1
    18    9   11 2
@<TRIPOS>MOLECULE
ZINC03805040
   20    20     0     0     0
SMALL
USER_CHARGES
3-amino-1-hydroxy-4-methyl-pyrrolidin-2-one
@<TRIPOS>ATOM
      1 C1         -0.5861    3.6042    0.3176 C.3       1 <0>        -0.1841
      2 C2         -0.8086    3.0730   -1.0999 C.3       1 <0>        -0.1119
      3 H1         -0.0665    3.4783   -1.7877 H         1 <0>         0.1453
      4 C3         -2.2414    3.3821   -1.5876 C.3       1 <0>         0.1191
      5 N1         -3.0376    2.1999   -1.2380 N.am      1 <0>        -0.4550
      6 C4         -2.2513    1.1416   -0.9758 C.2       1 <0>         0.4769
      7 O1         -2.6509    0.0384   -0.6692 O.2       1 <0>        -0.4980
      8 C5         -0.7955    1.5269   -1.1198 C.3       1 <0>         0.0103
      9 H2         -0.3936    1.1609   -2.0646 H         1 <0>         0.1879
     10 O2         -4.4524    2.1769   -1.1838 O.3       1 <0>        -0.2855
     11 H3          0.3787    3.2578    0.6882 H         1 <0>         0.0717
     12 H4         -0.5999    4.6940    0.3035 H         1 <0>         0.1063
     13 H5         -1.3786    3.2393    0.9709 H         1 <0>         0.0737
     14 H6         -2.6313    4.2635   -1.0783 H         1 <0>         0.1158
     15 H7         -2.2474    3.5370   -2.6665 H         1 <0>         0.1081
     16 H8          0.0021   -0.0041    0.0020 H         1 <0>         0.4488
     17 H9          0.9253    1.3792    0.0006 H         1 <0>         0.4481
     18 H10        -4.8227    1.3184   -0.9370 H         1 <0>         0.4100
     19 N2         -0.0252    1.0139    0.0269 N.4       1 <0>        -0.6294
     20 H11        -0.4761    1.3157    0.8986 H         1 <0>         0.4419
@<TRIPOS>BOND
     1    1    2 1
     2    1   11 1
     3    1   12 1
     4    1   13 1
     5    2    3 1
     6    2    8 1
     7    2    4 1
     8    4    5 1
     9    4   14 1
    10    4   15 1
    11    5    6 am
    12    5   10 1
    13    6    7 2
    14    6    8 1
    15    8    9 1
    16    8   19 1
    17   10   18 1
    18   16   19 1
    19   17   19 1
    20   19   20 1
@<TRIPOS>MOLECULE
ZINC18187630
   18    19     0     0     0
SMALL
USER_CHARGES

@<TRIPOS>ATOM
      1 C1         -0.0166    1.3763    0.0096 C.ar      1 <0>        -0.0987
      2 C2          1.1776    2.0888    0.0020 C.ar      1 <0>         0.1367
      3 C3          2.3933    1.4029   -0.0137 C.ar      1 <0>         0.1367
      4 C4          2.4012    0.0123   -0.0216 C.ar      1 <0>        -0.0987
      5 C5          1.2101   -0.6856   -0.0136 C.ar      1 <0>        -0.0201
      6 C6          0.0021   -0.0041    0.0020 C.ar      1 <0>        -0.0201
      7 Cl1        -1.4910   -0.8897    0.0120 Cl        1 <0>        -0.0282
      8 Cl2         1.2243   -2.4215   -0.0241 Cl        1 <0>        -0.0282
      9 N1          3.5991    2.0989   -0.0219 N.am      1 <0>        -0.6322
     10 H1          4.4387    1.6131   -0.0335 H         1 <0>         0.4272
     11 C7          3.6016    3.4473   -0.0143 C.2       1 <0>         0.5107
     12 O1          4.6511    4.0590   -0.0219 O.2       1 <0>        -0.4559
     13 C8          2.3028    4.1801    0.0029 C.2       1 <0>         0.5108
     14 O2          2.2837    5.3946    0.0095 O.2       1 <0>        -0.4559
     15 N2          1.1499    3.4808    0.0097 N.am      1 <0>        -0.6323
     16 H2          0.3000    3.9482    0.0203 H         1 <0>         0.4272
     17 H3         -0.9593    1.9031    0.0259 H         1 <0>         0.1605
     18 H4          3.3397   -0.5220   -0.0345 H         1 <0>         0.1605
@<TRIPOS>BOND
     1    1    6 ar
     2    1    2 ar
     3    1   17 1
     4    2   15 1
     5    2    3 ar
     6    3    4 ar
     7    3    9 1
     8    4    5 ar
     9    4   18 1
    10    5    6 ar
    11    5    8 1
    12    6    7 1
    13    9   10 1
    14    9   11 am
    15   11   12 2
    16   11   13 1
    17   13   14 2
    18   13   15 am
    19   15   16 1
@<TRIPOS>MOLECULE
ZINC18187630
   18    19     0     0     0
SMALL
USER_CHARGES

@<TRIPOS>ATOM
      1 C1         -0.0163    1.3496    0.0095 C.ar      1 <0>        -0.1720
      2 C2          1.2042    2.0706    0.0017 C.ar      1 <0>         0.3977
      3 N1          1.2018    3.3887    0.0092 N.am      1 <0>        -0.4834
      4 C3          2.3685    4.0638    0.0017 C.2       1 <0>         0.4770
      5 O1          2.3724    5.2780    0.0090 O.2       1 <0>        -0.2305
      6 C4          3.6585    3.3064   -0.0153 C.2       1 <0>         0.4771
      7 O2          4.7169    3.9015   -0.0219 O.2       1 <0>        -0.2305
      8 N2          3.6374    1.9587   -0.0227 N.am      1 <0>        -0.4835
      9 C5          2.4852    1.3184   -0.0146 C.ar      1 <0>         0.3977
     10 C6          2.4506   -0.0986   -0.0219 C.ar      1 <0>        -0.1721
     11 C7          1.2596   -0.7424   -0.0140 C.ar      1 <0>         0.1260
     12 C8          0.0021   -0.0041    0.0020 C.ar      1 <0>         0.1258
     13 Cl1        -1.4985   -0.8768    0.0122 Cl        1 <0>         0.1611
     14 Cl2         1.2289   -2.4781   -0.0229 Cl        1 <0>         0.1612
     15 H1         -0.9578    1.8784    0.0258 H         1 <0>         0.2402
     16 H2          3.3713   -0.6630   -0.0341 H         1 <0>         0.2402
     17 H3          0.3612    3.8725    0.0199 H         1 <0>         0.4840
     18 H4          4.4696    1.4604   -0.0338 H         1 <0>         0.4840
@<TRIPOS>BOND
     1    1   12 ar
     2    1    2 ar
     3    1   15 1
     4    2    9 ar
     5    2    3 2
     6    3    4 am
     7    3   17 1
     8    4    5 2
     9    4    6 1
    10    6    7 2
    11    6    8 am
    12    8    9 2
    13    8   18 1
    14    9   10 ar
    15   10   11 ar
    16   10   16 1
    17   11   12 ar
    18   11   14 1
    19   12   13 1
@<TRIPOS>MOLECULE
ZINC19632959
   23    22     0     0     0
SMALL
USER_CHARGES

@<TRIPOS>ATOM
      1 C1         -0.0187    1.5258    0.0104 C.3       1 <0>        -0.1033
      2 C2          0.0021   -0.0041    0.0020 C.3       1 <0>        -0.1242
      3 C3         -1.4333   -0.5336    0.0129 C.3       1 <0>        -0.0486
      4 H1         -1.9862   -0.1019   -0.8214 H         1 <0>         0.1341
      5 C4         -1.4159   -2.0348   -0.1192 C.2       1 <0>         0.4914
      6 O1         -1.3670   -2.7340    0.8784 O.co2     1 <0>        -0.6757
      7 O2         -1.4508   -2.5500   -1.2236 O.co2     1 <0>        -0.6432
      8 N1         -2.0833   -0.1607    1.2764 N.4       1 <0>        -0.6142
      9 C5          1.4167    2.0553   -0.0004 C.3       1 <0>        -0.7315
     10 P1          1.3920    3.8782    0.0096 P.3       1 <0>         2.2590
     11 O3          0.5382    4.3881   -1.1728 O.2       1 <0>        -1.0962
     12 O4          0.7821    4.3776    1.3383 O.3       1 <0>        -1.0992
     13 O5          2.8954    4.4361   -0.1340 O.3       1 <0>        -0.9050
     14 H2         -0.5459    1.8868   -0.8726 H         1 <0>         0.0844
     15 H3         -0.5289    1.8773    0.9072 H         1 <0>         0.0608
     16 H4          0.5123   -0.3556   -0.8948 H         1 <0>         0.0978
     17 H5          0.5293   -0.3651    0.8851 H         1 <0>         0.0754
     18 H6         -2.0949    0.8443    1.3648 H         1 <0>         0.4208
     19 H7         -3.0299   -0.5100    1.2835 H         1 <0>         0.4258
     20 H8          1.9439    1.6943    0.8826 H         1 <0>         0.0727
     21 H9          1.9269    1.7038   -0.8972 H         1 <0>         0.0753
     22 H10         2.9583    5.4010   -0.1361 H         1 <0>         0.4133
     23 H11        -1.5715   -0.5604    2.0487 H         1 <0>         0.4306
@<TRIPOS>BOND
     1    1    2 1
     2    1    9 1
     3    1   14 1
     4    1   15 1
     5    2    3 1
     6    2   16 1
     7    2   17 1
     8    3    4 1
     9    3    5 1
    10    3    8 1
    11    5    6 2
    12    5    7 1
    13    8   18 1
    14    8   19 1
    15    8   23 1
    16    9   10 1
    17    9   20 1
    18    9   21 1
    19   10   11 2
    20   10   12 1
    21   10   13 1
    22   13   22 1
@<TRIPOS>MOLECULE
ZINC19943047
   23    22     0     0     0
SMALL
USER_CHARGES

@<TRIPOS>ATOM
      1 C1         -0.0187    1.5258    0.0104 C.3       1 <0>        -0.1037
      2 C2          0.0021   -0.0041    0.0020 C.3       1 <0>        -0.1232
      3 C3         -1.4333   -0.5336    0.0129 C.3       1 <0>        -0.0495
      4 H1         -1.9701   -0.1109    0.8621 H         1 <0>         0.1346
      5 C4         -1.4136   -2.0361    0.1285 C.2       1 <0>         0.4933
      6 O1         -1.0650   -2.5627    1.1714 O.co2     1 <0>        -0.6411
      7 O2         -1.7461   -2.7250   -0.8209 O.co2     1 <0>        -0.6809
      8 N1         -2.1072   -0.1473   -1.2339 N.4       1 <0>        -0.6128
      9 C5          1.4167    2.0553   -0.0004 C.3       1 <0>        -0.7314
     10 P1          1.3920    3.8782    0.0096 P.3       1 <0>         2.2590
     11 O3          0.5382    4.3881   -1.1728 O.2       1 <0>        -1.0990
     12 O4          0.7821    4.3776    1.3383 O.3       1 <0>        -1.0965
     13 O5          2.8954    4.4361   -0.1340 O.3       1 <0>        -0.9051
     14 H2         -0.5459    1.8868   -0.8726 H         1 <0>         0.0633
     15 H3         -0.5289    1.8773    0.9072 H         1 <0>         0.0815
     16 H4          0.5123   -0.3556   -0.8948 H         1 <0>         0.0721
     17 H5          0.5293   -0.3651    0.8851 H         1 <0>         0.1018
     18 H6         -3.0538   -0.4965   -1.2267 H         1 <0>         0.4273
     19 H7         -2.1205    0.8587   -1.3113 H         1 <0>         0.4204
     20 H8          1.9439    1.6943    0.8826 H         1 <0>         0.0772
     21 H9          1.9269    1.7038   -0.8972 H         1 <0>         0.0707
     22 H10         2.9583    5.4010   -0.1361 H         1 <0>         0.4133
     23 H11        -1.6103   -0.5386   -2.0201 H         1 <0>         0.4288
@<TRIPOS>BOND
     1    1    2 1
     2    1    9 1
     3    1   14 1
     4    1   15 1
     5    2    3 1
     6    2   16 1
     7    2   17 1
     8    3    4 1
     9    3    5 1
    10    3    8 1
    11    5    6 2
    12    5    7 1
    13    8   18 1
    14    8   19 1
    15    8   23 1
    16    9   10 1
    17    9   20 1
    18    9   21 1
    19   10   11 2
    20   10   12 1
    21   10   13 1
    22   13   22 1
@<TRIPOS>MOLECULE
ZINC00004763
   26    27     0     0     0
SMALL
USER_CHARGES

@<TRIPOS>ATOM
      1 C1         -0.0168    1.3874    0.0097 C.ar      1 <0>        -0.1123
      2 C2          1.1696    2.0895    0.0021 C.ar      1 <0>        -0.0235
      3 C3          2.3883    1.4211   -0.0136 C.ar      1 <0>        -0.1492
      4 C4          2.4325    0.0564   -0.0218 C.ar      1 <0>         0.0306
      5 C5          1.2388   -0.6801   -0.0139 C.ar      1 <0>        -0.0923
      6 C6          0.0021   -0.0041    0.0020 C.ar      1 <0>         0.0948
      7 N1         -0.9883   -0.9571    0.0059 N.pl3     1 <0>        -0.5590
      8 H1         -1.9421   -0.7808    0.0154 H         1 <0>         0.4191
      9 C7         -0.4002   -2.2096   -0.0067 C.2       1 <0>         0.0424
     10 C8          0.9535   -2.0650   -0.0189 C.2       1 <0>        -0.1168
     11 C9          1.9663   -3.1809   -0.0360 C.3       1 <0>        -0.0268
     12 C10         2.3242   -3.5668    1.4007 C.3       1 <0>        -0.1578
     13 C11         3.3369   -4.6826    1.3836 C.2       1 <0>         0.4989
     14 O1          3.7355   -5.1279    0.3209 O.co2     1 <0>        -0.7011
     15 O2          3.7577   -5.1401    2.4325 O.co2     1 <0>        -0.7247
     16 C12        -1.1190   -3.4864   -0.0069 C.2       1 <0>         0.5408
     17 O3         -2.3433   -3.4997    0.0044 O.co2     1 <0>        -0.7017
     18 O4         -0.4953   -4.5400   -0.0183 O.co2     1 <0>        -0.6351
     19 Cl1         3.9618   -0.7649   -0.0425 Cl        1 <0>        -0.0477
     20 Cl2         1.1412    3.8252    0.0117 Cl        1 <0>        -0.0862
     21 H2         -0.9585    1.9160    0.0260 H         1 <0>         0.1268
     22 H3          3.3086    1.9864   -0.0197 H         1 <0>         0.1327
     23 H4          1.5461   -4.0451   -0.5504 H         1 <0>         0.0914
     24 H5          2.8640   -2.8488   -0.5573 H         1 <0>         0.0602
     25 H6          2.7444   -2.7026    1.9151 H         1 <0>         0.0412
     26 H7          1.4264   -3.8989    1.9220 H         1 <0>         0.0553
@<TRIPOS>BOND
     1    1    6 ar
     2    1    2 ar
     3    1   21 1
     4    2    3 ar
     5    2   20 1
     6    3    4 ar
     7    3   22 1
     8    4    5 ar
     9    4   19 1
    10    5   10 1
    11    5    6 ar
    12    6    7 1
    13    7    8 1
    14    7    9 1
    15    9   10 2
    16    9   16 1
    17   10   11 1
    18   11   12 1
    19   11   23 1
    20   11   24 1
    21   12   13 1
    22   12   25 1
    23   12   26 1
    24   13   14 2
    25   13   15 1
    26   16   17 2
    27   16   18 1
@<TRIPOS>MOLECULE
ZINC01481896
   52    55     0     0     0
SMALL
USER_CHARGES
dimethyl-phenethyl-BLAHol
@<TRIPOS>ATOM
      1 C1         -6.1807    6.7631   -4.0595 C.3       1 <0>        -0.1546
      2 C2         -5.9468    6.1156   -2.6931 C.3       1 <0>        -0.0889
      3 H1         -6.7377    5.3945   -2.4870 H         1 <0>         0.1007
      4 C3         -4.5906    5.4108   -2.6819 C.3       1 <0>         0.0346
      5 H2         -4.6349    4.5919   -3.3999 H         1 <0>         0.1316
      6 C4         -3.5092    6.3650   -3.1582 C.3       1 <0>        -0.0897
      7 C5         -3.6465    7.7289   -2.5364 C.ar      1 <0>        -0.1107
      8 C6         -2.5909    8.6197   -2.6985 C.ar      1 <0>        -0.0940
      9 C7         -2.6576    9.8912   -2.1710 C.ar      1 <0>        -0.1365
     10 C8         -3.7874   10.2892   -1.4705 C.ar      1 <0>         0.1242
     11 C9         -4.8366    9.4006   -1.3038 C.ar      1 <0>        -0.1399
     12 C10        -4.7623    8.1209   -1.8326 C.ar      1 <0>        -0.0594
     13 C11        -5.9342    7.1946   -1.6050 C.3       1 <0>        -0.0212
     14 C12        -5.7094    6.4962   -0.2519 C.3       1 <0>        -0.1336
     15 C13        -4.3282    5.8326   -0.2934 C.3       1 <0>        -0.0147
     16 C14        -3.0120    4.1248   -1.3898 C.3       1 <0>        -0.0078
     17 C15        -2.6934    3.6179    0.0181 C.3       1 <0>        -0.1009
     18 C16        -1.3782    2.8822    0.0015 C.ar      1 <0>        -0.1072
     19 C17        -1.3496    1.5232   -0.2498 C.ar      1 <0>        -0.1104
     20 C18        -0.1437    0.8474   -0.2593 C.ar      1 <0>        -0.1138
     21 C19         1.0344    1.5325   -0.0284 C.ar      1 <0>        -0.1047
     22 C20         1.0063    2.8926    0.2172 C.ar      1 <0>        -0.1137
     23 C21        -0.2000    3.5675    0.2320 C.ar      1 <0>        -0.1103
     24 C22        -7.2542    7.9682   -1.5991 C.3       1 <0>        -0.1466
     25 O1         -3.8640   11.5429   -0.9518 O.3       1 <0>        -0.4967
     26 H3         -6.1665    5.9950   -4.8327 H         1 <0>         0.0685
     27 H4         -7.1486    7.2644   -4.0631 H         1 <0>         0.0798
     28 H5         -5.3937    7.4911   -4.2561 H         1 <0>         0.0721
     29 H6         -2.5339    5.9536   -2.8983 H         1 <0>         0.0949
     30 H7         -3.5740    6.4616   -4.2420 H         1 <0>         0.1216
     31 H8         -1.7105    8.3122   -3.2433 H         1 <0>         0.1315
     32 H9         -1.8330   10.5761   -2.3028 H         1 <0>         0.1364
     33 H10        -5.7178    9.7063   -0.7593 H         1 <0>         0.1372
     34 H11        -5.7423    7.2305    0.5529 H         1 <0>         0.1139
     35 H12        -6.4788    5.7404   -0.0939 H         1 <0>         0.0945
     36 H13        -4.1336    5.3388    0.6586 H         1 <0>         0.1305
     37 H14        -3.5660    6.5910   -0.4718 H         1 <0>         0.1348
     38 H15        -2.2224    4.7996   -1.7204 H         1 <0>         0.1346
     39 H16        -3.0774    3.2791   -2.0744 H         1 <0>         0.1304
     40 H17        -3.4830    2.9431    0.3487 H         1 <0>         0.0945
     41 H18        -2.6280    4.4636    0.7027 H         1 <0>         0.0961
     42 H19        -2.2697    0.9887   -0.4346 H         1 <0>         0.1238
     43 H20        -0.1217   -0.2152   -0.4515 H         1 <0>         0.1292
     44 H21         1.9769    1.0053   -0.0403 H         1 <0>         0.1295
     45 H22         1.9268    3.4279    0.3973 H         1 <0>         0.1290
     46 H23        -0.2220    4.6301    0.4239 H         1 <0>         0.1230
     47 H24        -8.0775    7.2806   -1.4053 H         1 <0>         0.0702
     48 H25        -7.2257    8.7297   -0.8197 H         1 <0>         0.0711
     49 H26        -7.3999    8.4455   -2.5682 H         1 <0>         0.0733
     50 H27        -4.2504   12.1944   -1.5530 H         1 <0>         0.4006
     51 N1         -4.3150    4.8038   -1.3632 N.4       1 <0>        -0.3844
     52 H28        -5.0456    4.1112   -1.1613 H         1 <0>         0.4275
@<TRIPOS>BOND
     1    1    2 1
     2    1   26 1
     3    1   27 1
     4    1   28 1
     5    2    3 1
     6    2   13 1
     7    2    4 1
     8    4    5 1
     9    4    6 1
    10    4   51 1
    11    6    7 1
    12    6   29 1
    13    6   30 1
    14    7   12 ar
    15    7    8 ar
    16    8    9 ar
    17    8   31 1
    18    9   10 ar
    19    9   32 1
    20   10   11 ar
    21   10   25 1
    22   11   12 ar
    23   11   33 1
    24   12   13 1
    25   13   14 1
    26   13   24 1
    27   14   15 1
    28   14   34 1
    29   14   35 1
    30   15   36 1
    31   15   37 1
    32   15   51 1
    33   16   17 1
    34   16   38 1
    35   16   39 1
    36   16   51 1
    37   17   18 1
    38   17   40 1
    39   17   41 1
    40   18   23 ar
    41   18   19 ar
    42   19   20 ar
    43   19   42 1
    44   20   21 ar
    45   20   43 1
    46   21   22 ar
    47   21   44 1
    48   22   23 ar
    49   22   45 1
    50   23   46 1
    51   24   47 1
    52   24   48 1
    53   24   49 1
    54   25   50 1
    55   51   52 1
@<TRIPOS>MOLECULE
ZINC00000523
   43    45     0     0     0
SMALL
USER_CHARGES

@<TRIPOS>ATOM
      1 C1         -0.3092    1.4992   -0.1585 C.3       1 <0>        -0.1545
      2 C2         -0.1427   -0.0197   -0.0813 C.3       1 <0>        -0.0891
      3 H1         -1.1219   -0.4942   -0.0163 H         1 <0>         0.1012
      4 C3          0.5921   -0.5217   -1.3233 C.3       1 <0>         0.0282
      5 H2         -0.0501   -0.3358   -2.1842 H         1 <0>         0.1364
      6 C4          1.8721    0.2694   -1.5249 C.3       1 <0>        -0.0949
      7 C5          2.6259    0.4650   -0.2371 C.ar      1 <0>        -0.1124
      8 C6          3.9266    0.9503   -0.3193 C.ar      1 <0>        -0.0941
      9 C7          4.6685    1.1673    0.8216 C.ar      1 <0>        -0.1367
     10 C8          4.1147    0.9020    2.0660 C.ar      1 <0>         0.1248
     11 C9          2.8216    0.4129    2.1483 C.ar      1 <0>        -0.1400
     12 C10         2.0830    0.1878    0.9966 C.ar      1 <0>        -0.0592
     13 C11         0.6927   -0.3866    1.1502 C.3       1 <0>        -0.0221
     14 C12         0.8333   -1.9195    1.1810 C.3       1 <0>        -0.1318
     15 C13         1.5926   -2.3422   -0.0815 C.3       1 <0>        -0.0228
     16 N1          0.8425   -1.9546   -1.2597 N.4       1 <0>        -0.3642
     17 C14         1.5793   -2.3654   -2.4623 C.3       1 <0>         0.0229
     18 C15         1.7022   -3.8671   -2.4876 C.2       1 <0>        -0.2375
     19 C16         1.2835   -4.5411   -3.5300 C.2       1 <0>        -0.1019
     20 C17         0.0296    0.1343    2.4269 C.3       1 <0>        -0.1463
     21 O1          4.8367    1.1202    3.1965 O.3       1 <0>        -0.4966
     22 H3          0.6720    1.9694   -0.2234 H         1 <0>         0.0720
     23 H4         -0.8944    1.7562   -1.0415 H         1 <0>         0.0686
     24 H5         -0.8239    1.8541    0.7343 H         1 <0>         0.0799
     25 H6          2.5096   -0.2627   -2.2310 H         1 <0>         0.0962
     26 H7          1.6232    1.2455   -1.9412 H         1 <0>         0.1210
     27 H8          4.3596    1.1588   -1.2865 H         1 <0>         0.1318
     28 H9          5.6785    1.5426    0.7474 H         1 <0>         0.1367
     29 H10         2.3862    0.2057    3.1147 H         1 <0>         0.1377
     30 H11         1.3919   -2.2217    2.0668 H         1 <0>         0.1134
     31 H12        -0.1541   -2.3811    1.1904 H         1 <0>         0.0947
     32 H13         2.5644   -1.8491   -0.1027 H         1 <0>         0.1307
     33 H14         1.7344   -3.4229   -0.0750 H         1 <0>         0.1335
     34 H15         1.0426   -2.0297   -3.3496 H         1 <0>         0.1324
     35 H16         2.5740   -1.9196   -2.4489 H         1 <0>         0.1358
     36 H17         2.1354   -4.3878   -1.6464 H         1 <0>         0.1336
     37 H18         0.8504   -4.0204   -4.3713 H         1 <0>         0.1119
     38 H19         1.3716   -5.6173   -3.5482 H         1 <0>         0.1234
     39 H20        -0.9613   -0.3084    2.5283 H         1 <0>         0.0701
     40 H21         0.6386   -0.1368    3.2893 H         1 <0>         0.0713
     41 H22        -0.0609    1.2192    2.3726 H         1 <0>         0.0737
     42 H23         4.7358    2.0098    3.5620 H         1 <0>         0.4007
     43 H24        -0.0408   -2.4417   -1.2347 H         1 <0>         0.4213
@<TRIPOS>BOND
     1    1    2 1
     2    1   22 1
     3    1   23 1
     4    1   24 1
     5    2    3 1
     6    2   13 1
     7    2    4 1
     8    4    5 1
     9    4   16 1
    10    4    6 1
    11    6    7 1
    12    6   25 1
    13    6   26 1
    14    7   12 ar
    15    7    8 ar
    16    8    9 ar
    17    8   27 1
    18    9   10 ar
    19    9   28 1
    20   10   11 ar
    21   10   21 1
    22   11   12 ar
    23   11   29 1
    24   12   13 1
    25   13   14 1
    26   13   20 1
    27   14   15 1
    28   14   30 1
    29   14   31 1
    30   15   16 1
    31   15   32 1
    32   15   33 1
    33   16   17 1
    34   16   43 1
    35   17   18 1
    36   17   34 1
    37   17   35 1
    38   18   19 2
    39   18   36 1
    40   19   37 1
    41   19   38 1
    42   20   39 1
    43   20   40 1
    44   20   41 1
    45   21   42 1
@<TRIPOS>MOLECULE
ZINC06031758
   36    38     0     0     0
SMALL
USER_CHARGES
dimethylBLAHol
@<TRIPOS>ATOM
      1 C1          2.8205   -0.5889   -2.4836 C.3       1 <0>        -0.1558
      2 C2          2.1434   -0.0411   -1.2257 C.3       1 <0>        -0.0893
      3 H1          2.6987   -0.3561   -0.3423 H         1 <0>         0.1010
      4 C3          0.7081   -0.5604   -1.1450 C.3       1 <0>         0.0333
      5 H2          0.7518   -1.6421   -1.0180 H         1 <0>         0.1379
      6 C4         -0.0020   -0.2746   -2.4569 C.3       1 <0>        -0.0909
      7 C5          0.2463    1.0992   -2.9662 C.ar      1 <0>        -0.1139
      8 C6         -0.5376    1.5540   -4.0211 C.ar      1 <0>        -0.0931
      9 C7         -0.3328    2.8061   -4.5589 C.ar      1 <0>        -0.1364
     10 C8          0.6641    3.6235   -4.0455 C.ar      1 <0>         0.1254
     11 C9          1.4401    3.1741   -2.9900 C.ar      1 <0>        -0.1405
     12 C10         1.2262    1.9153   -2.4490 C.ar      1 <0>        -0.0622
     13 C11         2.0955    1.4891   -1.2890 C.3       1 <0>        -0.0220
     14 C12         1.4202    1.9928   -0.0008 C.3       1 <0>        -0.1333
     15 C13        -0.0178    1.4619    0.0101 C.3       1 <0>        -0.0095
     16 C14         3.5054    2.0656   -1.4332 C.3       1 <0>        -0.1473
     17 O1          0.8779    4.8566   -4.5752 O.3       1 <0>        -0.4966
     18 H3          2.2683   -0.2626   -3.3649 H         1 <0>         0.0720
     19 H4          3.8434   -0.2161   -2.5372 H         1 <0>         0.0798
     20 H5          2.8323   -1.6781   -2.4449 H         1 <0>         0.0691
     21 H6          0.3327   -0.9933   -3.2050 H         1 <0>         0.1224
     22 H7         -1.0759   -0.3910   -2.3113 H         1 <0>         0.0936
     23 H8         -1.3142    0.9198   -4.4226 H         1 <0>         0.1324
     24 H9         -0.9469    3.1505   -5.3778 H         1 <0>         0.1370
     25 H10         2.2162    3.8073   -2.5863 H         1 <0>         0.1374
     26 H11         1.4117    3.0827    0.0101 H         1 <0>         0.1138
     27 H12         1.9590    1.6181    0.8695 H         1 <0>         0.0950
     28 H13        -0.5451    1.8229   -0.8730 H         1 <0>         0.1329
     29 H14        -0.5281    1.8134    0.9069 H         1 <0>         0.1318
     30 H15         3.9604    1.6881   -2.3490 H         1 <0>         0.0737
     31 H16         3.4505    3.1534   -1.4764 H         1 <0>         0.0713
     32 H17         4.1097    1.7661   -0.5770 H         1 <0>         0.0700
     33 H18         1.5174    4.8677   -5.3004 H         1 <0>         0.4011
     34 N1         -0.0088   -0.0185    0.0201 N.4       1 <0>        -0.5084
     35 H19         0.4534   -0.3438    0.8773 H         1 <0>         0.4334
     36 H20        -0.9776   -0.3583    0.0036 H         1 <0>         0.4348
@<TRIPOS>BOND
     1    1    2 1
     2    1   18 1
     3    1   19 1
     4    1   20 1
     5    2    3 1
     6    2   13 1
     7    2    4 1
     8    4    5 1
     9    4    6 1
    10    4   34 1
    11    6    7 1
    12    6   21 1
    13    6   22 1
    14    7   12 ar
    15    7    8 ar
    16    8    9 ar
    17    8   23 1
    18    9   10 ar
    19    9   24 1
    20   10   11 ar
    21   10   17 1
    22   11   12 ar
    23   11   25 1
    24   12   13 1
    25   13   14 1
    26   13   16 1
    27   14   15 1
    28   14   26 1
    29   14   27 1
    30   15   28 1
    31   15   29 1
    32   15   34 1
    33   16   30 1
    34   16   31 1
    35   16   32 1
    36   17   33 1
    37   34   35 1
    38   34   36 1
@<TRIPOS>MOLECULE
ZINC03791818
   17    17     0     0     0
SMALL
USER_CHARGES

@<TRIPOS>ATOM
      1 C1         -0.0189    1.5420    0.0105 C.3       1 <0>        -0.1446
      2 C2          1.4890    1.8776   -0.0021 C.3       1 <0>         0.1032
      3 N1          2.1544    0.7123    0.5924 N.am      1 <0>        -0.4615
      4 C3          1.3442   -0.3602    0.6025 C.2       1 <0>         0.4749
      5 O1          1.6451   -1.4541    1.0311 O.2       1 <0>        -0.4821
      6 C4          0.0021   -0.0041    0.0020 C.3       1 <0>         0.0030
      7 H1         -0.8074   -0.3999    0.6154 H         1 <0>         0.1851
      8 N2         -0.0972   -0.5120   -1.3728 N.4       1 <0>        -0.6206
      9 O2          3.4797    0.7172    1.0909 O.3       1 <0>        -0.2866
     10 H2         -0.4952    1.9207    0.9148 H         1 <0>         0.1373
     11 H3         -0.5124    1.9304   -0.8804 H         1 <0>         0.1296
     12 H4          1.8335    2.0274   -1.0253 H         1 <0>         0.1010
     13 H5          1.6822    2.7681    0.5960 H         1 <0>         0.1185
     14 H6          0.6825   -0.1706   -1.9146 H         1 <0>         0.4372
     15 H7         -0.0821   -1.5208   -1.3605 H         1 <0>         0.4475
     16 H8          3.7679   -0.1331    1.4502 H         1 <0>         0.4108
     17 H9         -0.9601   -0.1936   -1.7875 H         1 <0>         0.4474
@<TRIPOS>BOND
     1    1    6 1
     2    1    2 1
     3    1   10 1
     4    1   11 1
     5    2    3 1
     6    2   12 1
     7    2   13 1
     8    3    4 am
     9    3    9 1
    10    4    5 2
    11    4    6 1
    12    6    7 1
    13    6    8 1
    14    8   14 1
    15    8   15 1
    16    8   17 1
    17    9   16 1
@<TRIPOS>MOLECULE
ZINC13743982
   18    19     0     0     0
SMALL
USER_CHARGES
5,7-dibromo-1,4-dihydroquinoxaline-2,3-dione
@<TRIPOS>ATOM
      1 C1         -0.0167    1.3767    0.0096 C.ar      1 <0>        -0.0734
      2 C2          0.0021   -0.0041    0.0020 C.ar      1 <0>        -0.0795
      3 C3          1.2082   -0.6852   -0.0132 C.ar      1 <0>        -0.0441
      4 C4          2.4001    0.0119   -0.0214 C.ar      1 <0>        -0.0989
      5 C5          2.3930    1.4030   -0.0138 C.ar      1 <0>         0.1624
      6 C6          1.1773    2.0891    0.0020 C.ar      1 <0>         0.1328
      7 N1          1.1496    3.4808    0.0098 N.am      1 <0>        -0.6312
      8 H1          0.2998    3.9482    0.0207 H         1 <0>         0.4285
      9 C7          2.3025    4.1801    0.0020 C.2       1 <0>         0.5113
     10 O1          2.2834    5.3946    0.0084 O.2       1 <0>        -0.4540
     11 C8          3.6014    3.4474   -0.0149 C.2       1 <0>         0.5112
     12 O2          4.6508    4.0591   -0.0225 O.2       1 <0>        -0.4504
     13 N2          3.5990    2.0990   -0.0221 N.am      1 <0>        -0.6351
     14 H2          4.4385    1.6132   -0.0328 H         1 <0>         0.4259
     15 Br1         4.0427   -0.9248   -0.0421 Br        1 <0>        -0.0067
     16 Br2        -1.6245   -0.9685    0.0118 Br        1 <0>        -0.0144
     17 H3         -0.9594    1.9035    0.0169 H         1 <0>         0.1580
     18 H4          1.2164   -1.7651   -0.0191 H         1 <0>         0.1574
@<TRIPOS>BOND
     1    1    6 ar
     2    1    2 ar
     3    1   17 1
     4    2    3 ar
     5    2   16 1
     6    3    4 ar
     7    3   18 1
     8    4    5 ar
     9    4   15 1
    10    5   13 1
    11    5    6 ar
    12    6    7 1
    13    7    8 1
    14    7    9 am
    15    9   10 2
    16    9   11 1
    17   11   12 2
    18   11   13 am
    19   13   14 1
@<TRIPOS>MOLECULE
ZINC00004888
   21    22     0     0     0
SMALL
USER_CHARGES
6-hydroxy-2,6-diazabicyclo[3.2.1]octan-7-one
@<TRIPOS>ATOM
      1 C1         -0.7429    1.5878   -1.2403 C.3       1 <0>        -0.1602
      2 C2         -0.0127    1.0858    0.0080 C.3       1 <0>        -0.0145
      3 C3         -0.8154    3.0280    1.2171 C.3       1 <0>         0.0122
      4 H1         -1.0980    3.4378    2.1868 H         1 <0>         0.1926
      5 C4         -1.8275    3.3701    0.0851 C.3       1 <0>        -0.1478
      6 C5         -0.8963    3.1190   -1.1362 C.3       1 <0>         0.1451
      7 H2         -1.2614    3.5754   -2.0562 H         1 <0>         0.1501
      8 N1          0.4069    3.6486   -0.6807 N.am      1 <0>        -0.4712
      9 C6          0.4870    3.5879    0.6640 C.2       1 <0>         0.4810
     10 O1          1.4445    3.9261    1.3271 O.2       1 <0>        -0.4739
     11 O2          1.4229    4.1461   -1.5324 O.3       1 <0>        -0.2894
     12 H3         -0.1634    1.3376   -2.1289 H         1 <0>         0.1258
     13 H4         -1.7277    1.1244   -1.2995 H         1 <0>         0.1165
     14 H5          0.0021   -0.0041    0.0020 H         1 <0>         0.1490
     15 H6          1.0113    1.4593    0.0002 H         1 <0>         0.1273
     16 H7         -2.1504    4.4099    0.1363 H         1 <0>         0.1355
     17 H8         -2.6781    2.6885    0.0879 H         1 <0>         0.1320
     18 H9          2.2120    4.4533   -1.0655 H         1 <0>         0.4094
     19 N2         -0.6929    1.5494    1.2300 N.4       1 <0>        -0.5066
     20 H10        -0.1487    1.2610    2.0515 H         1 <0>         0.4448
     21 H11        -1.6297    1.1316    1.2762 H         1 <0>         0.4424
@<TRIPOS>BOND
     1    1    6 1
     2    1    2 1
     3    1   12 1
     4    1   13 1
     5    2   14 1
     6    2   15 1
     7    2   19 1
     8    3    4 1
     9    3    9 1
    10    3    5 1
    11    3   19 1
    12    5    6 1
    13    5   16 1
    14    5   17 1
    15    6    7 1
    16    6    8 1
    17    8    9 am
    18    8   11 1
    19    9   10 2
    20   11   18 1
    21   19   20 1
    22   19   21 1
@<TRIPOS>MOLECULE
ZINC11688675
   21    22     0     0     0
SMALL
USER_CHARGES
(1S,5R)-6-hydroxy-2,6-diazabicyclo[3.2.1]octan-7-one
@<TRIPOS>ATOM
      1 C1         -0.5456    3.7794   -1.4906 C.3       1 <0>        -0.1603
      2 C2          0.2756    2.6750   -2.1607 C.3       1 <0>        -0.0144
      3 C3          1.2136    2.1074    0.0018 C.3       1 <0>         0.0124
      4 H1          2.0635    1.6794    0.5335 H         1 <0>         0.1924
      5 C4          0.6645    3.4193    0.6343 C.3       1 <0>        -0.1467
      6 C5         -0.7526    3.4060   -0.0085 C.3       1 <0>         0.1453
      7 H2         -1.4621    4.0579    0.5013 H         1 <0>         0.1502
      8 N1         -1.1237    1.9751    0.0175 N.am      1 <0>        -0.4712
      9 C6         -0.0144    1.2086    0.0087 C.2       1 <0>         0.4801
     10 O1          0.0021   -0.0041    0.0020 O.2       1 <0>        -0.4740
     11 O2         -2.4506    1.4817    0.0505 O.3       1 <0>        -0.2895
     12 H3         -0.0099    4.7262   -1.5582 H         1 <0>         0.1161
     13 H4         -1.5120    3.8693   -1.9868 H         1 <0>         0.1258
     14 H5          0.5258    2.9792   -3.1770 H         1 <0>         0.1489
     15 H6         -0.3140    1.7589   -2.1951 H         1 <0>         0.1274
     16 H7          0.6129    3.3499    1.7209 H         1 <0>         0.1355
     17 H8          1.2405    4.2889    0.3179 H         1 <0>         0.1321
     18 H9         -2.5110    0.5168    0.0674 H         1 <0>         0.4093
     19 N2          1.5214    2.4268   -1.4141 N.4       1 <0>        -0.5066
     20 H10         2.1127    3.2653   -1.4522 H         1 <0>         0.4425
     21 H11         2.0203    1.6366   -1.8396 H         1 <0>         0.4448
@<TRIPOS>BOND
     1    1    6 1
     2    1    2 1
     3    1   12 1
     4    1   13 1
     5    2   14 1
     6    2   15 1
     7    2   19 1
     8    3    4 1
     9    3    9 1
    10    3    5 1
    11    3   19 1
    12    5    6 1
    13    5   16 1
    14    5   17 1
    15    6    7 1
    16    6    8 1
    17    8    9 am
    18    8   11 1
    19    9   10 2
    20   11   18 1
    21   19   20 1
    22   19   21 1
@<TRIPOS>MOLECULE
ZINC13642335
   45    48     0     0     0
SMALL
USER_CHARGES

@<TRIPOS>ATOM
      1 C1          0.0042    1.3974   -0.0653 C.ar      1 <0>        -0.1159
      2 C2          1.1699    2.0869   -0.3785 C.ar      1 <0>        -0.1165
      3 C3          2.3768    1.4479   -0.3932 C.ar      1 <0>        -0.1021
      4 C4          2.4423    0.0862   -0.0898 C.ar      1 <0>        -0.0426
      5 C5          1.2592   -0.6183    0.2297 C.ar      1 <0>        -0.0439
      6 C6          0.0362    0.0673    0.2354 C.ar      1 <0>        -0.1062
      7 C7          1.3213   -1.9973    0.5365 C.ar      1 <0>        -0.1102
      8 C8          2.4920   -2.6660    0.5324 C.ar      1 <0>        -0.0919
      9 C9          3.7108   -2.0181    0.2211 C.ar      1 <0>        -0.0575
     10 C10         3.7155   -0.6394   -0.0939 C.ar      1 <0>        -0.0203
     11 C11         4.9178    0.0036   -0.4023 C.ar      1 <0>        -0.1130
     12 C12         6.0865   -0.6961   -0.3989 C.ar      1 <0>        -0.0812
     13 C13         6.0992   -2.0641   -0.0880 C.ar      1 <0>        -0.1189
     14 C14         4.9187   -2.7255    0.2209 C.ar      1 <0>        -0.0423
     15 C15         7.3775   -2.8059   -0.0906 C.2       1 <0>         0.5600
     16 O1          7.4220   -3.9386   -0.5297 O.2       1 <0>        -0.5289
     17 N1          8.4938   -2.2266    0.3938 N.am      1 <0>        -0.5871
     18 C16         8.4381   -0.9113    1.0496 C.3       1 <0>         0.0523
     19 C17         9.1480   -1.0120    2.4038 C.3       1 <0>         0.0406
     20 N2         10.5004   -1.5503    2.2053 N.3       1 <0>        -0.6539
     21 C18        10.4565   -2.9157    1.6653 C.3       1 <0>         0.0190
     22 H1          9.8757   -3.5523    2.3327 H         1 <0>         0.0950
     23 C19         9.7992   -2.8957    0.2862 C.3       1 <0>         0.1291
     24 H2          9.6589   -3.9177   -0.0660 H         1 <0>         0.1400
     25 C20        10.6774   -2.1401   -0.6776 C.2       1 <0>         0.4825
     26 O2         10.4318   -0.9870   -0.9420 O.2       1 <0>        -0.5305
     27 O3         11.7325   -2.7481   -1.2423 O.3       1 <0>        -0.4716
     28 C21        11.8585   -3.4558    1.5489 C.2       1 <0>         0.5056
     29 O4         12.8069   -2.7671    1.8848 O.co2     1 <0>        -0.6717
     30 O5         12.0445   -4.5814    1.1189 O.co2     1 <0>        -0.6794
     31 H3         -0.9392    1.9231   -0.0555 H         1 <0>         0.1235
     32 H4          1.1205    3.1399   -0.6133 H         1 <0>         0.1248
     33 H5          3.2763    1.9929   -0.6386 H         1 <0>         0.1291
     34 H6         -0.8772   -0.4559    0.4769 H         1 <0>         0.1277
     35 H7          0.4115   -2.5261    0.7795 H         1 <0>         0.1278
     36 H8          2.4997   -3.7189    0.7723 H         1 <0>         0.1302
     37 H9          4.9201    1.0562   -0.6439 H         1 <0>         0.1340
     38 H10         7.0119   -0.1932   -0.6381 H         1 <0>         0.1378
     39 H11         4.9321   -3.7786    0.4597 H         1 <0>         0.1402
     40 H12         8.9399   -0.1703    0.4273 H         1 <0>         0.0896
     41 H13         7.3983   -0.6219    1.2019 H         1 <0>         0.0925
     42 H14         9.2133   -0.0219    2.8549 H         1 <0>         0.0860
     43 H15         8.5855   -1.6752    3.0610 H         1 <0>         0.0737
     44 H16        11.0473   -0.9443    1.6123 H         1 <0>         0.3460
     45 H17        12.2352   -2.1838   -1.8455 H         1 <0>         0.3987
@<TRIPOS>BOND
     1    1    6 ar
     2    1    2 ar
     3    1   31 1
     4    2    3 ar
     5    2   32 1
     6    3    4 ar
     7    3   33 1
     8    4   10 ar
     9    4    5 ar
    10    5    6 ar
    11    5    7 ar
    12    6   34 1
    13    7    8 ar
    14    7   35 1
    15    8    9 ar
    16    8   36 1
    17    9   14 ar
    18    9   10 ar
    19   10   11 ar
    20   11   12 ar
    21   11   37 1
    22   12   13 ar
    23   12   38 1
    24   13   14 ar
    25   13   15 1
    26   14   39 1
    27   15   16 2
    28   15   17 am
    29   17   23 1
    30   17   18 1
    31   18   19 1
    32   18   40 1
    33   18   41 1
    34   19   20 1
    35   19   42 1
    36   19   43 1
    37   20   21 1
    38   20   44 1
    39   21   22 1
    40   21   23 1
    41   21   28 1
    42   23   24 1
    43   23   25 1
    44   25   26 2
    45   25   27 1
    46   27   45 1
    47   28   29 2
    48   28   30 1
@<TRIPOS>MOLECULE
ZINC28768623
   27    27     0     0     0
SMALL
USER_CHARGES
(2S,4R)-4-(phosphonomethyl)piperidine-2-carboxylic acid
@<TRIPOS>ATOM
      1 C1         -1.3745   -2.5417   -1.5677 C.3       1 <0>        -0.1674
      2 C2         -1.4183   -4.0649   -1.7090 C.3       1 <0>         0.0024
      3 N1         -2.7510   -4.5544   -1.3342 N.4       1 <0>        -0.5170
      4 C3         -3.0574   -4.2401    0.0671 C.3       1 <0>        -0.0095
      5 H1         -2.2856   -4.7142    0.6913 H         1 <0>         0.1270
      6 C4         -3.0626   -2.7222    0.2615 C.3       1 <0>        -0.1168
      7 C5         -1.6905   -2.1591   -0.1191 C.3       1 <0>        -0.0753
      8 H2         -0.9216   -2.5732    0.5497 H         1 <0>         0.0782
      9 C6         -1.7082   -0.6351    0.0149 C.3       1 <0>        -0.7309
     10 P1          0.0021   -0.0041    0.0020 P.3       1 <0>         2.2817
     11 O1          0.6948   -0.4814   -1.2156 O.2       1 <0>        -1.0838
     12 O2         -0.0198    1.6058    0.0109 O.3       1 <0>        -1.1192
     13 O3          0.7807   -0.5374    1.3064 O.3       1 <0>        -0.9391
     14 C7         -4.4124   -4.7964    0.4218 C.2       1 <0>         0.4598
     15 O4         -5.2035   -5.0629   -0.4516 O.co2     1 <0>        -0.6242
     16 O5         -4.7403   -4.9958    1.7081 O.co2     1 <0>        -0.7122
     17 H3         -2.1197   -2.0880   -2.2377 H         1 <0>         0.0765
     18 H4         -0.3717   -2.1757   -1.8332 H         1 <0>         0.1550
     19 H5         -1.2061   -4.3426   -2.7520 H         1 <0>         0.1238
     20 H6         -0.6633   -4.5163   -1.0486 H         1 <0>         0.1187
     21 H7         -3.5093   -4.0797   -1.9742 H         1 <0>         0.4435
     22 H8         -3.8358   -2.2731   -0.3792 H         1 <0>         0.0761
     23 H9         -3.2777   -2.4881    1.3146 H         1 <0>         0.0998
     24 H10        -2.2661   -0.1995   -0.8271 H         1 <0>         0.0895
     25 H11        -2.1950   -0.3558    0.9610 H         1 <0>         0.0777
     26 H12         1.8317   -0.2583    1.4720 H         1 <0>         0.4463
     27 H13        -2.7912   -5.6457   -1.4659 H         1 <0>         0.4396
@<TRIPOS>BOND
     1    1    7 1
     2    1    2 1
     3    1   17 1
     4    1   18 1
     5    2    3 1
     6    2   19 1
     7    2   20 1
     8    3    4 1
     9    3   21 1
    10    3   27 1
    11    4    5 1
    12    4    6 1
    13    4   14 1
    14    6    7 1
    15    6   22 1
    16    6   23 1
    17    7    8 1
    18    7    9 1
    19    9   10 1
    20    9   24 1
    21    9   25 1
    22   10   11 2
    23   10   12 1
    24   10   13 1
    25   13   26 1
    26   14   15 2
    27   14   16 1
@<TRIPOS>MOLECULE
ZINC13642369
   45    48     0     0     0
SMALL
USER_CHARGES

@<TRIPOS>ATOM
      1 C1          1.8952    0.2071    6.1843 C.ar      1 <0>        -0.1160
      2 C2          3.0757    0.9177    6.0014 C.ar      1 <0>        -0.1167
      3 C3          4.0749    0.4213    5.2137 C.ar      1 <0>        -0.1021
      4 C4          3.9104   -0.8147    4.5846 C.ar      1 <0>        -0.0428
      5 C5          2.7115   -1.5406    4.7685 C.ar      1 <0>        -0.0438
      6 C6          1.7051   -1.0025    5.5831 C.ar      1 <0>        -0.1061
      7 C7          2.5406   -2.7919    4.1324 C.ar      1 <0>        -0.1103
      8 C8          3.5015   -3.3173    3.3461 C.ar      1 <0>        -0.0916
      9 C9          4.7238   -2.6405    3.1221 C.ar      1 <0>        -0.0568
     10 C10         4.9558   -1.3850    3.7306 C.ar      1 <0>        -0.0215
     11 C11         6.1620   -0.7136    3.5111 C.ar      1 <0>        -0.1119
     12 C12         7.1160   -1.2675    2.7120 C.ar      1 <0>        -0.1114
     13 C13         6.9018   -2.5123    2.1015 C.ar      1 <0>        -0.1167
     14 C14         5.7124   -3.1985    2.3031 C.ar      1 <0>        -0.0372
     15 C15         7.9489   -3.0961    1.2371 C.2       1 <0>         0.5503
     16 O1          8.0360   -4.3028    1.1183 O.2       1 <0>        -0.5128
     17 N1          8.8072   -2.2906    0.5805 N.am      1 <0>        -0.5941
     18 C16         8.7620   -0.8317    0.7617 C.3       1 <0>         0.0703
     19 C17         8.7050   -0.1712   -0.6199 C.3       1 <0>         0.0354
     20 N2          9.8212   -0.6611   -1.4397 N.3       1 <0>        -0.6590
     21 C18         9.7154   -2.1074   -1.6745 C.3       1 <0>         0.0200
     22 H1          8.7573   -2.3305   -2.1438 H         1 <0>         0.0486
     23 C19         9.8178   -2.8477   -0.3314 C.3       1 <0>         0.1793
     24 H2         10.8117   -2.7064    0.0932 H         1 <0>         0.1049
     25 C20         9.5563   -4.3171   -0.5401 C.2       1 <0>         0.5184
     26 O2          8.5088   -4.6823   -1.0189 O.2       1 <0>        -0.5086
     27 O3         10.4871   -5.2202   -0.1940 O.3       1 <0>        -0.5034
     28 C21        10.8347   -2.5532   -2.5796 C.2       1 <0>         0.4983
     29 O4         11.7463   -1.7879   -2.8442 O.co2     1 <0>        -0.6692
     30 O5         10.8289   -3.6791   -3.0473 O.co2     1 <0>        -0.6828
     31 H3          1.1195    0.6163    6.8146 H         1 <0>         0.1234
     32 H4          3.2042    1.8736    6.4874 H         1 <0>         0.1249
     33 H5          4.9879    0.9819    5.0778 H         1 <0>         0.1294
     34 H6          0.7828   -1.5438    5.7340 H         1 <0>         0.1276
     35 H7          1.6209   -3.3385    4.2799 H         1 <0>         0.1279
     36 H8          3.3349   -4.2758    2.8772 H         1 <0>         0.1304
     37 H9          6.3377    0.2456    3.9753 H         1 <0>         0.1353
     38 H10         8.0457   -0.7434    2.5466 H         1 <0>         0.1631
     39 H11         5.5507   -4.1565    1.8315 H         1 <0>         0.1419
     40 H12         7.8746   -0.5611    1.3338 H         1 <0>         0.1259
     41 H13         9.6564   -0.5004    1.2893 H         1 <0>         0.0856
     42 H14         7.7610   -0.4214   -1.1040 H         1 <0>         0.0303
     43 H15         8.7822    0.9104   -0.5094 H         1 <0>         0.0868
     44 H16         9.8781   -0.1565   -2.3116 H         1 <0>         0.3558
     45 H17        10.2292   -6.1363   -0.3653 H         1 <0>         0.4011
@<TRIPOS>BOND
     1    1    6 ar
     2    1    2 ar
     3    1   31 1
     4    2    3 ar
     5    2   32 1
     6    3    4 ar
     7    3   33 1
     8    4   10 ar
     9    4    5 ar
    10    5    6 ar
    11    5    7 ar
    12    6   34 1
    13    7    8 ar
    14    7   35 1
    15    8    9 ar
    16    8   36 1
    17    9   14 ar
    18    9   10 ar
    19   10   11 ar
    20   11   12 ar
    21   11   37 1
    22   12   13 ar
    23   12   38 1
    24   13   14 ar
    25   13   15 1
    26   14   39 1
    27   15   16 2
    28   15   17 am
    29   17   23 1
    30   17   18 1
    31   18   19 1
    32   18   40 1
    33   18   41 1
    34   19   20 1
    35   19   42 1
    36   19   43 1
    37   20   21 1
    38   20   44 1
    39   21   22 1
    40   21   23 1
    41   21   28 1
    42   23   24 1
    43   23   25 1
    44   25   26 2
    45   25   27 1
    46   27   45 1
    47   28   29 2
    48   28   30 1
@<TRIPOS>MOLECULE
ZINC28110500
   35    37     0     0     0
SMALL
USER_CHARGES
8-(2-methoxyphenyl)-1,2,3,4-tetrahydroisoquinoline
@<TRIPOS>ATOM
      1 C1          4.6552    1.1507   -2.2962 C.3       1 <0>         0.0208
      2 O1          3.9109    2.0318   -1.4525 O.3       1 <0>        -0.3075
      3 C2          4.3602    2.1939   -0.1809 C.ar      1 <0>         0.1393
      4 C3          5.4932    1.5207    0.2475 C.ar      1 <0>        -0.2089
      5 C4          5.9498    1.6871    1.5410 C.ar      1 <0>        -0.0771
      6 C5          5.2803    2.5252    2.4154 C.ar      1 <0>        -0.1548
      7 C6          4.1535    3.2055    2.0006 C.ar      1 <0>        -0.0664
      8 C7          3.6815    3.0409    0.7003 C.ar      1 <0>        -0.0804
      9 C8          2.4679    3.7657    0.2509 C.ar      1 <0>        -0.0342
     10 C9          2.4771    5.1555    0.1745 C.ar      1 <0>        -0.1085
     11 C10         1.3460    5.8253   -0.2451 C.ar      1 <0>        -0.1195
     12 C11         0.2104    5.1158   -0.5855 C.ar      1 <0>        -0.1191
     13 C12         0.1935    3.7305   -0.5098 C.ar      1 <0>        -0.0722
     14 C13         1.3170    3.0517   -0.0955 C.ar      1 <0>        -0.0533
     15 C14         1.3500    1.5489   -0.0025 C.3       1 <0>         0.0879
     16 N1         -0.0116    1.0048    0.0076 N.3       1 <0>        -0.6700
     17 C15        -0.7774    1.5282   -1.1350 C.3       1 <0>         0.0433
     18 C16        -1.0748    3.0066   -0.8835 C.3       1 <0>        -0.0775
     19 H1          4.1859    1.1116   -3.2903 H         1 <0>         0.1013
     20 H2          4.6655    0.1428   -1.8556 H         1 <0>         0.0566
     21 H3          5.6871    1.5195   -2.3921 H         1 <0>         0.0577
     22 H4          6.0201    0.8655   -0.4305 H         1 <0>         0.1295
     23 H5          6.8333    1.1610    1.8711 H         1 <0>         0.1261
     24 H6          5.6433    2.6506    3.4248 H         1 <0>         0.1270
     25 H7          3.6362    3.8623    2.6843 H         1 <0>         0.1308
     26 H8          3.3658    5.7074    0.4428 H         1 <0>         0.1222
     27 H9          1.3483    6.9035   -0.3071 H         1 <0>         0.1236
     28 H10        -0.6724    5.6445   -0.9136 H         1 <0>         0.1212
     29 H11         1.8918    1.1398   -0.8680 H         1 <0>         0.0541
     30 H12         1.8610    1.2500    0.9246 H         1 <0>         0.0842
     31 H13         0.0314   -0.0923   -0.0604 H         1 <0>         0.3448
     32 H14        -0.1856    1.4157   -2.0554 H         1 <0>         0.0356
     33 H15        -1.7186    0.9674   -1.2334 H         1 <0>         0.0812
     34 H16        -1.8027    3.0952   -0.0636 H         1 <0>         0.0842
     35 H17        -1.4956    3.4519   -1.7971 H         1 <0>         0.0779
@<TRIPOS>BOND
     1    1    2 1
     2    1   19 1
     3    1   20 1
     4    1   21 1
     5    2    3 1
     6    3    8 ar
     7    3    4 ar
     8    4    5 ar
     9    4   22 1
    10    5    6 ar
    11    5   23 1
    12    6    7 ar
    13    6   24 1
    14    7    8 ar
    15    7   25 1
    16    8    9 1
    17    9   14 ar
    18    9   10 ar
    19   10   11 ar
    20   10   26 1
    21   11   12 ar
    22   11   27 1
    23   12   13 ar
    24   12   28 1
    25   13   18 1
    26   13   14 ar
    27   14   15 1
    28   15   16 1
    29   15   29 1
    30   15   30 1
    31   16   17 1
    32   16   31 1
    33   17   18 1
    34   17   32 1
    35   17   33 1
    36   18   34 1
    37   18   35 1
@<TRIPOS>MOLECULE
ZINC00000596
   49    51     0     0     0
SMALL
USER_CHARGES
dimethyl-(3-methylbut-2-enyl)BLAHol
@<TRIPOS>ATOM
      1 C1          1.1810    0.6734   -0.4602 C.3       1 <0>        -0.1552
      2 C2         -0.3103    0.3734   -0.2964 C.3       1 <0>        -0.0889
      3 H1         -0.4566   -0.6974   -0.1546 H         1 <0>         0.1007
      4 C3         -0.8596    1.1333    0.9106 C.3       1 <0>         0.0339
      5 H2         -0.3716    0.7400    1.8024 H         1 <0>         0.1315
      6 C4         -0.4886    2.6026    0.8088 C.3       1 <0>        -0.0890
      7 C5         -0.7124    3.1461   -0.5773 C.ar      1 <0>        -0.1105
      8 C6         -0.6417    4.5245   -0.7476 C.ar      1 <0>        -0.0947
      9 C7         -0.8037    5.0868   -1.9953 C.ar      1 <0>        -0.1368
     10 C8         -1.0399    4.2730   -3.0941 C.ar      1 <0>         0.1240
     11 C9         -1.1181    2.9007   -2.9238 C.ar      1 <0>        -0.1397
     12 C10        -0.9596    2.3404   -1.6653 C.ar      1 <0>        -0.0583
     13 C11        -1.0712    0.8387   -1.5424 C.3       1 <0>        -0.0213
     14 C12        -2.5604    0.5047   -1.3358 C.3       1 <0>        -0.1334
     15 C13        -3.0578    1.3124   -0.1317 C.3       1 <0>        -0.0053
     16 C14        -2.8018    1.6243    2.2533 C.3       1 <0>         0.0259
     17 C15        -4.2991    1.4695    2.3258 C.2       1 <0>        -0.2563
     18 C16        -5.0630    2.5289    2.4263 C.2       1 <0>        -0.0381
     19 C17        -4.4429    3.8911    2.6019 C.3       1 <0>        -0.1488
     20 C18        -6.5620    2.3854    2.3663 C.3       1 <0>        -0.1379
     21 C19        -0.5306    0.1432   -2.7933 C.3       1 <0>        -0.1469
     22 O1         -1.1938    4.8189   -4.3291 O.3       1 <0>        -0.4948
     23 H3          1.7168    0.3508    0.4325 H         1 <0>         0.0686
     24 H4          1.5661    0.1382   -1.3282 H         1 <0>         0.0801
     25 H5          1.3227    1.7449   -0.6017 H         1 <0>         0.0720
     26 H6         -1.0945    3.1709    1.5146 H         1 <0>         0.0928
     27 H7          0.5628    2.7216    1.0708 H         1 <0>         0.1221
     28 H8         -0.4582    5.1602    0.1059 H         1 <0>         0.1313
     29 H9         -0.7465    6.1583   -2.1177 H         1 <0>         0.1363
     30 H10        -1.3033    2.2635   -3.7759 H         1 <0>         0.1374
     31 H11        -2.6758   -0.5611   -1.1388 H         1 <0>         0.0935
     32 H12        -3.1280    0.7795   -2.2249 H         1 <0>         0.1121
     33 H13        -4.1155    1.1061    0.0322 H         1 <0>         0.1284
     34 H14        -2.9211    2.3761   -0.3263 H         1 <0>         0.1309
     35 H15        -2.3482    1.1918    3.1451 H         1 <0>         0.1302
     36 H16        -2.5484    2.6828    2.1938 H         1 <0>         0.1348
     37 H17        -4.7423    0.4851    2.2948 H         1 <0>         0.1345
     38 H18        -4.1823    4.3003    1.6258 H         1 <0>         0.0808
     39 H19        -5.1543    4.5533    3.0953 H         1 <0>         0.0842
     40 H20        -3.5435    3.8050    3.2116 H         1 <0>         0.0726
     41 H21        -6.8215    1.3347    2.2372 H         1 <0>         0.0712
     42 H22        -6.9998    2.7566    3.2929 H         1 <0>         0.0829
     43 H23        -6.9487    2.9612    1.5255 H         1 <0>         0.0838
     44 H24        -0.6488   -0.9354   -2.6891 H         1 <0>         0.0700
     45 H25        -1.0835    0.4866   -3.6676 H         1 <0>         0.0708
     46 H26         0.5259    0.3828   -2.9143 H         1 <0>         0.0738
     47 H27        -2.1084    5.0436   -4.5486 H         1 <0>         0.3984
     48 N1         -2.3079    0.8926    1.0783 N.4       1 <0>        -0.3801
     49 H28        -2.4589   -0.1122    1.2258 H         1 <0>         0.4267
@<TRIPOS>BOND
     1    1    2 1
     2    1   23 1
     3    1   24 1
     4    1   25 1
     5    2    3 1
     6    2   13 1
     7    2    4 1
     8    4    5 1
     9    4    6 1
    10    4   48 1
    11    6    7 1
    12    6   26 1
    13    6   27 1
    14    7   12 ar
    15    7    8 ar
    16    8    9 ar
    17    8   28 1
    18    9   10 ar
    19    9   29 1
    20   10   11 ar
    21   10   22 1
    22   11   12 ar
    23   11   30 1
    24   12   13 1
    25   13   14 1
    26   13   21 1
    27   14   15 1
    28   14   31 1
    29   14   32 1
    30   15   33 1
    31   15   34 1
    32   15   48 1
    33   16   17 1
    34   16   35 1
    35   16   36 1
    36   16   48 1
    37   17   18 2
    38   17   37 1
    39   18   19 1
    40   18   20 1
    41   19   38 1
    42   19   39 1
    43   19   40 1
    44   20   41 1
    45   20   42 1
    46   20   43 1
    47   21   44 1
    48   21   45 1
    49   21   46 1
    50   22   47 1
    51   48   49 1
@<TRIPOS>MOLECULE
ZINC03830613
   46    49     0     0     0
SMALL
USER_CHARGES

@<TRIPOS>ATOM
      1 C1         -0.3045    1.4999   -0.1559 C.3       1 <0>        -0.1545
      2 C2         -0.1403   -0.0193   -0.0800 C.3       1 <0>        -0.0889
      3 H1         -1.1203   -0.4924   -0.0160 H         1 <0>         0.1013
      4 C3          0.5943   -0.5212   -1.3221 C.3       1 <0>         0.0286
      5 H2         -0.0471   -0.3336   -2.1832 H         1 <0>         0.1368
      6 C4          1.8757    0.2680   -1.5223 C.3       1 <0>        -0.0946
      7 C5          2.6291    0.4612   -0.2339 C.ar      1 <0>        -0.1122
      8 C6          3.9306    0.9446   -0.3149 C.ar      1 <0>        -0.0943
      9 C7          4.6722    1.1594    0.8266 C.ar      1 <0>        -0.1367
     10 C8          4.1174    0.8937    2.0704 C.ar      1 <0>         0.1249
     11 C9          2.8234    0.4066    2.1516 C.ar      1 <0>        -0.1399
     12 C10         2.0851    0.1837    0.9993 C.ar      1 <0>        -0.0588
     13 C11         0.6938   -0.3887    1.1516 C.3       1 <0>        -0.0221
     14 C12         0.8320   -1.9218    1.1810 C.3       1 <0>        -0.1320
     15 C13         1.5913   -2.3444   -0.0815 C.3       1 <0>        -0.0206
     16 N1          0.8425   -1.9546   -1.2597 N.4       1 <0>        -0.3638
     17 C14         1.5793   -2.3654   -2.4623 C.3       1 <0>         0.0196
     18 C15         1.7041   -3.8901   -2.4880 C.3       1 <0>        -0.2098
     19 C16         3.1111   -4.4853   -2.4046 C.3       1 <0>        -0.1679
     20 C17         2.3402   -4.5260   -3.7256 C.3       1 <0>        -0.1485
     21 C18         0.0309    0.1321    2.4285 C.3       1 <0>        -0.1463
     22 O1          4.8391    1.1098    3.2015 O.3       1 <0>        -0.4966
     23 H3          0.6775    1.9687   -0.2197 H         1 <0>         0.0719
     24 H4         -0.8887    1.7587   -1.0389 H         1 <0>         0.0687
     25 H5         -0.8191    1.8548    0.7371 H         1 <0>         0.0800
     26 H6          2.5128   -0.2644   -2.2285 H         1 <0>         0.0953
     27 H7          1.6285    1.2449   -1.9378 H         1 <0>         0.1211
     28 H8          4.3644    1.1534   -1.2817 H         1 <0>         0.1314
     29 H9          5.6828    1.5332    0.7533 H         1 <0>         0.1366
     30 H10         2.3872    0.1992    3.1176 H         1 <0>         0.1377
     31 H11         1.3897   -2.2257    2.0668 H         1 <0>         0.1134
     32 H12        -0.1561   -2.3819    1.1895 H         1 <0>         0.0943
     33 H13         2.5640   -1.8529   -0.1017 H         1 <0>         0.1304
     34 H14         1.7315   -3.4254   -0.0760 H         1 <0>         0.1339
     35 H15         1.0426   -2.0297   -3.3496 H         1 <0>         0.1343
     36 H16         2.5740   -1.9196   -2.4489 H         1 <0>         0.1310
     37 H17         0.8965   -4.4361   -2.0003 H         1 <0>         0.1248
     38 H18         3.9479   -3.7907   -2.3314 H         1 <0>         0.1051
     39 H19         3.2294   -5.4231   -1.8618 H         1 <0>         0.1100
     40 H20         1.9515   -5.4907   -4.0519 H         1 <0>         0.1124
     41 H21         2.6699   -3.8582   -4.5215 H         1 <0>         0.1073
     42 H22        -0.9608   -0.3092    2.5289 H         1 <0>         0.0701
     43 H23         0.6390   -0.1408    3.2909 H         1 <0>         0.0713
     44 H24        -0.0579    1.2171    2.3752 H         1 <0>         0.0737
     45 H25         4.7394    1.9991    3.5678 H         1 <0>         0.4007
     46 H26        -0.0415   -2.4404   -1.2356 H         1 <0>         0.4206
@<TRIPOS>BOND
     1    1    2 1
     2    1   23 1
     3    1   24 1
     4    1   25 1
     5    2    3 1
     6    2   13 1
     7    2    4 1
     8    4    5 1
     9    4   16 1
    10    4    6 1
    11    6    7 1
    12    6   26 1
    13    6   27 1
    14    7   12 ar
    15    7    8 ar
    16    8    9 ar
    17    8   28 1
    18    9   10 ar
    19    9   29 1
    20   10   11 ar
    21   10   22 1
    22   11   12 ar
    23   11   30 1
    24   12   13 1
    25   13   14 1
    26   13   21 1
    27   14   15 1
    28   14   31 1
    29   14   32 1
    30   15   16 1
    31   15   33 1
    32   15   34 1
    33   16   17 1
    34   16   46 1
    35   17   18 1
    36   17   35 1
    37   17   36 1
    38   18   20 1
    39   18   19 1
    40   18   37 1
    41   19   20 1
    42   19   38 1
    43   19   39 1
    44   20   40 1
    45   20   41 1
    46   21   42 1
    47   21   43 1
    48   21   44 1
    49   22   45 1
@<TRIPOS>MOLECULE
ZINC02015833
   49    51     0     0     0
SMALL
USER_CHARGES
dimethyl-(3-methylbut-2-enyl)BLAHol
@<TRIPOS>ATOM
      1 C1          0.7871    0.1681   -2.3664 C.3       1 <0>        -0.1543
      2 C2          1.0290   -0.5044   -1.0136 C.3       1 <0>        -0.0895
      3 H1          0.9448   -1.5859   -1.1195 H         1 <0>         0.1004
      4 C3          0.0021   -0.0041    0.0020 C.3       1 <0>         0.0336
      5 H2         -0.9756   -0.3489   -0.3348 H         1 <0>         0.1315
      6 C4         -0.0185    1.5145    0.0104 C.3       1 <0>        -0.0878
      7 C5          1.3688    2.0979    0.0003 C.ar      1 <0>        -0.1107
      8 C6          1.4961    3.4605    0.2480 C.ar      1 <0>        -0.0947
      9 C7          2.7354    4.0629    0.2406 C.ar      1 <0>        -0.1368
     10 C8          3.8693    3.3057   -0.0171 C.ar      1 <0>         0.1241
     11 C9          3.7439    1.9476   -0.2579 C.ar      1 <0>        -0.1402
     12 C10         2.4949    1.3454   -0.2437 C.ar      1 <0>        -0.0591
     13 C11         2.4261   -0.1424   -0.4986 C.3       1 <0>        -0.0216
     14 C12         2.6280   -0.8493    0.8536 C.3       1 <0>        -0.1333
     15 C13         1.5895   -0.2893    1.8323 C.3       1 <0>        -0.0057
     16 C14        -0.7814   -0.1176    2.2799 C.3       1 <0>         0.0302
     17 C15        -0.6498   -0.9004    3.5609 C.2       1 <0>        -0.2601
     18 C16        -0.5056   -0.2716    4.7010 C.2       1 <0>        -0.0349
     19 C17        -0.4712    1.2347    4.7315 C.3       1 <0>        -0.1490
     20 C18        -0.3740   -1.0544    5.9819 C.3       1 <0>        -0.1387
     21 C19         3.5063   -0.5678   -1.4950 C.3       1 <0>        -0.1465
     22 O1          5.0948    3.8930   -0.0336 O.3       1 <0>        -0.4968
     23 H3          0.8836    1.2483   -2.2576 H         1 <0>         0.0720
     24 H4          1.5214   -0.1915   -3.0873 H         1 <0>         0.0794
     25 H5         -0.2159   -0.0736   -2.7181 H         1 <0>         0.0685
     26 H6         -0.5573    1.8664   -0.8694 H         1 <0>         0.1214
     27 H7         -0.5404    1.8569    0.9040 H         1 <0>         0.0930
     28 H8          0.6150    4.0523    0.4477 H         1 <0>         0.1314
     29 H9          2.8240    5.1215    0.4351 H         1 <0>         0.1363
     30 H10         4.6239    1.3543   -0.4581 H         1 <0>         0.1374
     31 H11         3.6325   -0.6513    1.2276 H         1 <0>         0.1128
     32 H12         2.4822   -1.9229    0.7346 H         1 <0>         0.0938
     33 H13         1.7273    0.7874    1.9314 H         1 <0>         0.1312
     34 H14         1.7154   -0.7629    2.8059 H         1 <0>         0.1266
     35 H15        -0.6455    0.9439    2.4872 H         1 <0>         0.1326
     36 H16        -1.7715   -0.2808    1.8543 H         1 <0>         0.1321
     37 H17        -0.6745   -1.9799    3.5390 H         1 <0>         0.1342
     38 H18        -1.4054    1.6277    4.3304 H         1 <0>         0.0808
     39 H19        -0.3457    1.5745    5.7596 H         1 <0>         0.0815
     40 H20         0.3625    1.5915    4.1267 H         1 <0>         0.0749
     41 H21         0.6784   -1.2641    6.1732 H         1 <0>         0.0847
     42 H22        -0.7844   -0.4724    6.8072 H         1 <0>         0.0790
     43 H23        -0.9210   -1.9929    5.8920 H         1 <0>         0.0755
     44 H24         3.4546   -1.6456   -1.6488 H         1 <0>         0.0698
     45 H25         3.3461   -0.0572   -2.4446 H         1 <0>         0.0731
     46 H26         4.4879   -0.3036   -1.1015 H         1 <0>         0.0712
     47 H27         5.3605    4.2244   -0.9024 H         1 <0>         0.4006
     48 N1          0.2298   -0.6075    1.3328 N.4       1 <0>        -0.3809
     49 H28         0.1410   -1.6271    1.2509 H         1 <0>         0.4267
@<TRIPOS>BOND
     1    1    2 1
     2    1   23 1
     3    1   24 1
     4    1   25 1
     5    2    3 1
     6    2   13 1
     7    2    4 1
     8    4    5 1
     9    4    6 1
    10    4   48 1
    11    6    7 1
    12    6   26 1
    13    6   27 1
    14    7   12 ar
    15    7    8 ar
    16    8    9 ar
    17    8   28 1
    18    9   10 ar
    19    9   29 1
    20   10   11 ar
    21   10   22 1
    22   11   12 ar
    23   11   30 1
    24   12   13 1
    25   13   14 1
    26   13   21 1
    27   14   15 1
    28   14   31 1
    29   14   32 1
    30   15   33 1
    31   15   34 1
    32   15   48 1
    33   16   17 1
    34   16   35 1
    35   16   36 1
    36   16   48 1
    37   17   18 2
    38   17   37 1
    39   18   19 1
    40   18   20 1
    41   19   38 1
    42   19   39 1
    43   19   40 1
    44   20   41 1
    45   20   42 1
    46   20   43 1
    47   21   44 1
    48   21   45 1
    49   21   46 1
    50   22   47 1
    51   48   49 1
@<TRIPOS>MOLECULE
ZINC07996680
   43    45     0     0     0
SMALL
USER_CHARGES

@<TRIPOS>ATOM
      1 C1         -0.0103    1.5223    0.1872 C.3       1 <0>        -0.1551
      2 C2          0.0058   -0.0045    0.0900 C.3       1 <0>        -0.0890
      3 H1          0.4977   -0.3090   -0.8338 H         1 <0>         0.1014
      4 C3         -1.4258   -0.5377    0.1119 C.3       1 <0>         0.0284
      5 H2         -1.9224   -0.1869   -0.7928 H         1 <0>         0.1372
      6 C4         -2.1759    0.0364    1.3005 C.3       1 <0>        -0.0946
      7 C5         -1.3488    0.0124    2.5576 C.ar      1 <0>        -0.1124
      8 C6         -1.9966    0.2742    3.7601 C.ar      1 <0>        -0.0946
      9 C7         -1.2967    0.2838    4.9471 C.ar      1 <0>        -0.1368
     10 C8          0.0678    0.0318    4.9460 C.ar      1 <0>         0.1247
     11 C9          0.7124   -0.2355    3.7496 C.ar      1 <0>        -0.1398
     12 C10         0.0016   -0.2523    2.5593 C.ar      1 <0>        -0.0592
     13 C11         0.7539   -0.5914    1.2921 C.3       1 <0>        -0.0222
     14 C12         0.7397   -2.1243    1.1496 C.3       1 <0>        -0.1312
     15 C13        -0.7221   -2.5823    1.1989 C.3       1 <0>        -0.0200
     16 N1         -1.4596   -1.9932    0.0988 N.4       1 <0>        -0.3644
     17 C14        -2.8578   -2.4399    0.1563 C.3       1 <0>         0.0215
     18 C15        -2.9149   -3.9357   -0.0177 C.2       1 <0>        -0.2330
     19 C16        -3.5151   -4.6771    0.8802 C.2       1 <0>        -0.1062
     20 C17         2.1852   -0.0541    1.3520 C.3       1 <0>        -0.1465
     21 O1          0.7672    0.0476    6.1111 O.3       1 <0>        -0.4947
     22 H3          1.0130    1.8976    0.1823 H         1 <0>         0.0802
     23 H4         -0.5526    1.9348   -0.6636 H         1 <0>         0.0689
     24 H5         -0.5029    1.8224    1.1121 H         1 <0>         0.0721
     25 H6         -2.4542    1.0668    1.0794 H         1 <0>         0.1214
     26 H7         -3.0826   -0.5467    1.4621 H         1 <0>         0.0954
     27 H8         -3.0583    0.4722    3.7636 H         1 <0>         0.1316
     28 H9         -1.8089    0.4873    5.8759 H         1 <0>         0.1367
     29 H10         1.7745   -0.4311    3.7438 H         1 <0>         0.1379
     30 H11         1.1850   -2.4111    0.1969 H         1 <0>         0.0946
     31 H12         1.2967   -2.5770    1.9700 H         1 <0>         0.1126
     32 H13        -0.7645   -3.6693    1.1296 H         1 <0>         0.1326
     33 H14        -1.1716   -2.2611    2.1385 H         1 <0>         0.1292
     34 H15        -3.2862   -2.1697    1.1214 H         1 <0>         0.1311
     35 H16        -3.4257   -1.9595   -0.6406 H         1 <0>         0.1375
     36 H17        -2.4610   -4.3965   -0.8825 H         1 <0>         0.1350
     37 H18        -3.9691   -4.2163    1.7451 H         1 <0>         0.1104
     38 H19        -3.5560   -5.7491    0.7556 H         1 <0>         0.1236
     39 H20         2.1621    1.0315    1.4468 H         1 <0>         0.0743
     40 H21         2.6987   -0.4831    2.2124 H         1 <0>         0.0712
     41 H22         2.7145   -0.3279    0.4393 H         1 <0>         0.0701
     42 H23         0.8105   -0.8101    6.5556 H         1 <0>         0.3987
     43 H24        -1.0454   -2.3239   -0.7598 H         1 <0>         0.4213
@<TRIPOS>BOND
     1    1    2 1
     2    1   22 1
     3    1   23 1
     4    1   24 1
     5    2    3 1
     6    2   13 1
     7    2    4 1
     8    4    5 1
     9    4   16 1
    10    4    6 1
    11    6    7 1
    12    6   25 1
    13    6   26 1
    14    7   12 ar
    15    7    8 ar
    16    8    9 ar
    17    8   27 1
    18    9   10 ar
    19    9   28 1
    20   10   11 ar
    21   10   21 1
    22   11   12 ar
    23   11   29 1
    24   12   13 1
    25   13   14 1
    26   13   20 1
    27   14   15 1
    28   14   30 1
    29   14   31 1
    30   15   16 1
    31   15   32 1
    32   15   33 1
    33   16   17 1
    34   16   43 1
    35   17   18 1
    36   17   34 1
    37   17   35 1
    38   18   19 2
    39   18   36 1
    40   19   37 1
    41   19   38 1
    42   20   39 1
    43   20   40 1
    44   20   41 1
    45   21   42 1
@<TRIPOS>MOLECULE
ZINC00895124
   18    17     0     0     0
SMALL
USER_CHARGES

@<TRIPOS>ATOM
      1 C1         -0.0187    1.5258    0.0104 C.3       1 <0>        -0.1010
      2 C2          0.0021   -0.0041    0.0020 C.3       1 <0>        -0.1959
      3 C3         -1.4117   -0.5257    0.0127 C.2       1 <0>         0.4893
      4 O1         -2.3491    0.2539    0.0259 O.co2     1 <0>        -0.6871
      5 O2         -1.6182   -1.7273    0.0082 O.co2     1 <0>        -0.7016
      6 C4          1.4167    2.0553   -0.0004 C.3       1 <0>        -0.0510
      7 H1          1.9696    1.6236    0.8338 H         1 <0>         0.1263
      8 C5          1.3993    3.5565    0.1316 C.2       1 <0>         0.4931
      9 O3          1.4342    4.0717    1.2361 O.co2     1 <0>        -0.6465
     10 O4          1.3504    4.2557   -0.8660 O.co2     1 <0>        -0.6784
     11 N1          2.0667    1.6824   -1.2639 N.4       1 <0>        -0.6121
     12 H2         -0.5459    1.8868   -0.8726 H         1 <0>         0.0805
     13 H3         -0.5289    1.8773    0.9072 H         1 <0>         0.1026
     14 H4          0.5123   -0.3556   -0.8948 H         1 <0>         0.0475
     15 H5          0.5293   -0.3651    0.8851 H         1 <0>         0.0673
     16 H6          3.0133    2.0317   -1.2711 H         1 <0>         0.4211
     17 H7          2.0783    0.6774   -1.3524 H         1 <0>         0.4148
     18 H8          1.5549    2.0821   -2.0362 H         1 <0>         0.4310
@<TRIPOS>BOND
     1    1    2 1
     2    1    6 1
     3    1   12 1
     4    1   13 1
     5    2    3 1
     6    2   14 1
     7    2   15 1
     8    3    4 2
     9    3    5 1
    10    6    7 1
    11    6    8 1
    12    6   11 1
    13    8    9 2
    14    8   10 1
    15   11   16 1
    16   11   17 1
    17   11   18 1
@<TRIPOS>MOLECULE
ZINC12402582
   35    37     0     0     0
SMALL
USER_CHARGES

@<TRIPOS>ATOM
      1 C1         -0.0187    1.5258    0.0104 C.3       1 <0>        -0.1484
      2 C2          0.0021   -0.0041    0.0020 C.3       1 <0>        -0.0478
      3 C3          0.7182   -0.4975   -1.2568 C.3       1 <0>        -0.1145
      4 C4          0.7390   -2.0273   -1.2652 C.3       1 <0>        -0.0804
      5 C5          1.4790   -2.5342   -0.0257 C.3       1 <0>        -0.1145
      6 C6          0.7628   -2.0407    1.2331 C.3       1 <0>        -0.0478
      7 C7          0.7421   -0.5109    1.2415 C.3       1 <0>        -0.1087
      8 C8         -0.6726   -2.5703    1.2440 C.3       1 <0>        -0.1228
      9 C9         -1.4126   -2.0635    0.0045 C.3       1 <0>         0.0600
     10 C10        -0.6964   -2.5569   -1.2543 C.3       1 <0>        -0.1267
     11 C11        -1.4333   -0.5336    0.0129 C.3       1 <0>        -0.1227
     12 N1         -2.7907   -2.5720    0.0149 N.4       1 <0>        -0.6349
     13 C12         1.5028   -2.5476    2.4727 C.3       1 <0>        -0.1484
     14 H1          1.0039    1.9031    0.0027 H         1 <0>         0.0682
     15 H2         -0.5459    1.8868   -0.8726 H         1 <0>         0.0615
     16 H3         -0.5289    1.8773    0.9072 H         1 <0>         0.0614
     17 H4          0.1910   -0.1364   -2.1398 H         1 <0>         0.0716
     18 H5          1.7408   -0.1202   -1.2645 H         1 <0>         0.0804
     19 H6          1.2492   -2.3788   -2.1620 H         1 <0>         0.0938
     20 H7          1.4937   -3.6240   -0.0317 H         1 <0>         0.0716
     21 H8          2.5015   -2.1569   -0.0334 H         1 <0>         0.0804
     22 H9          1.7647   -0.1336    1.2338 H         1 <0>         0.0803
     23 H10         0.2319   -0.1594    2.1383 H         1 <0>         0.0715
     24 H11        -0.6578   -3.6602    1.2380 H         1 <0>         0.0877
     25 H12        -1.1828   -2.2188    2.1408 H         1 <0>         0.0875
     26 H13        -1.2236   -2.1958   -2.1374 H         1 <0>         0.0874
     27 H14        -0.6816   -3.6468   -1.2603 H         1 <0>         0.0874
     28 H15        -1.9435   -0.1821    0.9097 H         1 <0>         0.0875
     29 H16        -1.9605   -0.1726   -0.8702 H         1 <0>         0.0877
     30 H17        -3.2630   -2.2466    0.8450 H         1 <0>         0.4336
     31 H18        -3.2787   -2.2377   -0.8025 H         1 <0>         0.4337
     32 H19         2.5254   -2.1703    2.4649 H         1 <0>         0.0682
     33 H20         0.9926   -2.1961    3.3695 H         1 <0>         0.0614
     34 H21         1.5176   -3.6375    2.4667 H         1 <0>         0.0615
     35 H22        -2.7770   -3.5808    0.0093 H         1 <0>         0.4337
@<TRIPOS>BOND
     1    1    2 1
     2    1   14 1
     3    1   15 1
     4    1   16 1
     5    2    7 1
     6    2   11 1
     7    2    3 1
     8    3    4 1
     9    3   17 1
    10    3   18 1
    11    4   10 1
    12    4    5 1
    13    4   19 1
    14    5    6 1
    15    5   20 1
    16    5   21 1
    17    6    7 1
    18    6    8 1
    19    6   13 1
    20    7   22 1
    21    7   23 1
    22    8    9 1
    23    8   24 1
    24    8   25 1
    25    9   10 1
    26    9   11 1
    27    9   12 1
    28   10   26 1
    29   10   27 1
    30   11   28 1
    31   11   29 1
    32   12   30 1
    33   12   31 1
    34   12   35 1
    35   13   32 1
    36   13   33 1
    37   13   34 1
@<TRIPOS>MOLECULE
ZINC01687741
   39    41     0     0     0
SMALL
USER_CHARGES
trimethylBLAHol
@<TRIPOS>ATOM
      1 C1          3.1952   -2.0055   -2.0328 C.3       1 <0>        -0.1555
      2 C2          3.5913   -2.0969   -0.5578 C.3       1 <0>        -0.0902
      3 H1          4.5361   -2.6321   -0.4627 H         1 <0>         0.1006
      4 C3          2.5021   -2.8305    0.2241 C.3       1 <0>         0.0345
      5 H2          2.4710   -3.8599   -0.1329 H         1 <0>         0.1314
      6 C4          1.1495   -2.1993   -0.0572 C.3       1 <0>        -0.0887
      7 C5          1.2083   -0.6961   -0.0124 C.ar      1 <0>        -0.1127
      8 C6          0.0021   -0.0041    0.0020 C.ar      1 <0>        -0.0941
      9 C7         -0.0166    1.3739    0.0096 C.ar      1 <0>        -0.1367
     10 C8          1.1776    2.0805    0.0020 C.ar      1 <0>         0.1246
     11 C9          2.3792    1.3919   -0.0054 C.ar      1 <0>        -0.1402
     12 C10         2.3923    0.0053   -0.0044 C.ar      1 <0>        -0.0603
     13 C11         3.7343   -0.6879    0.0273 C.3       1 <0>        -0.0217
     14 C12         4.1438   -0.8298    1.5040 C.3       1 <0>        -0.1336
     15 C13         3.0063   -1.5493    2.2374 C.3       1 <0>        -0.0083
     16 C14         1.7814   -3.6302    2.3823 C.3       1 <0>        -0.0491
     17 C15         4.7732    0.1164   -0.7566 C.3       1 <0>        -0.1471
     18 O1          1.1681    3.4395    0.0022 O.3       1 <0>        -0.4948
     19 H3          3.9640   -1.4624   -2.5825 H         1 <0>         0.0803
     20 H4          3.0946   -3.0095   -2.4449 H         1 <0>         0.0688
     21 H5          2.2448   -1.4793   -2.1218 H         1 <0>         0.0721
     22 H6          0.4339   -2.5483    0.6873 H         1 <0>         0.0954
     23 H7          0.8113   -2.5115   -1.0452 H         1 <0>         0.1220
     24 H8         -0.9288   -0.5517    0.0077 H         1 <0>         0.1319
     25 H9         -0.9584    1.9024    0.0169 H         1 <0>         0.1369
     26 H10         3.3110    1.9378   -0.0116 H         1 <0>         0.1377
     27 H11         5.0600   -1.4155    1.5786 H         1 <0>         0.0946
     28 H12         4.2988    0.1568    1.9407 H         1 <0>         0.1134
     29 H13         2.0887   -0.9688    2.1430 H         1 <0>         0.1336
     30 H14         3.2629   -1.6542    3.2916 H         1 <0>         0.1271
     31 H15         1.7370   -4.6503    2.0008 H         1 <0>         0.1232
     32 H16         2.0337   -3.6494    3.4425 H         1 <0>         0.1234
     33 H17         0.8124   -3.1496    2.2481 H         1 <0>         0.1250
     34 H18         4.8763    1.1067   -0.3130 H         1 <0>         0.0710
     35 H19         5.7331   -0.3989   -0.7222 H         1 <0>         0.0699
     36 H20         4.4504    0.2144   -1.7931 H         1 <0>         0.0742
     37 H21         1.1710    3.8327    0.8856 H         1 <0>         0.3989
     38 N1          2.8383   -2.9058    1.6622 N.4       1 <0>        -0.3871
     39 H22         3.7219   -3.4182    1.7669 H         1 <0>         0.4299
@<TRIPOS>BOND
     1    1    2 1
     2    1   19 1
     3    1   20 1
     4    1   21 1
     5    2    3 1
     6    2   13 1
     7    2    4 1
     8    4    5 1
     9    4    6 1
    10    4   38 1
    11    6    7 1
    12    6   22 1
    13    6   23 1
    14    7   12 ar
    15    7    8 ar
    16    8    9 ar
    17    8   24 1
    18    9   10 ar
    19    9   25 1
    20   10   11 ar
    21   10   18 1
    22   11   12 ar
    23   11   26 1
    24   12   13 1
    25   13   14 1
    26   13   17 1
    27   14   15 1
    28   14   27 1
    29   14   28 1
    30   15   29 1
    31   15   30 1
    32   15   38 1
    33   16   31 1
    34   16   32 1
    35   16   33 1
    36   16   38 1
    37   17   34 1
    38   17   35 1
    39   17   36 1
    40   18   37 1
    41   38   39 1
