@<TRIPOS>MOLECULE
ZINC01529581
   30    29     0     0     0
SMALL
USER_CHARGES

@<TRIPOS>ATOM
      1 C1         -0.0187    1.5258    0.0104 C.3       1 <0>        -0.1325
      2 C2          0.0021   -0.0041    0.0020 C.3       1 <0>        -0.1325
      3 C3         -1.4333   -0.5336    0.0129 C.3       1 <0>         0.0947
      4 N1         -1.4134   -1.9985    0.0048 N.pl3     1 <0>        -0.7005
      5 C4         -2.5886   -2.6985    0.0123 C.cat     1 <0>         0.7445
      6 N2         -2.5706   -4.0303    0.0050 N.pl3     1 <0>        -0.7900
      7 N3         -3.7510   -2.0483    0.0269 N.pl3     1 <0>        -0.7917
      8 C5          1.4167    2.0553   -0.0004 C.3       1 <0>         0.0947
      9 N4          1.3968    3.5202    0.0076 N.pl3     1 <0>        -0.7005
     10 C6          2.5720    4.2202    0.0002 C.cat     1 <0>         0.7445
     11 N5          2.5540    5.5520    0.0075 N.pl3     1 <0>        -0.7900
     12 N6          3.7344    3.5700   -0.0144 N.pl3     1 <0>        -0.7917
     13 H1         -0.5459    1.8868   -0.8726 H         1 <0>         0.0904
     14 H2         -0.5289    1.8773    0.9072 H         1 <0>         0.0904
     15 H3          0.5123   -0.3556   -0.8948 H         1 <0>         0.0904
     16 H4          0.5293   -0.3651    0.8851 H         1 <0>         0.0904
     17 H5         -1.9435   -0.1821    0.9097 H         1 <0>         0.0945
     18 H6         -1.9605   -0.1726   -0.8702 H         1 <0>         0.0945
     19 H7         -0.5669   -2.4720   -0.0058 H         1 <0>         0.4367
     20 H8         -1.7240   -4.5038   -0.0057 H         1 <0>         0.4424
     21 H9         -3.7641   -1.0784    0.0322 H         1 <0>         0.4386
     22 H10        -4.5843   -2.5447    0.0322 H         1 <0>         0.4438
     23 H11         1.9439    1.6943    0.8826 H         1 <0>         0.0945
     24 H12         1.9269    1.7038   -0.8972 H         1 <0>         0.0945
     25 H13         0.5503    3.9937    0.0183 H         1 <0>         0.4367
     26 H14         1.7074    6.0255    0.0181 H         1 <0>         0.4424
     27 H15         3.7475    2.6001   -0.0198 H         1 <0>         0.4386
     28 H16         4.5677    4.0664   -0.0197 H         1 <0>         0.4438
     29 H17        -3.4039   -4.5267    0.0102 H         1 <0>         0.4443
     30 H18         3.3873    6.0484    0.0022 H         1 <0>         0.4443
@<TRIPOS>BOND
     1    1    2 1
     2    1    8 1
     3    1   13 1
     4    1   14 1
     5    2    3 1
     6    2   15 1
     7    2   16 1
     8    3    4 1
     9    3   17 1
    10    3   18 1
    11    4    5 1
    12    4   19 1
    13    5    6 2
    14    5    7 1
    15    6   20 1
    16    6   29 1
    17    7   21 1
    18    7   22 1
    19    8    9 1
    20    8   23 1
    21    8   24 1
    22    9   10 1
    23    9   25 1
    24   10   11 2
    25   10   12 1
    26   11   26 1
    27   11   30 1
    28   12   27 1
    29   12   28 1
@<TRIPOS>MOLECULE
ZINC27097319
   34    34     0     0     0
SMALL
USER_CHARGES

@<TRIPOS>ATOM
      1 C1         -0.0167    1.3781    0.0096 C.ar      1 <0>        -0.1123
      2 C2          1.1709    2.0855    0.0021 C.ar      1 <0>        -0.0645
      3 C3          2.3773    1.4107   -0.0130 C.ar      1 <0>        -0.1335
      4 C4          2.3960    0.0285   -0.0201 C.ar      1 <0>        -0.0670
      5 C5          1.2084   -0.6789   -0.0117 C.ar      1 <0>        -0.1335
      6 C6          0.0021   -0.0041    0.0020 C.ar      1 <0>        -0.0644
      7 C7          1.2289   -2.1857   -0.0199 C.3       1 <0>         0.1361
      8 N1          1.2497   -2.6814    1.3586 N.pl3     1 <0>        -0.6796
      9 C8          1.2700   -3.9957    1.5954 C.cat     1 <0>         0.7415
     10 N2          1.2714   -4.8696    0.5620 N.pl3     1 <0>        -0.7997
     11 N3          1.2893   -4.4536    2.8689 N.pl3     1 <0>        -0.8016
     12 C9          3.6720    2.1819   -0.0222 C.3       1 <0>         0.1361
     13 N4          4.1052    2.4254    1.3559 N.pl3     1 <0>        -0.6796
     14 C10         5.2358    3.0962    1.5919 C.cat     1 <0>         0.7415
     15 N5          5.6360    3.3211    2.8651 N.pl3     1 <0>        -0.8016
     16 N6          5.9812    3.5511    0.5579 N.pl3     1 <0>        -0.7997
     17 H1         -0.9591    1.9053    0.0259 H         1 <0>         0.1437
     18 H2          1.1563    3.1654    0.0076 H         1 <0>         0.1382
     19 H3          3.3385   -0.4987   -0.0326 H         1 <0>         0.1332
     20 H4         -0.9258   -0.5567    0.0082 H         1 <0>         0.1382
     21 H5          0.3387   -2.5584   -0.5266 H         1 <0>         0.1084
     22 H6          2.1184   -2.5342   -0.5448 H         1 <0>         0.1060
     23 H7          1.2576   -4.5414   -0.3507 H         1 <0>         0.4390
     24 H8          1.2861   -5.8241    0.7340 H         1 <0>         0.4428
     25 H9          1.2883   -3.8272    3.6095 H         1 <0>         0.4395
     26 H10         1.3040   -5.4081    3.0409 H         1 <0>         0.4430
     27 H11         4.4344    1.6056   -0.5463 H         1 <0>         0.1060
     28 H12         3.5237    3.1349   -0.5302 H         1 <0>         0.1084
     29 H13         3.5710    2.0994    2.0970 H         1 <0>         0.4356
     30 H14         5.1018    2.9951    3.6062 H         1 <0>         0.4395
     31 H15         5.6943    3.3899   -0.3546 H         1 <0>         0.4390
     32 H16         6.8022    4.0383    0.7293 H         1 <0>         0.4428
     33 H17         1.2488   -2.0550    2.0992 H         1 <0>         0.4356
     34 H18         6.4571    3.8083    3.0365 H         1 <0>         0.4430
@<TRIPOS>BOND
     1    1    6 ar
     2    1    2 ar
     3    1   17 1
     4    2    3 ar
     5    2   18 1
     6    3    4 ar
     7    3   12 1
     8    4    5 ar
     9    4   19 1
    10    5    6 ar
    11    5    7 1
    12    6   20 1
    13    7    8 1
    14    7   21 1
    15    7   22 1
    16    8    9 2
    17    8   33 1
    18    9   10 1
    19    9   11 1
    20   10   23 1
    21   10   24 1
    22   11   25 1
    23   11   26 1
    24   12   13 1
    25   12   27 1
    26   12   28 1
    27   13   14 1
    28   13   29 1
    29   14   15 2
    30   14   16 1
    31   15   30 1
    32   15   34 1
    33   16   31 1
    34   16   32 1
@<TRIPOS>MOLECULE
ZINC00112064
   33    33     0     0     0
SMALL
USER_CHARGES
1-[[6-(guanidinomethyl)-2-pyridyl]methyl]guanidine
@<TRIPOS>ATOM
      1 C1          2.7597   -0.7816    0.0148 C.ar      1 <0>        -0.0646
      2 C2          1.6153   -1.2977   -0.5741 C.ar      1 <0>        -0.1185
      3 C3          0.4466   -0.5612   -0.5338 C.ar      1 <0>         0.0879
      4 N1          0.4123    0.6179    0.0556 N.ar      1 <0>        -0.4476
      5 C4          1.4809    1.1396    0.6257 C.ar      1 <0>         0.0879
      6 C5          2.6849    0.4613    0.6245 C.ar      1 <0>        -0.1186
      7 C6          1.3880    2.4913    1.2855 C.3       1 <0>         0.1548
      8 N2          1.5811    3.5396    0.2805 N.pl3     1 <0>        -0.6975
      9 C7          1.5384    4.8630    0.6507 C.cat     1 <0>         0.7448
     10 N3          1.3146    5.2026    1.9639 N.pl3     1 <0>        -0.8028
     11 C8         -0.8031   -1.1122   -1.1705 C.3       1 <0>         0.1549
     12 N4         -1.6078   -1.7961   -0.1550 N.pl3     1 <0>        -0.6975
     13 C9         -2.8015   -2.3824   -0.5039 C.cat     1 <0>         0.7448
     14 N5         -3.2401   -2.3267   -1.8057 N.pl3     1 <0>        -0.8029
     15 H1          3.6873   -1.3346   -0.0015 H         1 <0>         0.1569
     16 H2          1.6372   -2.2628   -1.0582 H         1 <0>         0.1519
     17 H3          3.5567    0.8940    1.0928 H         1 <0>         0.1519
     18 H4          0.4061    2.6048    1.7448 H         1 <0>         0.1090
     19 H5          2.1593    2.5756    2.0512 H         1 <0>         0.1109
     20 H6          1.7390    3.3000   -0.6461 H         1 <0>         0.4347
     21 H7          1.6977    6.7574   -0.0805 H         1 <0>         0.4561
     22 H8          1.1868    4.5085    2.6294 H         1 <0>         0.4387
     23 H9          1.2846    6.1364    2.2251 H         1 <0>         0.4420
     24 H10        -1.3813   -0.2955   -1.6026 H         1 <0>         0.1090
     25 H11        -0.5305   -1.8187   -1.9544 H         1 <0>         0.1109
     26 H12        -1.2983   -1.8354    0.7635 H         1 <0>         0.4347
     27 H13        -4.3732   -3.4347    0.2515 H         1 <0>         0.4561
     28 H14        -2.7073   -1.8738   -2.4781 H         1 <0>         0.4387
     29 H15        -4.0823   -2.7403   -2.0519 H         1 <0>         0.4420
     30 N6          1.7204    5.7626   -0.3052 N.pl3     1 <0>        -0.7922
     31 H16         1.8844    5.4583   -1.2721 H         1 <0>         0.4578
     32 N7         -3.4817   -2.9850    0.4605 N.pl3     1 <0>        -0.7921
     33 H17        -3.1115   -2.9993    1.4181 H         1 <0>         0.4578
@<TRIPOS>BOND
     1    1    6 ar
     2    1    2 ar
     3    1   15 1
     4    2    3 ar
     5    2   16 1
     6    3    4 ar
     7    3   11 1
     8    4    5 ar
     9    5    6 ar
    10    5    7 1
    11    6   17 1
    12    7    8 1
    13    7   18 1
    14    7   19 1
    15    8    9 1
    16    8   20 1
    17    9   10 1
    18    9   30 2
    19   10   22 1
    20   10   23 1
    21   11   12 1
    22   11   24 1
    23   11   25 1
    24   12   13 1
    25   12   26 1
    26   13   14 1
    27   13   32 2
    28   14   28 1
    29   14   29 1
    30   21   30 1
    31   27   32 1
    32   30   31 1
    33   32   33 1
@<TRIPOS>MOLECULE
ZINC18118278
   22    23     0     0     0
SMALL
USER_CHARGES

@<TRIPOS>ATOM
      1 C1          0.0496    1.1063    0.6344 C.ar      1 <0>        -0.0815
      2 C2          0.8293    1.9861   -0.1610 C.ar      1 <0>         0.4075
      3 N1          0.4596    3.2355   -0.3488 N.am      1 <0>        -0.4279
      4 C3          1.2172    4.0533   -1.1085 C.2       1 <0>         0.4679
      5 O1          0.8827    5.2069   -1.2858 O.2       1 <0>        -0.1860
      6 C4          2.4726    3.5290   -1.7307 C.2       1 <0>         0.4680
      7 O2          3.1640    4.2540   -2.4164 O.2       1 <0>        -0.1859
      8 N2          2.8311    2.2450   -1.5240 N.am      1 <0>        -0.4280
      9 C5          2.0762    1.4654   -0.7789 C.ar      1 <0>         0.4074
     10 C6          2.4324    0.1113   -0.5464 C.ar      1 <0>        -0.0816
     11 C7          1.6375   -0.6655    0.2237 C.ar      1 <0>         0.1372
     12 C8          0.4549   -0.1716    0.8097 C.ar      1 <0>         0.1371
     13 N3         -0.3677   -1.0785    1.6416 N.pl3     1 <0>        -0.0219
     14 O3         -1.5741   -1.0221    1.5858 O.2       1 <0>        -0.0173
     15 O4          0.1668   -1.8755    2.3769 O.3       1 <0>        -0.0340
     16 N4          2.0208   -2.0759    0.4581 N.pl3     1 <0>        -0.0219
     17 O5          3.1825   -2.3672    0.6234 O.2       1 <0>        -0.0173
     18 O6          1.1722   -2.9366    0.4842 O.3       1 <0>        -0.0339
     19 H1         -0.8595    1.4568    1.1003 H         1 <0>         0.2615
     20 H2          3.3326   -0.2963   -0.9822 H         1 <0>         0.2615
     21 H3         -0.3561    3.5673    0.0580 H         1 <0>         0.4946
     22 H4          3.6434    1.8969   -1.9239 H         1 <0>         0.4946
@<TRIPOS>BOND
     1    1   12 ar
     2    1    2 ar
     3    1   19 1
     4    2    9 ar
     5    2    3 2
     6    3    4 am
     7    3   21 1
     8    4    5 2
     9    4    6 1
    10    6    7 2
    11    6    8 am
    12    8    9 2
    13    8   22 1
    14    9   10 ar
    15   10   11 ar
    16   10   20 1
    17   11   12 ar
    18   11   16 1
    19   12   13 1
    20   13   14 2
    21   13   15 1
    22   16   17 2
    23   16   18 1
@<TRIPOS>MOLECULE
ZINC18118278
   21    22     0     0     0
SMALL
USER_CHARGES

@<TRIPOS>ATOM
      1 C1          0.0417    1.2522    0.5309 C.ar      1 <0>        -0.0473
      2 C2          0.8780    2.0146   -0.2789 C.ar      1 <0>         0.0748
      3 C3          2.0479    1.4409   -0.8068 C.ar      1 <0>         0.2260
      4 C4          2.3544    0.1053   -0.5080 C.ar      1 <0>        -0.0622
      5 C5          1.5202   -0.6244    0.2883 C.ar      1 <0>         0.0219
      6 C6          0.3650   -0.0580    0.8097 C.ar      1 <0>        -0.0602
      7 N1         -0.5259   -0.8673    1.6712 N.pl3     1 <0>         0.0426
      8 O1         -1.7257   -0.7484    1.5809 O.2       1 <0>        -0.1529
      9 O2         -0.0539   -1.6473    2.4653 O.3       1 <0>        -0.1493
     10 N2          1.8502   -2.0336    0.5987 N.pl3     1 <0>         0.0304
     11 O3          2.9984   -2.3560    0.7971 O.2       1 <0>        -0.1355
     12 O4          0.9715   -2.8622    0.6539 O.3       1 <0>        -0.1417
     13 N3          2.8727    2.1624   -1.5937 N.2       1 <0>        -0.5947
     14 C7          2.6068    3.4079   -1.8848 C.2       1 <0>         0.4324
     15 O5          3.4503    4.1124   -2.6771 O.3       1 <0>        -0.5802
     16 C8          1.3904    4.0475   -1.3530 C.2       1 <0>         0.4795
     17 O6          1.1361    5.2074   -1.6209 O.2       1 <0>        -0.4979
     18 N4          0.5617    3.3300   -0.5634 N.am      1 <0>        -0.6270
     19 H1         -0.2442    3.7314   -0.2024 H         1 <0>         0.4104
     20 H2         -0.8563    1.6877    0.9435 H         1 <0>         0.1592
     21 H3          3.2502   -0.3457   -0.9085 H         1 <0>         0.1717
@<TRIPOS>BOND
     1    1    6 ar
     2    1    2 ar
     3    1   20 1
     4    2   18 1
     5    2    3 ar
     6    3    4 ar
     7    3   13 1
     8    4    5 ar
     9    4   21 1
    10    5    6 ar
    11    5   10 1
    12    6    7 1
    13    7    8 2
    14    7    9 1
    15   10   11 2
    16   10   12 1
    17   13   14 2
    18   14   15 1
    19   14   16 1
    20   16   17 2
    21   16   18 am
    22   18   19 1
@<TRIPOS>MOLECULE
ZINC18118278
   22    23     0     0     0
SMALL
USER_CHARGES

@<TRIPOS>ATOM
      1 C1          0.0382    1.2610    0.5152 C.ar      1 <0>        -0.0552
      2 C2          0.8758    2.0183   -0.2964 C.ar      1 <0>         0.1719
      3 C3          2.0393    1.4471   -0.8145 C.ar      1 <0>         0.1720
      4 C4          2.3510    0.1254   -0.5146 C.ar      1 <0>        -0.0553
      5 C5          1.5125   -0.6159    0.2921 C.ar      1 <0>         0.0166
      6 C6          0.3581   -0.0491    0.8060 C.ar      1 <0>         0.0165
      7 N1         -0.5357   -0.8520    1.6707 N.pl3     1 <0>         0.0206
      8 O1         -1.7351   -0.7324    1.5766 O.2       1 <0>        -0.1120
      9 O2         -0.0664   -1.6272    2.4709 O.3       1 <0>        -0.1151
     10 N2          1.8476   -2.0224    0.6091 N.pl3     1 <0>         0.0206
     11 O3          2.9970   -2.3396    0.8090 O.2       1 <0>        -0.1120
     12 O4          0.9720   -2.8539    0.6680 O.3       1 <0>        -0.1151
     13 N3          2.8903    2.1887   -1.6291 N.am      1 <0>        -0.6303
     14 C7          2.5958    3.4709   -1.9250 C.2       1 <0>         0.5137
     15 C8          1.3528    4.0814   -1.3711 C.2       1 <0>         0.5137
     16 N4          0.5461    3.3396   -0.5854 N.am      1 <0>        -0.6303
     17 O5          1.0696    5.2348   -1.6257 O.2       1 <0>        -0.4318
     18 O6          3.3354    4.1221   -2.6351 O.2       1 <0>        -0.4318
     19 H1         -0.8610    1.7001    0.9216 H         1 <0>         0.1865
     20 H2          3.2498   -0.3211   -0.9137 H         1 <0>         0.1866
     21 H3          3.6965    1.7826   -1.9842 H         1 <0>         0.4351
     22 H4         -0.2650    3.7271   -0.2210 H         1 <0>         0.4351
@<TRIPOS>BOND
     1    1    6 ar
     2    1    2 ar
     3    1   19 1
     4    2   16 1
     5    2    3 ar
     6    3    4 ar
     7    3   13 1
     8    4    5 ar
     9    4   20 1
    10    5    6 ar
    11    5   10 1
    12    6    7 1
    13    7    8 2
    14    7    9 1
    15   10   11 2
    16   10   12 1
    17   13   14 am
    18   13   21 1
    19   14   15 1
    20   14   18 2
    21   15   16 am
    22   15   17 2
    23   16   22 1
@<TRIPOS>MOLECULE
ZINC02010759
   38    40     0     0     0
SMALL
USER_CHARGES
3-(1-adamantyl)propan-1-amine
@<TRIPOS>ATOM
      1 C1         -0.0127    1.0858    0.0080 C.3       1 <0>        -0.1116
      2 C2         -0.7288    1.5792    1.2668 C.3       1 <0>        -0.0880
      3 C3         -0.7496    3.1091    1.2752 C.3       1 <0>        -0.1096
      4 C4         -1.4896    3.6159    0.0357 C.3       1 <0>        -0.0880
      5 C5         -0.7734    3.1225   -1.2231 C.3       1 <0>        -0.1116
      6 C6         -0.7527    1.5927   -1.2315 C.3       1 <0>        -0.0878
      7 C7         -2.1881    1.0631   -1.2207 C.3       1 <0>        -0.1028
      8 C8         -2.9042    1.5565    0.0381 C.3       1 <0>        -0.0526
      9 C9         -2.1642    1.0497    1.2777 C.3       1 <0>        -0.1023
     10 C10        -2.9250    3.0863    0.0466 C.3       1 <0>        -0.1023
     11 C11        -4.3396    1.0269    0.0490 C.3       1 <0>        -0.1079
     12 C12        -5.0557    1.5203    1.3078 C.3       1 <0>        -0.1589
     13 C13        -6.4911    0.9907    1.3187 C.3       1 <0>        -0.0060
     14 H1          0.0021   -0.0041    0.0020 H         1 <0>         0.0628
     15 H2          1.0099    1.4631    0.0003 H         1 <0>         0.0653
     16 H3         -0.2017    1.2182    2.1499 H         1 <0>         0.0712
     17 H4         -1.2598    3.4606    2.1720 H         1 <0>         0.0589
     18 H5          0.2730    3.4864    1.2675 H         1 <0>         0.0655
     19 H6         -1.5044    4.7058    0.0417 H         1 <0>         0.0712
     20 H7          0.2491    3.4998   -1.2308 H         1 <0>         0.0653
     21 H8         -1.3006    3.4836   -2.1062 H         1 <0>         0.0628
     22 H9         -0.2425    1.2411   -2.1283 H         1 <0>         0.0734
     23 H10        -2.7153    1.4241   -2.1037 H         1 <0>         0.0639
     24 H11        -2.1733   -0.0268   -1.2266 H         1 <0>         0.0639
     25 H12        -2.6744    1.4012    2.1745 H         1 <0>         0.0580
     26 H13        -2.1494   -0.0402    1.2717 H         1 <0>         0.0632
     27 H14        -3.4522    3.4474   -0.8365 H         1 <0>         0.0632
     28 H15        -3.4352    3.4378    0.9434 H         1 <0>         0.0581
     29 H16        -4.8668    1.3880   -0.8341 H         1 <0>         0.0746
     30 H17        -4.3248   -0.0630    0.0430 H         1 <0>         0.0745
     31 H18        -4.5286    1.1592    2.1909 H         1 <0>         0.0902
     32 H19        -5.0705    2.6102    1.3138 H         1 <0>         0.0906
     33 H20        -7.0183    1.3518    0.4356 H         1 <0>         0.1339
     34 H21        -6.4763   -0.0991    1.3127 H         1 <0>         0.1310
     35 H22        -7.1494    2.4712    2.5889 H         1 <0>         0.4368
     36 H23        -8.1294    1.1279    2.5579 H         1 <0>         0.4399
     37 N1         -7.1643    1.4536    2.5451 N.4       1 <0>        -0.6477
     38 H24        -6.6723    1.0758    3.3633 H         1 <0>         0.4391
@<TRIPOS>BOND
     1    1    6 1
     2    1    2 1
     3    1   14 1
     4    1   15 1
     5    2    9 1
     6    2    3 1
     7    2   16 1
     8    3    4 1
     9    3   17 1
    10    3   18 1
    11    4   10 1
    12    4    5 1
    13    4   19 1
    14    5    6 1
    15    5   20 1
    16    5   21 1
    17    6    7 1
    18    6   22 1
    19    7    8 1
    20    7   23 1
    21    7   24 1
    22    8    9 1
    23    8   10 1
    24    8   11 1
    25    9   25 1
    26    9   26 1
    27   10   27 1
    28   10   28 1
    29   11   12 1
    30   11   29 1
    31   11   30 1
    32   12   13 1
    33   12   31 1
    34   12   32 1
    35   13   33 1
    36   13   34 1
    37   13   37 1
    38   35   37 1
    39   36   37 1
    40   37   38 1
@<TRIPOS>MOLECULE
ZINC13777629
   41    43     0     0     0
SMALL
USER_CHARGES
2-[(3S,5R)-3,5-dimethyl-1-adamantyl]ethanamine
@<TRIPOS>ATOM
      1 C1          2.9174   -0.4882    2.4702 C.3       1 <0>        -0.1477
      2 C2          2.1775    0.0187    1.2307 C.3       1 <0>        -0.0561
      3 C3          0.7421   -0.5109    1.2415 C.3       1 <0>        -0.1062
      4 C4          0.0021   -0.0041    0.0020 C.3       1 <0>        -0.0878
      5 C5         -0.0187    1.5258    0.0104 C.3       1 <0>        -0.1073
      6 C6          1.4167    2.0553   -0.0004 C.3       1 <0>        -0.0558
      7 C7          2.1567    1.5485    1.2391 C.3       1 <0>        -0.1012
      8 C8          2.1328    1.5619   -1.2592 C.3       1 <0>        -0.0966
      9 C9          2.1536    0.0321   -1.2676 C.3       1 <0>        -0.0478
     10 C10         0.7182   -0.4975   -1.2568 C.3       1 <0>        -0.1073
     11 C11         2.8936   -0.4747   -0.0281 C.3       1 <0>        -0.1014
     12 C12         2.8697   -0.4613   -2.5264 C.3       1 <0>        -0.1411
     13 C13         2.8905   -1.9912   -2.5349 C.3       1 <0>        -0.0121
     14 N1          3.5781   -2.4649   -3.7435 N.4       1 <0>        -0.6871
     15 C14         1.3960    3.5852    0.0080 C.3       1 <0>        -0.1480
     16 H1          2.9323   -1.5881    2.4641 H         1 <0>         0.0549
     17 H2          2.4025   -0.1335    3.3752 H         1 <0>         0.0608
     18 H3          3.9494   -0.1075    2.4625 H         1 <0>         0.0567
     19 H4          0.7570   -1.6108    1.2354 H         1 <0>         0.0613
     20 H5          0.2272   -0.1562    2.1465 H         1 <0>         0.0681
     21 H6         -1.0298   -0.3849    0.0098 H         1 <0>         0.0752
     22 H7         -0.5507    1.8901   -0.8808 H         1 <0>         0.0639
     23 H8         -0.5336    1.8806    0.9154 H         1 <0>         0.0677
     24 H9          1.6418    1.9032    2.1441 H         1 <0>         0.0676
     25 H10         3.1887    1.9293    1.2313 H         1 <0>         0.0639
     26 H11         1.6007    1.9263   -2.1503 H         1 <0>         0.0660
     27 H12         3.1648    1.9427   -1.2671 H         1 <0>         0.0660
     28 H13         0.7331   -1.5974   -1.2629 H         1 <0>         0.0598
     29 H14         0.1862   -0.1331   -2.1480 H         1 <0>         0.0669
     30 H15         3.9256   -0.0939   -0.0359 H         1 <0>         0.0670
     31 H16         2.9086   -1.5746   -0.0342 H         1 <0>         0.0600
     32 H17         2.3376   -0.0969   -3.4175 H         1 <0>         0.0871
     33 H18         3.9017   -0.0805   -2.5343 H         1 <0>         0.0869
     34 H19         3.4225   -2.3556   -1.6437 H         1 <0>         0.1304
     35 H20         1.8585   -2.3720   -2.5271 H         1 <0>         0.1305
     36 H21         3.5930   -3.5648   -3.7496 H         1 <0>         0.4587
     37 H22         4.6101   -2.0841   -3.7513 H         1 <0>         0.4551
     38 H23         2.4280    3.9659    0.0002 H         1 <0>         0.0569
     39 H24         0.8811    3.9399    0.9130 H         1 <0>         0.0600
     40 H25         0.8640    3.9496   -0.8832 H         1 <0>         0.0570
     41 H26         3.0461   -2.1005   -4.6346 H         1 <0>         0.4550
@<TRIPOS>BOND
     1    1    2 1
     2    1   16 1
     3    1   17 1
     4    1   18 1
     5    2    7 1
     6    2   11 1
     7    2    3 1
     8    3    4 1
     9    3   19 1
    10    3   20 1
    11    4   10 1
    12    4    5 1
    13    4   21 1
    14    5    6 1
    15    5   22 1
    16    5   23 1
    17    6    7 1
    18    6    8 1
    19    6   15 1
    20    7   24 1
    21    7   25 1
    22    8    9 1
    23    8   26 1
    24    8   27 1
    25    9   10 1
    26    9   11 1
    27    9   12 1
    28   10   28 1
    29   10   29 1
    30   11   30 1
    31   11   31 1
    32   12   13 1
    33   12   32 1
    34   12   33 1
    35   13   14 1
    36   13   34 1
    37   13   35 1
    38   14   36 1
    39   14   37 1
    40   14   41 1
    41   15   38 1
    42   15   39 1
    43   15   40 1
@<TRIPOS>MOLECULE
ZINC22309483
   20    21     0     0     0
SMALL
USER_CHARGES

@<TRIPOS>ATOM
      1 C1         -0.0168    1.3850    0.0097 C.ar      1 <0>        -0.1528
      2 C2          1.1512    2.0954    0.0023 C.ar      1 <0>        -0.0118
      3 C3          2.3717    1.4197   -0.0129 C.ar      1 <0>        -0.1257
      4 C4          2.3981    0.0124   -0.0207 C.ar      1 <0>         0.1990
      5 C5          1.1983   -0.6915   -0.0126 C.ar      1 <0>        -0.1647
      6 C6          0.0021   -0.0041    0.0020 C.ar      1 <0>         0.0293
      7 Cl1        -1.4945   -0.8838    0.0115 Cl        1 <0>        -0.0598
      8 N1          3.6069   -0.6472   -0.0367 N.pl3     1 <0>        -0.5554
      9 C7          4.7958    0.0347   -0.0453 C.2       1 <0>         0.1733
     10 C8          4.8512    1.3901   -0.0386 C.2       1 <0>        -0.1911
     11 C9          3.6501    2.1498   -0.0217 C.2       1 <0>         0.1929
     12 S1          3.6887    3.8613   -0.0124 S.2       1 <0>        -0.6158
     13 C10         6.0597   -0.7324   -0.0619 C.2       1 <0>         0.5220
     14 O1          7.1316   -0.1444   -0.0698 O.co2     1 <0>        -0.6334
     15 O2          6.0329   -1.9547   -0.0678 O.co2     1 <0>        -0.6629
     16 H1         -0.9616    1.9078    0.0260 H         1 <0>         0.1425
     17 H2          1.1292    3.1752    0.0079 H         1 <0>         0.1627
     18 H3          1.2031   -1.7715   -0.0180 H         1 <0>         0.1478
     19 H4          5.8076    1.8918   -0.0458 H         1 <0>         0.1719
     20 H5          3.6172   -1.6171   -0.0416 H         1 <0>         0.4321
@<TRIPOS>BOND
     1    1    6 ar
     2    1    2 ar
     3    1   16 1
     4    2    3 ar
     5    2   17 1
     6    3   11 1
     7    3    4 ar
     8    4    5 ar
     9    4    8 1
    10    5    6 ar
    11    5   18 1
    12    6    7 1
    13    8    9 1
    14    8   20 1
    15    9   10 2
    16    9   13 1
    17   10   11 1
    18   10   19 1
    19   11   12 2
    20   13   14 2
    21   13   15 1
@<TRIPOS>MOLECULE
ZINC22309483
   19    20     0     0     0
SMALL
USER_CHARGES
7-chloro-4-sulfanyl-quinoline-2-carboxylic acid
@<TRIPOS>ATOM
      1 C1         -1.2065    3.4841    0.0323 C.ar      1 <0>        -0.1739
      2 C2         -1.2248    2.1217    0.0309 C.ar      1 <0>        -0.0295
      3 C3         -0.0171    1.4114    0.0098 C.ar      1 <0>        -0.1318
      4 C4          1.2125    2.1171    0.0019 C.ar      1 <0>         0.1472
      5 C5          1.1923    3.5240    0.0096 C.ar      1 <0>        -0.0996
      6 C6          0.0001    4.1826    0.0245 C.ar      1 <0>        -0.0159
      7 Cl1        -0.0172    5.9185    0.0334 Cl        1 <0>        -0.1044
      8 N1          2.3673    1.4490   -0.0132 N.ar      1 <0>        -0.4807
      9 C7          2.4046    0.1284   -0.0202 C.ar      1 <0>         0.1497
     10 C8          1.2355   -0.6379   -0.0131 C.ar      1 <0>        -0.1843
     11 C9          0.0021   -0.0041    0.0020 C.ar      1 <0>         0.1677
     12 S1         -1.4956   -0.9323    0.0107 S.3       1 <0>        -0.9130
     13 C10         3.7183   -0.5575   -0.0363 C.2       1 <0>         0.5063
     14 O1          3.7698   -1.7705   -0.0433 O.co2     1 <0>        -0.6291
     15 O2          4.8549    0.1647   -0.0433 O.co2     1 <0>        -0.7404
     16 H1         -2.1384    4.0299    0.0441 H         1 <0>         0.1190
     17 H2         -2.1658    1.5917    0.0409 H         1 <0>         0.1454
     18 H3          2.1184    4.0794    0.0033 H         1 <0>         0.1328
     19 H4          1.2924   -1.7164   -0.0191 H         1 <0>         0.1342
@<TRIPOS>BOND
     1    1    6 ar
     2    1    2 ar
     3    1   16 1
     4    2    3 ar
     5    2   17 1
     6    3   11 ar
     7    3    4 ar
     8    4    5 ar
     9    4    8 ar
    10    5    6 ar
    11    5   18 1
    12    6    7 1
    13    8    9 ar
    14    9   10 ar
    15    9   13 1
    16   10   11 ar
    17   10   19 1
    18   11   12 1
    19   13   14 2
    20   13   15 1
@<TRIPOS>MOLECULE
ZINC13777644
   41    43     0     0     0
SMALL
USER_CHARGES
(3R,5S)-N-ethyl-3,5-dimethyl-adamantan-1-amine
@<TRIPOS>ATOM
      1 C1          3.6024   -2.3641   -3.7885 C.3       1 <0>        -0.1878
      2 C2          2.8804   -1.9095   -2.5185 C.3       1 <0>        -0.0133
      3 C3          2.1536    0.0321   -1.2676 C.3       1 <0>         0.0638
      4 C4          0.7182   -0.4975   -1.2568 C.3       1 <0>        -0.1252
      5 C5          0.0021   -0.0041    0.0020 C.3       1 <0>        -0.0804
      6 C6         -0.0187    1.5258    0.0104 C.3       1 <0>        -0.1138
      7 C7          1.4167    2.0553   -0.0004 C.3       1 <0>        -0.0472
      8 C8          2.1328    1.5619   -1.2592 C.3       1 <0>        -0.1226
      9 C9          2.1567    1.5485    1.2391 C.3       1 <0>        -0.1080
     10 C10         2.1775    0.0187    1.2307 C.3       1 <0>        -0.0481
     11 C11         0.7421   -0.5109    1.2415 C.3       1 <0>        -0.1136
     12 C12         2.8936   -0.4747   -0.0281 C.3       1 <0>        -0.1209
     13 C13         2.9174   -0.4882    2.4702 C.3       1 <0>        -0.1479
     14 C14         1.3960    3.5852    0.0080 C.3       1 <0>        -0.1481
     15 H1          4.6200   -1.9734   -3.7875 H         1 <0>         0.0799
     16 H2          3.6315   -3.4533   -3.8198 H         1 <0>         0.1060
     17 H3          3.0702   -1.9896   -4.6628 H         1 <0>         0.0799
     18 H4          3.4126   -2.2841   -1.6441 H         1 <0>         0.1304
     19 H5          1.8628   -2.3003   -2.5194 H         1 <0>         0.1306
     20 H6          0.7330   -1.5874   -1.2628 H         1 <0>         0.0862
     21 H7          0.1910   -0.1364   -2.1398 H         1 <0>         0.0858
     22 H8         -1.0205   -0.3814    0.0098 H         1 <0>         0.0929
     23 H9         -0.5459    1.8868   -0.8726 H         1 <0>         0.0712
     24 H10        -0.5289    1.8773    0.9072 H         1 <0>         0.0799
     25 H11         3.1554    1.9392   -1.2670 H         1 <0>         0.0865
     26 H12         1.6057    1.9230   -2.1423 H         1 <0>         0.0867
     27 H13         1.6465    1.9000    2.1359 H         1 <0>         0.0798
     28 H14         3.1793    1.9258    1.2314 H         1 <0>         0.0711
     29 H15         0.2319   -0.1594    2.1383 H         1 <0>         0.0800
     30 H16         0.7568   -1.6008    1.2356 H         1 <0>         0.0705
     31 H17         2.9084   -1.5646   -0.0341 H         1 <0>         0.0865
     32 H18         3.9162   -0.0975   -0.0359 H         1 <0>         0.0858
     33 H19         3.9400   -0.1109    2.4625 H         1 <0>         0.0611
     34 H20         2.4073   -0.1366    3.3670 H         1 <0>         0.0680
     35 H21         2.9322   -1.5780    2.4642 H         1 <0>         0.0609
     36 H22         0.8858    3.9367    0.9048 H         1 <0>         0.0679
     37 H23         2.4186    3.9625    0.0002 H         1 <0>         0.0612
     38 H24         0.8688    3.9463   -0.8751 H         1 <0>         0.0613
     39 N1          2.8454   -0.4353   -2.4838 N.4       1 <0>        -0.5151
     40 H25         2.3464   -0.0888   -3.3116 H         1 <0>         0.4292
     41 H26         3.8063   -0.0735   -2.4871 H         1 <0>         0.4291
@<TRIPOS>BOND
     1    1    2 1
     2    1   15 1
     3    1   16 1
     4    1   17 1
     5    2   18 1
     6    2   19 1
     7    2   39 1
     8    3    8 1
     9    3   12 1
    10    3    4 1
    11    3   39 1
    12    4    5 1
    13    4   20 1
    14    4   21 1
    15    5   11 1
    16    5    6 1
    17    5   22 1
    18    6    7 1
    19    6   23 1
    20    6   24 1
    21    7    8 1
    22    7    9 1
    23    7   14 1
    24    8   25 1
    25    8   26 1
    26    9   10 1
    27    9   27 1
    28    9   28 1
    29   10   11 1
    30   10   12 1
    31   10   13 1
    32   11   29 1
    33   11   30 1
    34   12   31 1
    35   12   32 1
    36   13   33 1
    37   13   34 1
    38   13   35 1
    39   14   36 1
    40   14   37 1
    41   14   38 1
    42   39   40 1
    43   39   41 1
@<TRIPOS>MOLECULE
ZINC04141357
   35    37     0     0     0
SMALL
USER_CHARGES
3-ethyladamantan-1-amine
@<TRIPOS>ATOM
      1 C1         -0.7050    1.5658    3.7651 C.3       1 <0>        -0.1612
      2 C2          0.0111    1.0724    2.5063 C.3       1 <0>        -0.1149
      3 C3         -0.7288    1.5792    1.2668 C.3       1 <0>        -0.0441
      4 C4         -2.1642    1.0497    1.2777 C.3       1 <0>        -0.1163
      5 C5         -2.9042    1.5565    0.0381 C.3       1 <0>        -0.0804
      6 H1         -3.9268    1.1792    0.0459 H         1 <0>         0.0926
      7 C6         -2.9250    3.0863    0.0466 C.3       1 <0>        -0.1199
      8 C7         -1.4896    3.6159    0.0357 C.3       1 <0>        -0.0804
      9 H2         -1.5044    4.7058    0.0417 H         1 <0>         0.0929
     10 C8         -0.7496    3.1091    1.2752 C.3       1 <0>        -0.1163
     11 C9         -0.7734    3.1225   -1.2231 C.3       1 <0>        -0.1241
     12 C10        -0.7527    1.5927   -1.2315 C.3       1 <0>         0.0646
     13 C11        -2.1881    1.0631   -1.2207 C.3       1 <0>        -0.1277
     14 C12        -0.0127    1.0858    0.0080 C.3       1 <0>        -0.1240
     15 H3         -0.1778    1.2047    4.6482 H         1 <0>         0.0606
     16 H4         -0.7198    2.6557    3.7711 H         1 <0>         0.0600
     17 H5         -1.7276    1.1885    3.7729 H         1 <0>         0.0600
     18 H6          0.0259   -0.0175    2.5003 H         1 <0>         0.0668
     19 H7          1.0337    1.4497    2.4986 H         1 <0>         0.0668
     20 H8         -2.1494   -0.0402    1.2717 H         1 <0>         0.0707
     21 H9         -2.6744    1.4012    2.1745 H         1 <0>         0.0837
     22 H10        -3.4352    3.4378    0.9434 H         1 <0>         0.0801
     23 H11        -3.4522    3.4474   -0.8365 H         1 <0>         0.0710
     24 H12         0.2730    3.4864    1.2675 H         1 <0>         0.0708
     25 H13        -1.2598    3.4606    2.1720 H         1 <0>         0.0837
     26 H14         0.2491    3.4998   -1.2308 H         1 <0>         0.0866
     27 H15        -1.3006    3.4836   -2.1062 H         1 <0>         0.0867
     28 H16        -2.7153    1.4241   -2.1037 H         1 <0>         0.0870
     29 H17        -2.1733   -0.0268   -1.2266 H         1 <0>         0.0866
     30 H18         0.0021   -0.0041    0.0020 H         1 <0>         0.0869
     31 H19         1.0099    1.4631    0.0003 H         1 <0>         0.0873
     32 H20        -0.5350    1.4407   -3.2731 H         1 <0>         0.4353
     33 H21         0.9035    1.4015   -2.4393 H         1 <0>         0.4352
     34 N1         -0.0676    1.0939   -2.4370 N.4       1 <0>        -0.6440
     35 H22        -0.0939    0.0675   -2.4398 H         1 <0>         0.4373
@<TRIPOS>BOND
     1    1    2 1
     2    1   15 1
     3    1   16 1
     4    1   17 1
     5    2    3 1
     6    2   18 1
     7    2   19 1
     8    3   10 1
     9    3   14 1
    10    3    4 1
    11    4    5 1
    12    4   20 1
    13    4   21 1
    14    5    6 1
    15    5   13 1
    16    5    7 1
    17    7    8 1
    18    7   22 1
    19    7   23 1
    20    8    9 1
    21    8   10 1
    22    8   11 1
    23   10   24 1
    24   10   25 1
    25   11   12 1
    26   11   26 1
    27   11   27 1
    28   12   13 1
    29   12   14 1
    30   12   34 1
    31   13   28 1
    32   13   29 1
    33   14   30 1
    34   14   31 1
    35   32   34 1
    36   33   34 1
    37   34   35 1
@<TRIPOS>MOLECULE
ZINC05165145
   38    40     0     0     0
SMALL
USER_CHARGES
3-isopropyladamantan-1-amine
@<TRIPOS>ATOM
      1 C1          1.4551   -2.5207   -2.5240 C.3       1 <0>        -0.1567
      2 C2          0.7390   -2.0273   -1.2652 C.3       1 <0>        -0.0850
      3 C3          1.4790   -2.5342   -0.0257 C.3       1 <0>        -0.1561
      4 C4          0.7182   -0.4975   -1.2568 C.3       1 <0>        -0.0376
      5 C5          2.1536    0.0321   -1.2676 C.3       1 <0>        -0.1180
      6 C6          2.1328    1.5619   -1.2592 C.3       1 <0>        -0.0802
      7 H1          3.1554    1.9392   -1.2670 H         1 <0>         0.0922
      8 C7          1.3929    2.0688   -2.4988 C.3       1 <0>        -0.1197
      9 C8         -0.0425    1.5392   -2.4879 C.3       1 <0>        -0.0798
     10 H2         -0.5697    1.9003   -3.3710 H         1 <0>         0.0926
     11 C9         -0.0218    0.0093   -2.4963 C.3       1 <0>        -0.1166
     12 C10        -0.7587    2.0326   -1.2291 C.3       1 <0>        -0.1239
     13 C11        -0.0187    1.5258    0.0104 C.3       1 <0>         0.0642
     14 C12         1.4167    2.0553   -0.0004 C.3       1 <0>        -0.1274
     15 C13         0.0021   -0.0041    0.0020 C.3       1 <0>        -0.1267
     16 H3          1.4699   -3.6106   -2.5300 H         1 <0>         0.0609
     17 H4          0.9279   -2.1597   -3.4071 H         1 <0>         0.0603
     18 H5          2.4777   -2.1435   -2.5317 H         1 <0>         0.0606
     19 H6         -0.2836   -2.4046   -1.2575 H         1 <0>         0.0737
     20 H7          0.9688   -2.1826    0.8711 H         1 <0>         0.0516
     21 H8          1.4937   -3.6240   -0.0317 H         1 <0>         0.0620
     22 H9          2.5015   -2.1569   -0.0334 H         1 <0>         0.0611
     23 H10         2.6808   -0.3290   -0.3846 H         1 <0>         0.0743
     24 H11         2.6638   -0.3194   -2.1644 H         1 <0>         0.0831
     25 H12         1.9030    1.7172   -3.3956 H         1 <0>         0.0799
     26 H13         1.3781    3.1587   -2.4928 H         1 <0>         0.0707
     27 H14         0.4884   -0.3422   -3.3931 H         1 <0>         0.0836
     28 H15        -1.0444   -0.3679   -2.4886 H         1 <0>         0.0705
     29 H16        -1.7813    1.6553   -1.2214 H         1 <0>         0.0864
     30 H17        -0.7734    3.1225   -1.2231 H         1 <0>         0.0864
     31 H18         1.4019    3.1452    0.0056 H         1 <0>         0.0867
     32 H19         1.9439    1.6943    0.8826 H         1 <0>         0.0863
     33 H20         0.5293   -0.3651    0.8851 H         1 <0>         0.0902
     34 H21        -1.0205   -0.3814    0.0098 H         1 <0>         0.0868
     35 H22        -0.7332    3.0077    1.2480 H         1 <0>         0.4352
     36 H23        -1.6353    1.6110    1.2823 H         1 <0>         0.4351
     37 N1         -0.6909    1.9900    1.2368 N.4       1 <0>        -0.6440
     38 H24        -0.1608    1.6677    2.0549 H         1 <0>         0.4371
@<TRIPOS>BOND
     1    1    2 1
     2    1   16 1
     3    1   17 1
     4    1   18 1
     5    2    3 1
     6    2    4 1
     7    2   19 1
     8    3   20 1
     9    3   21 1
    10    3   22 1
    11    4   11 1
    12    4   15 1
    13    4    5 1
    14    5    6 1
    15    5   23 1
    16    5   24 1
    17    6    7 1
    18    6   14 1
    19    6    8 1
    20    8    9 1
    21    8   25 1
    22    8   26 1
    23    9   10 1
    24    9   11 1
    25    9   12 1
    26   11   27 1
    27   11   28 1
    28   12   13 1
    29   12   29 1
    30   12   30 1
    31   13   14 1
    32   13   15 1
    33   13   37 1
    34   14   31 1
    35   14   32 1
    36   15   33 1
    37   15   34 1
    38   35   37 1
    39   36   37 1
    40   37   38 1
@<TRIPOS>MOLECULE
ZINC13487842
   31    32     0     0     0
SMALL
USER_CHARGES
N-[(3-chlorophenyl)methyl]benzamidine
@<TRIPOS>ATOM
      1 C1         -3.9323    0.0878    5.6045 C.ar      1 <0>        -0.0514
      2 C2         -4.9487   -0.5126    4.8832 C.ar      1 <0>        -0.1132
      3 C3         -4.9269   -0.4882    3.5037 C.ar      1 <0>        -0.0603
      4 C4         -3.8772    0.1430    2.8368 C.ar      1 <0>        -0.1439
      5 C5         -2.8523    0.7410    3.5694 C.ar      1 <0>        -0.0579
      6 C6         -2.8887    0.7158    4.9487 C.ar      1 <0>        -0.1129
      7 C7         -3.8479    0.1726    1.3565 C.cat     1 <0>         0.5886
      8 N1         -2.8096    0.7970    0.7004 N.pl3     1 <0>        -0.6679
      9 C8         -2.7804    0.8264   -0.7640 C.3       1 <0>         0.1269
     10 C9         -1.5504    1.5633   -1.2274 C.ar      1 <0>        -0.1270
     11 C10        -0.3732    0.8728   -1.4483 C.ar      1 <0>        -0.0892
     12 C11         0.7540    1.5472   -1.8788 C.ar      1 <0>        -0.1021
     13 C12         0.7064    2.9136   -2.0832 C.ar      1 <0>        -0.0825
     14 C13        -0.4697    3.6058   -1.8567 C.ar      1 <0>        -0.0370
     15 C14        -1.5977    2.9301   -1.4258 C.ar      1 <0>        -0.0862
     16 Cl1        -0.5301    5.3218   -2.1125 Cl        1 <0>        -0.0465
     17 H1         -3.9539    0.0665    6.6841 H         1 <0>         0.1467
     18 H2         -5.7611   -1.0010    5.4008 H         1 <0>         0.1485
     19 H3         -5.7208   -0.9573    2.9416 H         1 <0>         0.1369
     20 H4         -2.0344    1.2270    3.0585 H         1 <0>         0.1349
     21 H5         -2.0983    1.1832    5.5172 H         1 <0>         0.1482
     22 H6         -5.5772   -0.8555    1.0455 H         1 <0>         0.4541
     23 H7         -2.0977    1.2170    1.2081 H         1 <0>         0.4362
     24 H8         -3.6702    1.3352   -1.1349 H         1 <0>         0.1059
     25 H9         -2.7589   -0.1937   -1.1475 H         1 <0>         0.1073
     26 H10        -0.3354   -0.1947   -1.2889 H         1 <0>         0.1350
     27 H11         1.6719    1.0065   -2.0559 H         1 <0>         0.1441
     28 H12         1.5870    3.4403   -2.4198 H         1 <0>         0.1447
     29 H13        -2.5160    3.4702   -1.2485 H         1 <0>         0.1385
     30 N2         -4.7879   -0.3815    0.6065 N.pl3     1 <0>        -0.7651
     31 H14        -4.7223   -0.3340   -0.4171 H         1 <0>         0.4465
@<TRIPOS>BOND
     1    1    6 ar
     2    1    2 ar
     3    1   17 1
     4    2    3 ar
     5    2   18 1
     6    3    4 ar
     7    3   19 1
     8    4    5 ar
     9    4    7 1
    10    5    6 ar
    11    5   20 1
    12    6   21 1
    13    7    8 1
    14    7   30 2
    15    8    9 1
    16    8   23 1
    17    9   10 1
    18    9   24 1
    19    9   25 1
    20   10   15 ar
    21   10   11 ar
    22   11   12 ar
    23   11   26 1
    24   12   13 ar
    25   12   27 1
    26   13   14 ar
    27   13   28 1
    28   14   15 ar
    29   14   16 1
    30   15   29 1
    31   22   30 1
    32   30   31 1
@<TRIPOS>MOLECULE
ZINC00145162
   31    32     0     0     0
SMALL
USER_CHARGES
N-benzyl-1-(4-chlorophenyl)-1-imino-methanamine
@<TRIPOS>ATOM
      1 C1          6.9795    5.0971   -0.0371 C.ar      1 <0>        -0.0893
      2 C2          6.2776    5.0769   -1.2279 C.ar      1 <0>        -0.1174
      3 C3          4.8963    5.0239   -1.2152 C.ar      1 <0>        -0.0927
      4 C4          4.2168    4.9916   -0.0117 C.ar      1 <0>        -0.1427
      5 C5          4.9185    5.0175    1.1790 C.ar      1 <0>        -0.0926
      6 C6          6.3000    5.0647    1.1663 C.ar      1 <0>        -0.1174
      7 C7          2.7110    4.9342    0.0020 C.3       1 <0>         0.1271
      8 N1          2.2755    3.5355   -0.0010 N.pl3     1 <0>        -0.6526
      9 C8          0.9314    3.2324    0.0101 C.cat     1 <0>         0.5863
     10 C9          0.4914    1.8188    0.0071 C.ar      1 <0>        -0.1512
     11 C10        -0.8687    1.5092    0.0182 C.ar      1 <0>        -0.0498
     12 C11        -1.2732    0.1904    0.0149 C.ar      1 <0>        -0.1050
     13 C12        -0.3319   -0.8251    0.0004 C.ar      1 <0>         0.0184
     14 C13         1.0196   -0.5233   -0.0107 C.ar      1 <0>        -0.1057
     15 C14         1.4352    0.7920   -0.0074 C.ar      1 <0>        -0.0451
     16 Cl1        -0.8479   -2.4826   -0.0031 Cl        1 <0>        -0.0205
     17 H1          8.0586    5.1377   -0.0470 H         1 <0>         0.1335
     18 H2          6.8084    5.1022   -2.1680 H         1 <0>         0.1334
     19 H3          4.3479    5.0082   -2.1454 H         1 <0>         0.1273
     20 H4          4.3875    4.9967    2.1192 H         1 <0>         0.1274
     21 H5          6.8483    5.0801    2.0966 H         1 <0>         0.1334
     22 H6          2.3201    5.4384   -0.8818 H         1 <0>         0.1038
     23 H7          2.3368    5.4294    0.8981 H         1 <0>         0.1038
     24 H8          2.9334    2.8228   -0.0107 H         1 <0>         0.4390
     25 H9          0.2375    5.1464    0.0263 H         1 <0>         0.4425
     26 H10        -1.6037    2.3005    0.0249 H         1 <0>         0.1455
     27 H11        -2.3260   -0.0505    0.0239 H         1 <0>         0.1593
     28 H12         1.7495   -1.3192   -0.0216 H         1 <0>         0.1585
     29 H13         2.4894    1.0262   -0.0164 H         1 <0>         0.1447
     30 N2         -0.0154    4.1582    0.0236 N.pl3     1 <0>        -0.7601
     31 H14        -1.0041    3.8813    0.0314 H         1 <0>         0.4585
@<TRIPOS>BOND
     1    1    6 ar
     2    1    2 ar
     3    1   17 1
     4    2    3 ar
     5    2   18 1
     6    3    4 ar
     7    3   19 1
     8    4    5 ar
     9    4    7 1
    10    5    6 ar
    11    5   20 1
    12    6   21 1
    13    7    8 1
    14    7   22 1
    15    7   23 1
    16    8    9 1
    17    8   24 1
    18    9   10 1
    19    9   30 2
    20   10   15 ar
    21   10   11 ar
    22   11   12 ar
    23   11   26 1
    24   12   13 ar
    25   12   27 1
    26   13   14 ar
    27   13   16 1
    28   14   15 ar
    29   14   28 1
    30   15   29 1
    31   25   30 1
    32   30   31 1
@<TRIPOS>MOLECULE
ZINC01491952
   33    35     0     0     0
SMALL
USER_CHARGES
2-(3,4-dihydro-1H-isoquinolin-2-yl)pyridin-4-amine
@<TRIPOS>ATOM
      1 C1         -6.7942    6.1264    1.4284 C.ar      1 <0>        -0.1038
      2 C2         -6.6935    4.9246    2.1045 C.ar      1 <0>        -0.1121
      3 C3         -5.5343    4.1809    2.0157 C.ar      1 <0>        -0.1062
      4 C4         -4.4683    4.6319    1.2508 C.ar      1 <0>        -0.1015
      5 C5         -4.5706    5.8284    0.5743 C.ar      1 <0>        -0.0764
      6 C6         -5.7349    6.5760    0.6660 C.ar      1 <0>        -0.1133
      7 C7         -3.4439    6.3543   -0.2776 C.3       1 <0>        -0.0743
      8 C8         -2.1430    5.6324    0.0745 C.3       1 <0>         0.0215
      9 N1         -2.3912    4.1822    0.0470 N.pl3     1 <0>        -0.4733
     10 C9         -3.2227    3.7874    1.1884 C.3       1 <0>         0.1031
     11 C10        -1.1958    3.4723    0.0322 C.ar      1 <0>         0.3970
     12 C11        -1.2211    2.0843    0.0191 C.ar      1 <0>        -0.2390
     13 C12        -0.0168    1.3878    0.0097 C.ar      1 <0>         0.3457
     14 C13         1.1729    2.1198    0.0022 C.ar      1 <0>        -0.2169
     15 C14         1.1161    3.4959    0.0102 C.ar      1 <0>         0.1807
     16 N2          0.0021   -0.0041    0.0020 N.pl3     1 <0>        -0.8077
     17 H1         -7.6990    6.7121    1.4969 H         1 <0>         0.1309
     18 H2         -7.5206    4.5684    2.7007 H         1 <0>         0.1312
     19 H3         -5.4566    3.2426    2.5447 H         1 <0>         0.1273
     20 H4         -5.8135    7.5148    0.1378 H         1 <0>         0.1289
     21 H5         -3.6771    6.1876   -1.3292 H         1 <0>         0.0961
     22 H6         -3.3231    7.4227   -0.0986 H         1 <0>         0.0998
     23 H7         -1.8178    5.9295    1.0716 H         1 <0>         0.0785
     24 H8         -1.3741    5.8863   -0.6553 H         1 <0>         0.0947
     25 H9         -3.5035    2.7394    1.0834 H         1 <0>         0.1114
     26 H10        -2.6543    3.9169    2.1094 H         1 <0>         0.0774
     27 H11        -2.1615    1.5532    0.0202 H         1 <0>         0.1789
     28 H12         2.1263    1.6125   -0.0100 H         1 <0>         0.1808
     29 H13         2.0329    4.0666    0.0049 H         1 <0>         0.1948
     30 H14         0.8486   -0.4776   -0.0086 H         1 <0>         0.4241
     31 H15        -0.8313   -0.5005    0.0073 H         1 <0>         0.4231
     32 N3         -0.0446    4.2078    0.0251 N.ar      1 <0>        -0.5663
     33 H16        -0.0540    5.2345    0.0308 H         1 <0>         0.4648
@<TRIPOS>BOND
     1    1    6 ar
     2    1    2 ar
     3    1   17 1
     4    2    3 ar
     5    2   18 1
     6    3    4 ar
     7    3   19 1
     8    4   10 1
     9    4    5 ar
    10    5    6 ar
    11    5    7 1
    12    6   20 1
    13    7    8 1
    14    7   21 1
    15    7   22 1
    16    8    9 1
    17    8   23 1
    18    8   24 1
    19    9   10 1
    20    9   11 1
    21   10   25 1
    22   10   26 1
    23   11   12 ar
    24   11   32 ar
    25   12   13 ar
    26   12   27 1
    27   13   14 ar
    28   13   16 1
    29   14   15 ar
    30   14   28 1
    31   15   29 1
    32   15   32 ar
    33   16   30 1
    34   16   31 1
    35   32   33 1
@<TRIPOS>MOLECULE
ZINC13488063
   31    33     0     0     0
SMALL
USER_CHARGES
2-(2-pyridyl)-3,4-dihydro-1H-isoquinoline
@<TRIPOS>ATOM
      1 C1          7.8714   -2.8307    1.2439 C.ar      1 <0>        -0.1024
      2 C2          7.8106   -1.6340    1.9336 C.ar      1 <0>        -0.1109
      3 C3          6.6670   -0.8637    1.8741 C.ar      1 <0>        -0.1049
      4 C4          5.5770   -1.2827    1.1250 C.ar      1 <0>        -0.1033
      5 C5          5.6396   -2.4741    0.4348 C.ar      1 <0>        -0.0775
      6 C6          6.7883   -3.2486    0.4972 C.ar      1 <0>        -0.1128
      7 C7          4.4857   -2.9659   -0.4008 C.3       1 <0>        -0.0738
      8 C8          3.2081   -2.2187   -0.0171 C.3       1 <0>         0.0187
      9 N1          3.4885   -0.7742   -0.0349 N.pl3     1 <0>        -0.4706
     10 C9          4.3499   -0.4099    1.0944 C.3       1 <0>         0.1013
     11 C10         2.3097   -0.0378   -0.0202 C.ar      1 <0>         0.3681
     12 C11         2.3653    1.3525   -0.0133 C.ar      1 <0>        -0.1510
     13 C12         1.1848    2.0727    0.0019 C.ar      1 <0>         0.0370
     14 C13        -0.0166    1.3760    0.0096 C.ar      1 <0>        -0.1481
     15 C14         0.0021   -0.0041    0.0020 C.ar      1 <0>         0.1465
     16 H1          8.7639   -3.4372    1.2895 H         1 <0>         0.1318
     17 H2          8.6564   -1.3025    2.5176 H         1 <0>         0.1324
     18 H3          6.6203    0.0707    2.4137 H         1 <0>         0.1285
     19 H4          6.8358   -4.1834   -0.0416 H         1 <0>         0.1294
     20 H5          4.7030   -2.7936   -1.4549 H         1 <0>         0.0970
     21 H6          4.3441   -4.0331   -0.2301 H         1 <0>         0.1014
     22 H7          2.8950   -2.5187    0.9829 H         1 <0>         0.0811
     23 H8          2.4203   -2.4477   -0.7347 H         1 <0>         0.0940
     24 H9          4.6523    0.6325    0.9945 H         1 <0>         0.1148
     25 H10         3.7960   -0.5362    2.0246 H         1 <0>         0.0797
     26 H11         3.3174    1.8622   -0.0193 H         1 <0>         0.1864
     27 H12         1.1968    3.1526    0.0079 H         1 <0>         0.1794
     28 H13        -0.9561    1.9087    0.0170 H         1 <0>         0.1873
     29 H14        -0.9299   -0.5498    0.0076 H         1 <0>         0.1974
     30 N2          1.1427   -0.7444   -0.0128 N.ar      1 <0>        -0.5255
     31 H15         1.1266   -1.7711   -0.0181 H         1 <0>         0.4684
@<TRIPOS>BOND
     1    1    6 ar
     2    1    2 ar
     3    1   16 1
     4    2    3 ar
     5    2   17 1
     6    3    4 ar
     7    3   18 1
     8    4   10 1
     9    4    5 ar
    10    5    6 ar
    11    5    7 1
    12    6   19 1
    13    7    8 1
    14    7   20 1
    15    7   21 1
    16    8    9 1
    17    8   22 1
    18    8   23 1
    19    9   10 1
    20    9   11 1
    21   10   24 1
    22   10   25 1
    23   11   12 ar
    24   11   30 ar
    25   12   13 ar
    26   12   26 1
    27   13   14 ar
    28   13   27 1
    29   14   15 ar
    30   14   28 1
    31   15   29 1
    32   15   30 ar
    33   30   31 1
@<TRIPOS>MOLECULE
ZINC13488061
   30    32     0     0     0
SMALL
USER_CHARGES
2-(5-bromo-2-pyridyl)-3,4-dihydro-1H-isoquinoline
@<TRIPOS>ATOM
      1 C1          6.2878   -1.7058   -1.3951 C.ar      1 <0>        -0.1151
      2 C2          5.1985   -2.2240   -2.0707 C.ar      1 <0>        -0.1210
      3 C3          3.9725   -1.5965   -1.9819 C.ar      1 <0>        -0.1115
      4 C4          3.8259   -0.4480   -1.2176 C.ar      1 <0>        -0.0854
      5 C5          4.9114    0.0662   -0.5416 C.ar      1 <0>        -0.0674
      6 C6          6.1434   -0.5638   -0.6333 C.ar      1 <0>        -0.1188
      7 C7          4.7991    1.3049    0.3097 C.3       1 <0>        -0.0834
      8 C8          3.5205    2.0656   -0.0425 C.3       1 <0>         0.0585
      9 N1          2.3923    1.1213   -0.0143 N.pl3     1 <0>        -0.4696
     10 C9          2.4693    0.2035   -1.1552 C.3       1 <0>         0.0999
     11 C10         1.1771    1.7971    0.0005 C.ar      1 <0>         0.3264
     12 C11        -0.0126    1.0758    0.0080 C.ar      1 <0>        -0.1808
     13 C12        -1.2142    1.7603    0.0173 C.ar      1 <0>        -0.0223
     14 C13        -1.1858    3.1495    0.0298 C.ar      1 <0>        -0.1766
     15 C14         0.0319    3.8009    0.0208 C.ar      1 <0>         0.1636
     16 N2          1.1629    3.1209    0.0068 N.ar      1 <0>        -0.5109
     17 Br1        -2.7978    4.1379    0.0504 Br        1 <0>        -0.0331
     18 H1          7.2492   -2.1930   -1.4635 H         1 <0>         0.1239
     19 H2          5.3067   -3.1183   -2.6664 H         1 <0>         0.1245
     20 H3          3.1223   -2.0018   -2.5105 H         1 <0>         0.1234
     21 H4          6.9943   -0.1590   -0.1055 H         1 <0>         0.1238
     22 H5          4.7697    1.0187    1.3714 H         1 <0>         0.0874
     23 H6          5.6685    1.9541    0.1289 H         1 <0>         0.0871
     24 H7          3.3570    2.8678    0.6922 H         1 <0>         0.1004
     25 H8          3.6189    2.5029   -1.0470 H         1 <0>         0.0553
     26 H9          2.2914    0.7693   -2.0816 H         1 <0>         0.0625
     27 H10         1.6956   -0.5705   -1.0440 H         1 <0>         0.0989
     28 H11         0.0021   -0.0041    0.0020 H         1 <0>         0.1462
     29 H12        -2.1535    1.2272    0.0189 H         1 <0>         0.1476
     30 H13         0.0591    4.8805    0.0256 H         1 <0>         0.1667
@<TRIPOS>BOND
     1    1    6 ar
     2    1    2 ar
     3    1   18 1
     4    2    3 ar
     5    2   19 1
     6    3    4 ar
     7    3   20 1
     8    4   10 1
     9    4    5 ar
    10    5    6 ar
    11    5    7 1
    12    6   21 1
    13    7    8 1
    14    7   22 1
    15    7   23 1
    16    8    9 1
    17    8   24 1
    18    8   25 1
    19    9   10 1
    20    9   11 1
    21   10   26 1
    22   10   27 1
    23   11   16 ar
    24   11   12 ar
    25   12   13 ar
    26   12   28 1
    27   13   14 ar
    28   13   29 1
    29   14   15 ar
    30   14   17 1
    31   15   16 ar
    32   15   30 1
@<TRIPOS>MOLECULE
ZINC13488066
   33    35     0     0     0
SMALL
USER_CHARGES

@<TRIPOS>ATOM
      1 C1         -0.0626    1.3274    0.0175 C.ar      1 <0>        -0.1018
      2 C2          1.1175    2.0478    0.0324 C.ar      1 <0>        -0.1113
      3 C3          2.3255    1.3817    0.0154 C.ar      1 <0>        -0.1092
      4 C4          2.3650   -0.0058   -0.0128 C.ar      1 <0>        -0.1169
      5 C5          1.1909   -0.7247   -0.0178 C.ar      1 <0>        -0.0711
      6 C6         -0.0246   -0.0509   -0.0085 C.ar      1 <0>        -0.1138
      7 C7          1.1548   -2.2302   -0.0173 C.3       1 <0>        -0.1025
      8 C8          2.4825   -2.8066   -0.5064 C.3       1 <0>         0.1148
      9 N1          3.5680   -2.1086    0.2022 N.pl3     1 <0>        -0.5921
     10 C9          3.7183   -0.6706   -0.0448 C.3       1 <0>         0.1482
     11 C10         4.4165   -2.7853    1.0706 C.ar      1 <0>         0.4715
     12 C11         4.1675   -4.1183    1.3761 C.ar      1 <0>        -0.2518
     13 C12         5.0186   -4.7848    2.2421 C.ar      1 <0>         0.0735
     14 C13         6.0946   -4.0945    2.7762 C.ar      1 <0>        -0.2510
     15 C14         6.2869   -2.7626    2.4296 C.ar      1 <0>         0.4692
     16 N2          5.4572   -2.1548    1.5942 N.ar      1 <0>        -0.5484
     17 N3          7.3637   -2.0622    2.9606 N.pl3     1 <0>        -0.8277
     18 H1         -1.0116    1.8427    0.0307 H         1 <0>         0.1319
     19 H2          1.0937    3.1272    0.0569 H         1 <0>         0.1321
     20 H3          3.2476    1.9440    0.0236 H         1 <0>         0.1261
     21 H4         -0.9475   -0.6117   -0.0213 H         1 <0>         0.1300
     22 H5          0.9620   -2.5838    0.9956 H         1 <0>         0.0893
     23 H6          0.3533   -2.5698   -0.6733 H         1 <0>         0.1042
     24 H7          2.5248   -3.8733   -0.2864 H         1 <0>         0.1092
     25 H8          2.5806   -2.6467   -1.5801 H         1 <0>         0.1008
     26 H9          4.1752   -0.5163   -1.0224 H         1 <0>         0.1043
     27 H10         4.3548   -0.2348    0.7252 H         1 <0>         0.0821
     28 H11         3.3197   -4.6285    0.9434 H         1 <0>         0.1751
     29 H12         4.8469   -5.8204    2.4958 H         1 <0>         0.1727
     30 H13         6.7762   -4.5859    3.4547 H         1 <0>         0.1747
     31 H14         7.9762   -2.5033    3.5698 H         1 <0>         0.4406
     32 H15         7.5025   -1.1323    2.7220 H         1 <0>         0.4172
     33 H16         5.6133   -1.2256    1.3638 H         1 <0>         0.4305
@<TRIPOS>BOND
     1    1    6 ar
     2    1    2 ar
     3    1   18 1
     4    2    3 ar
     5    2   19 1
     6    3    4 ar
     7    3   20 1
     8    4   10 1
     9    4    5 ar
    10    5    6 ar
    11    5    7 1
    12    6   21 1
    13    7    8 1
    14    7   22 1
    15    7   23 1
    16    8    9 1
    17    8   24 1
    18    8   25 1
    19    9   10 1
    20    9   11 1
    21   10   26 1
    22   10   27 1
    23   11   16 ar
    24   11   12 ar
    25   12   13 ar
    26   12   28 1
    27   13   14 ar
    28   13   29 1
    29   14   15 ar
    30   14   30 1
    31   15   16 ar
    32   15   17 1
    33   16   33 1
    34   17   31 1
    35   17   32 1
@<TRIPOS>MOLECULE
ZINC13488071
   36    38     0     0     0
SMALL
USER_CHARGES
2-(3,4-dihydro-1H-isoquinolin-2-yl)-5-methyl-pyridin-4-amine
@<TRIPOS>ATOM
      1 C1          3.7106    2.0397   -0.0229 C.3       1 <0>        -0.1144
      2 C2          2.3770    1.3379   -0.0139 C.ar      1 <0>        -0.1765
      3 C3          2.3138   -0.0384   -0.0202 C.ar      1 <0>         0.1708
      4 C4          0.0021   -0.0041    0.0020 C.ar      1 <0>         0.3938
      5 C5         -0.0167    1.3836    0.0096 C.ar      1 <0>        -0.2353
      6 C6          1.1910    2.0750    0.0018 C.ar      1 <0>         0.3463
      7 N1          1.2163    3.4667    0.0086 N.pl3     1 <0>        -0.8074
      8 N2         -1.1966   -0.7086    0.0092 N.pl3     1 <0>        -0.4729
      9 C7         -0.9554   -2.1599   -0.0233 C.3       1 <0>         0.0216
     10 C8         -2.2529   -2.8760    0.3527 C.3       1 <0>        -0.0742
     11 C9         -3.3928   -2.3447   -0.4779 C.ar      1 <0>        -0.0764
     12 C10        -4.5620   -3.0871   -0.5482 C.ar      1 <0>        -0.1133
     13 C11        -5.6332   -2.6324   -1.2907 C.ar      1 <0>        -0.1040
     14 C12        -5.5397   -1.4309   -1.9683 C.ar      1 <0>        -0.1121
     15 C13        -4.3757   -0.6925   -1.9008 C.ar      1 <0>        -0.1063
     16 C14        -3.2977   -1.1485   -1.1559 C.ar      1 <0>        -0.1011
     17 C15        -2.0473   -0.3096   -1.1164 C.3       1 <0>         0.1029
     18 H1          4.0225    2.2141   -1.0526 H         1 <0>         0.0911
     19 H2          3.6225    2.9939    0.4966 H         1 <0>         0.0797
     20 H3          4.4514    1.4187    0.4809 H         1 <0>         0.0911
     21 H4          3.2280   -0.6133   -0.0321 H         1 <0>         0.1933
     22 H5         -0.9547    1.9190    0.0170 H         1 <0>         0.1799
     23 H6          0.3852    3.9668    0.0189 H         1 <0>         0.4231
     24 H7          2.0649    3.9364    0.0030 H         1 <0>         0.4224
     25 H8         -0.6502   -2.4581   -1.0263 H         1 <0>         0.0782
     26 H9         -0.1744   -2.4175    0.6920 H         1 <0>         0.0944
     27 H10        -2.4658   -2.7087    1.4086 H         1 <0>         0.0961
     28 H11        -2.1403   -3.9449    0.1712 H         1 <0>         0.0997
     29 H12        -4.6350   -4.0257   -0.0189 H         1 <0>         0.1288
     30 H13        -6.5418   -3.2140   -1.3425 H         1 <0>         0.1309
     31 H14        -6.3761   -1.0707   -2.5489 H         1 <0>         0.1312
     32 H15        -4.3035    0.2458   -2.4309 H         1 <0>         0.1272
     33 H16        -2.3214    0.7396   -1.0059 H         1 <0>         0.1112
     34 H17        -1.4968   -0.4414   -2.0478 H         1 <0>         0.0771
     35 N3          1.1502   -0.7449   -0.0129 N.ar      1 <0>        -0.5616
     36 H18         1.1361   -1.7715   -0.0183 H         1 <0>         0.4648
@<TRIPOS>BOND
     1    1    2 1
     2    1   18 1
     3    1   19 1
     4    1   20 1
     5    2    6 ar
     6    2    3 ar
     7    3   21 1
     8    3   35 ar
     9    4    5 ar
    10    4    8 1
    11    4   35 ar
    12    5    6 ar
    13    5   22 1
    14    6    7 1
    15    7   23 1
    16    7   24 1
    17    8   17 1
    18    8    9 1
    19    9   10 1
    20    9   25 1
    21    9   26 1
    22   10   11 1
    23   10   27 1
    24   10   28 1
    25   11   16 ar
    26   11   12 ar
    27   12   13 ar
    28   12   29 1
    29   13   14 ar
    30   13   30 1
    31   14   15 ar
    32   14   31 1
    33   15   16 ar
    34   15   32 1
    35   16   17 1
    36   17   33 1
    37   17   34 1
    38   35   36 1
@<TRIPOS>MOLECULE
ZINC00005936
   50    52     0     0     0
SMALL
USER_CHARGES
1-[2-hydroxy-2-(4-hydroxyphenyl)-1-methyl-ethyl]-4-phenyl-piperidin-4-ol
@<TRIPOS>ATOM
      1 C1         -1.7773    1.2090   -4.4603 C.3       1 <0>        -0.1747
      2 C2         -2.1841   -0.1251   -3.8314 C.3       1 <0>         0.0014
      3 H1         -3.2637   -0.1421   -3.6818 H         1 <0>         0.1463
      4 C3         -1.7799   -1.2714   -4.7607 C.3       1 <0>         0.1378
      5 H2         -2.2595   -1.1392   -5.7305 H         1 <0>         0.1525
      6 C4         -2.2153   -2.5829   -4.1595 C.ar      1 <0>        -0.1674
      7 C5         -1.4557   -3.1727   -3.1661 C.ar      1 <0>        -0.1394
      8 C6         -1.8557   -4.3721   -2.6094 C.ar      1 <0>        -0.1258
      9 C7         -3.0144   -4.9906   -3.0562 C.ar      1 <0>         0.1334
     10 C8         -3.7718   -4.3995   -4.0570 C.ar      1 <0>        -0.1261
     11 C9         -3.3707   -3.1971   -4.6062 C.ar      1 <0>        -0.0728
     12 O1         -3.4066   -6.1737   -2.5146 O.3       1 <0>        -0.4946
     13 O2         -0.3606   -1.2716   -4.9273 O.3       1 <0>        -0.5323
     14 C10        -2.2828    0.3446   -1.4586 C.3       1 <0>         0.0001
     15 C11        -1.6261    0.0367   -0.1110 C.3       1 <0>        -0.1339
     16 C12        -0.1921    0.5735   -0.1131 C.3       1 <0>         0.1764
     17 C13         0.5809   -0.0587   -1.2738 C.3       1 <0>        -0.1731
     18 C14        -0.1411    0.2518   -2.5885 C.3       1 <0>        -0.0205
     19 C15         0.4791    0.2222    1.1896 C.ar      1 <0>        -0.1288
     20 C16         0.1070   -0.9205    1.8727 C.ar      1 <0>        -0.1150
     21 C17         0.7261   -1.2454    3.0652 C.ar      1 <0>        -0.1122
     22 C18         1.7099   -0.4220    3.5799 C.ar      1 <0>        -0.1056
     23 C19         2.0784    0.7234    2.8995 C.ar      1 <0>        -0.1096
     24 C20         1.4630    1.0455    1.7043 C.ar      1 <0>        -0.1065
     25 O3         -0.2140    1.9936   -0.2712 O.3       1 <0>        -0.5476
     26 H3         -2.0653    2.0256   -3.7982 H         1 <0>         0.0834
     27 H4         -0.6977    1.2260   -4.6098 H         1 <0>         0.0904
     28 H5         -2.2790    1.3258   -5.4208 H         1 <0>         0.1059
     29 H6         -0.5511   -2.6934   -2.8222 H         1 <0>         0.1186
     30 H7         -1.2646   -4.8301   -1.8301 H         1 <0>         0.1427
     31 H8         -4.6740   -4.8793   -4.4068 H         1 <0>         0.1447
     32 H9         -3.9600   -2.7365   -5.3853 H         1 <0>         0.1416
     33 H10        -3.0524   -6.9507   -2.9685 H         1 <0>         0.4056
     34 H11         0.1262   -1.5854   -4.1529 H         1 <0>         0.3706
     35 H12        -3.2993   -0.0490   -1.4655 H         1 <0>         0.1292
     36 H13        -2.3102    1.4235   -1.6112 H         1 <0>         0.1415
     37 H14        -1.6108   -1.0414    0.0486 H         1 <0>         0.1012
     38 H15        -2.1925    0.5149    0.6882 H         1 <0>         0.1243
     39 H16         1.5902    0.3518   -1.3054 H         1 <0>         0.1200
     40 H17         0.6309   -1.1383   -1.1326 H         1 <0>         0.0958
     41 H18         0.3980   -0.2091   -3.4162 H         1 <0>         0.1380
     42 H19        -0.1785    1.3311   -2.7359 H         1 <0>         0.1456
     43 H20        -0.6648   -1.5615    1.4728 H         1 <0>         0.1223
     44 H21         0.4379   -2.1401    3.5970 H         1 <0>         0.1291
     45 H22         2.1905   -0.6735    4.5139 H         1 <0>         0.1299
     46 H23         2.8469    1.3669    3.3018 H         1 <0>         0.1302
     47 H24         1.7507    1.9407    1.1729 H         1 <0>         0.1227
     48 H25         0.6627    2.4016   -0.2833 H         1 <0>         0.3903
     49 N1         -1.5067   -0.3121   -2.5317 N.4       1 <0>        -0.3997
     50 H26        -1.4439   -1.3169   -2.3301 H         1 <0>         0.4142
@<TRIPOS>BOND
     1    1    2 1
     2    1   26 1
     3    1   27 1
     4    1   28 1
     5    2    3 1
     6    2    4 1
     7    2   49 1
     8    4    5 1
     9    4    6 1
    10    4   13 1
    11    6   11 ar
    12    6    7 ar
    13    7    8 ar
    14    7   29 1
    15    8    9 ar
    16    8   30 1
    17    9   10 ar
    18    9   12 1
    19   10   11 ar
    20   10   31 1
    21   11   32 1
    22   12   33 1
    23   13   34 1
    24   14   15 1
    25   14   35 1
    26   14   36 1
    27   14   49 1
    28   15   16 1
    29   15   37 1
    30   15   38 1
    31   16   17 1
    32   16   19 1
    33   16   25 1
    34   17   18 1
    35   17   39 1
    36   17   40 1
    37   18   41 1
    38   18   42 1
    39   18   49 1
    40   19   24 ar
    41   19   20 ar
    42   20   21 ar
    43   20   43 1
    44   21   22 ar
    45   21   44 1
    46   22   23 ar
    47   22   45 1
    48   23   24 ar
    49   23   46 1
    50   24   47 1
    51   25   48 1
    52   49   50 1
@<TRIPOS>MOLECULE
ZINC28363953
   48    51     0     0     0
SMALL
USER_CHARGES
2-[4-[(4-fluorophenyl)methyl]-1-piperidyl]-N-(2-hydroxy-1,3-benzoxazol-6-yl)-2-oxo-acetamide
@<TRIPOS>ATOM
      1 C1          0.0035    0.9802    0.0922 C.ar      1 <0>        -0.0858
      2 C2         -1.2073    1.6456    0.1220 C.ar      1 <0>        -0.1496
      3 C3         -1.2355    3.0296    0.1554 C.ar      1 <0>         0.0915
      4 C4         -0.0503    3.7454    0.1484 C.ar      1 <0>        -0.1526
      5 C5          1.1593    3.0779    0.1133 C.ar      1 <0>        -0.0899
      6 C6          1.1862    1.6960    0.0847 C.ar      1 <0>        -0.0879
      7 C7          2.5059    0.9693    0.0459 C.3       1 <0>        -0.0767
      8 C8          2.9259    0.7522   -1.4091 C.3       1 <0>        -0.0848
      9 C9          1.9273   -0.1837   -2.0939 C.3       1 <0>        -0.1301
     10 C10         2.3314   -0.3710   -3.5597 C.3       1 <0>         0.0375
     11 N1          3.7247   -0.8344   -3.6103 N.am      1 <0>        -0.5771
     12 C11         4.7539   -0.0565   -2.9072 C.3       1 <0>         0.1051
     13 C12         4.3225    0.1275   -1.4489 C.3       1 <0>        -0.1276
     14 C13         4.0526   -1.9515   -4.2892 C.2       1 <0>         0.5142
     15 O1          5.2170   -2.2761   -4.3975 O.2       1 <0>        -0.5278
     16 C14         2.9832   -2.7899   -4.9082 C.2       1 <0>         0.5020
     17 O2          1.8308   -2.4085   -4.8981 O.2       1 <0>        -0.4977
     18 N2          3.2974   -3.9702   -5.4780 N.am      1 <0>        -0.6325
     19 C15         2.3143   -4.7092   -6.1428 C.ar      1 <0>         0.0773
     20 C16         2.6488   -5.4462   -7.2764 C.ar      1 <0>        -0.1181
     21 C17         1.6978   -6.1729   -7.9358 C.ar      1 <0>        -0.1071
     22 C18         0.3809   -6.1794   -7.4733 C.ar      1 <0>         0.0936
     23 C19         0.0390   -5.4385   -6.3317 C.ar      1 <0>        -0.0291
     24 C20         1.0114   -4.7098   -5.6673 C.ar      1 <0>        -0.0684
     25 O3         -1.2839   -5.6360   -6.1311 O.3       1 <0>        -0.2726
     26 C21        -1.7369   -6.4548   -7.0960 C.2       1 <0>         0.5130
     27 N3         -0.7621   -6.7857   -7.8995 N.2       1 <0>        -0.6089
     28 O4         -3.0165   -6.8745   -7.2175 O.3       1 <0>        -0.6464
     29 F1         -2.4185    3.6810    0.1897 F         1 <0>        -0.1415
     30 H1          0.0258   -0.0993    0.0702 H         1 <0>         0.1338
     31 H2         -2.1312    1.0863    0.1233 H         1 <0>         0.1359
     32 H3         -0.0711    4.8250    0.1700 H         1 <0>         0.1332
     33 H4          2.0839    3.6360    0.1078 H         1 <0>         0.1305
     34 H5          3.2699    1.5688    0.5625 H         1 <0>         0.0753
     35 H6          2.4032   -0.0045    0.5471 H         1 <0>         0.0760
     36 H7          2.9417    1.7185   -1.9344 H         1 <0>         0.0746
     37 H8          1.9293   -1.1584   -1.5841 H         1 <0>         0.0668
     38 H9          0.9197    0.2546   -2.0430 H         1 <0>         0.0798
     39 H10         1.6730   -1.1167   -4.0291 H         1 <0>         0.1683
     40 H11         2.2375    0.5874   -4.0913 H         1 <0>         0.0647
     41 H12         5.7121   -0.5953   -2.9475 H         1 <0>         0.0953
     42 H13         4.8649    0.9256   -3.3900 H         1 <0>         0.0713
     43 H14         5.0350    0.7895   -0.9350 H         1 <0>         0.0777
     44 H15         4.3014   -0.8501   -0.9451 H         1 <0>         0.0698
     45 H16         4.3274   -4.3521   -5.4200 H         1 <0>         0.4439
     46 H17         3.6670   -5.4436   -7.6366 H         1 <0>         0.1232
     47 H18         1.9651   -6.7421   -8.8139 H         1 <0>         0.1248
     48 H19         0.7555   -4.1414   -4.7853 H         1 <0>         0.1328
@<TRIPOS>BOND
     1    1    6 ar
     2    1    2 ar
     3    1   30 1
     4    2    3 ar
     5    2   31 1
     6    3    4 ar
     7    3   29 1
     8    4    5 ar
     9    4   32 1
    10    5    6 ar
    11    5   33 1
    12    6    7 1
    13    7    8 1
    14    7   34 1
    15    7   35 1
    16    8   13 1
    17    8    9 1
    18    8   36 1
    19    9   10 1
    20    9   37 1
    21    9   38 1
    22   10   11 1
    23   10   39 1
    24   10   40 1
    25   11   12 1
    26   11   14 am
    27   12   13 1
    28   12   41 1
    29   12   42 1
    30   13   43 1
    31   13   44 1
    32   14   15 2
    33   14   16 1
    34   16   17 2
    35   16   18 am
    36   18   19 1
    37   18   45 1
    38   19   24 ar
    39   19   20 ar
    40   20   21 ar
    41   20   46 1
    42   21   22 ar
    43   21   47 1
    44   22   27 1
    45   22   23 ar
    46   23   24 ar
    47   23   25 1
    48   24   48 1
    49   25   26 1
    50   26   27 2
    51   26   28 1
@<TRIPOS>MOLECULE
ZINC28363953
   49    52     0     0     0
SMALL
USER_CHARGES
2-[4-[(4-fluorophenyl)methyl]-1-piperidyl]-N-(2-hydroxy-1,3-benzoxazol-6-yl)-2-oxo-acetamide
@<TRIPOS>ATOM
      1 C1          0.0035    0.9802    0.0922 C.ar      1 <0>        -0.0875
      2 C2         -1.2073    1.6456    0.1220 C.ar      1 <0>        -0.1509
      3 C3         -1.2355    3.0296    0.1554 C.ar      1 <0>         0.0937
      4 C4         -0.0503    3.7454    0.1484 C.ar      1 <0>        -0.1512
      5 C5          1.1593    3.0779    0.1133 C.ar      1 <0>        -0.0885
      6 C6          1.1862    1.6960    0.0847 C.ar      1 <0>        -0.0902
      7 C7          2.5059    0.9693    0.0459 C.3       1 <0>        -0.0769
      8 C8          2.9259    0.7522   -1.4091 C.3       1 <0>        -0.0856
      9 C9          1.9273   -0.1837   -2.0939 C.3       1 <0>        -0.1307
     10 C10         2.3314   -0.3710   -3.5597 C.3       1 <0>         0.0388
     11 N1          3.7247   -0.8344   -3.6103 N.am      1 <0>        -0.5716
     12 C11         4.7539   -0.0565   -2.9072 C.3       1 <0>         0.1044
     13 C12         4.3225    0.1275   -1.4489 C.3       1 <0>        -0.1289
     14 C13         4.0526   -1.9515   -4.2892 C.2       1 <0>         0.5117
     15 O1          5.2170   -2.2761   -4.3975 O.2       1 <0>        -0.5201
     16 C14         2.9832   -2.7899   -4.9082 C.2       1 <0>         0.5155
     17 O2          1.8308   -2.4085   -4.8981 O.2       1 <0>        -0.4889
     18 N2          3.2974   -3.9702   -5.4780 N.am      1 <0>        -0.6511
     19 C15         2.3143   -4.7092   -6.1428 C.ar      1 <0>         0.1602
     20 C16         2.6488   -5.4462   -7.2764 C.ar      1 <0>        -0.1116
     21 C17         1.6978   -6.1729   -7.9358 C.ar      1 <0>        -0.0724
     22 C18         0.3809   -6.1794   -7.4733 C.ar      1 <0>         0.0342
     23 C19         0.0390   -5.4385   -6.3317 C.ar      1 <0>         0.0464
     24 C20         1.0114   -4.7098   -5.6673 C.ar      1 <0>        -0.0813
     25 O3         -1.2839   -5.6360   -6.1311 O.3       1 <0>        -0.1993
     26 C21        -1.7369   -6.4548   -7.0960 C.2       1 <0>         0.5986
     27 N3         -0.7621   -6.7857   -7.8995 N.am      1 <0>        -0.5947
     28 O4         -3.0165   -6.8745   -7.2175 O.2       1 <0>        -0.5516
     29 F1         -2.4185    3.6810    0.1897 F         1 <0>        -0.1400
     30 H1          0.0258   -0.0993    0.0702 H         1 <0>         0.1321
     31 H2         -2.1312    1.0863    0.1233 H         1 <0>         0.1355
     32 H3         -0.0711    4.8250    0.1700 H         1 <0>         0.1348
     33 H4          2.0839    3.6360    0.1078 H         1 <0>         0.1315
     34 H5          3.2699    1.5688    0.5625 H         1 <0>         0.0773
     35 H6          2.4032   -0.0045    0.5471 H         1 <0>         0.0760
     36 H7          2.9417    1.7185   -1.9344 H         1 <0>         0.0764
     37 H8          1.9293   -1.1584   -1.5841 H         1 <0>         0.0666
     38 H9          0.9197    0.2546   -2.0430 H         1 <0>         0.0823
     39 H10         1.6730   -1.1167   -4.0291 H         1 <0>         0.1620
     40 H11         2.2375    0.5874   -4.0913 H         1 <0>         0.0695
     41 H12         5.7121   -0.5953   -2.9475 H         1 <0>         0.0980
     42 H13         4.8649    0.9256   -3.3900 H         1 <0>         0.0762
     43 H14         5.0350    0.7895   -0.9350 H         1 <0>         0.0820
     44 H15         4.3014   -0.8501   -0.9451 H         1 <0>         0.0705
     45 H16         4.3274   -4.3521   -5.4200 H         1 <0>         0.4587
     46 H17         3.6670   -5.4436   -7.6366 H         1 <0>         0.1495
     47 H18         1.9651   -6.7421   -8.8139 H         1 <0>         0.1479
     48 H19         0.7555   -4.1414   -4.7853 H         1 <0>         0.1594
     49 H20        -0.7437   -7.4291   -8.7915 H         1 <0>         0.4830
@<TRIPOS>BOND
     1    1    6 ar
     2    1    2 ar
     3    1   30 1
     4    2    3 ar
     5    2   31 1
     6    3    4 ar
     7    3   29 1
     8    4    5 ar
     9    4   32 1
    10    5    6 ar
    11    5   33 1
    12    6    7 1
    13    7    8 1
    14    7   34 1
    15    7   35 1
    16    8   13 1
    17    8    9 1
    18    8   36 1
    19    9   10 1
    20    9   37 1
    21    9   38 1
    22   10   11 1
    23   10   39 1
    24   10   40 1
    25   11   12 1
    26   11   14 am
    27   12   13 1
    28   12   41 1
    29   12   42 1
    30   13   43 1
    31   13   44 1
    32   14   15 2
    33   14   16 1
    34   16   17 2
    35   16   18 am
    36   18   19 1
    37   18   45 1
    38   19   24 ar
    39   19   20 ar
    40   20   21 ar
    41   20   46 1
    42   21   22 ar
    43   21   47 1
    44   22   27 1
    45   22   23 ar
    46   23   24 ar
    47   23   25 1
    48   24   48 1
    49   25   26 1
    50   26   27 am
    51   26   28 2
    52   27   49 1
@<TRIPOS>MOLECULE
ZINC00336490
   18    19     0     0     0
SMALL
USER_CHARGES
6-chloroquinoxaline-2,3-diol
@<TRIPOS>ATOM
      1 C1          5.5378    3.5379   -1.1415 C.ar      1 <0>        -0.0893
      2 C2          4.9429    3.2511    0.0495 C.ar      1 <0>        -0.0637
      3 C3          3.6685    2.6617    0.0683 C.ar      1 <0>         0.0927
      4 C4          3.0189    2.3733   -1.1565 C.ar      1 <0>         0.1023
      5 C5          3.6617    2.6823   -2.3657 C.ar      1 <0>        -0.0728
      6 C6          4.8991    3.2538   -2.3471 C.ar      1 <0>        -0.0122
      7 Cl1         5.6897    3.6335   -3.8452 Cl        1 <0>        -0.0450
      8 N1          1.8020    1.8110   -1.1476 N.ar      1 <0>        -0.4291
      9 C7          1.2200    1.5311   -0.0014 C.ar      1 <0>         0.2952
     10 C8          1.8654    1.8236    1.2195 C.ar      1 <0>         0.2934
     11 N2          3.0619    2.3703    1.2276 N.ar      1 <0>        -0.4284
     12 O1          1.2499    1.5337    2.3925 O.3       1 <0>        -0.4610
     13 O2         -0.0110    0.9628    0.0073 O.3       1 <0>        -0.4608
     14 H1          6.5180    3.9912   -1.1519 H         1 <0>         0.1520
     15 H2          5.4497    3.4760    0.9763 H         1 <0>         0.1552
     16 H3          3.1778    2.4678   -3.3071 H         1 <0>         0.1553
     17 H4          1.4419    0.6477    2.7290 H         1 <0>         0.4079
     18 H5          0.0021   -0.0041    0.0020 H         1 <0>         0.4082
@<TRIPOS>BOND
     1    1    6 ar
     2    1    2 ar
     3    1   14 1
     4    2    3 ar
     5    2   15 1
     6    3   11 ar
     7    3    4 ar
     8    4    5 ar
     9    4    8 ar
    10    5    6 ar
    11    5   16 1
    12    6    7 1
    13    8    9 ar
    14    9   10 ar
    15    9   13 1
    16   10   11 ar
    17   10   12 1
    18   12   17 1
    19   13   18 1
@<TRIPOS>MOLECULE
ZINC00538633
   52    55     0     0     0
SMALL
USER_CHARGES
6-[(S)-2-[4-[(4-fluorophenyl)methyl]-1-piperidyl]ethylsulfinyl]-3H-1,3-benzoxazol-2-one
@<TRIPOS>ATOM
      1 C1         -0.8164    6.3912   -8.5652 C.ar      1 <0>        -0.0847
      2 C2          0.0023    6.1344   -9.6486 C.ar      1 <0>        -0.1488
      3 C3          0.0486    4.8628  -10.1945 C.ar      1 <0>         0.1050
      4 C4         -0.7209    3.8485   -9.6504 C.ar      1 <0>        -0.1515
      5 C5         -1.5342    4.1062   -8.5632 C.ar      1 <0>        -0.0912
      6 C6         -1.5800    5.3763   -8.0192 C.ar      1 <0>        -0.1074
      7 C7         -2.4676    5.6563   -6.8340 C.3       1 <0>        -0.0726
      8 C8         -1.6864    5.4084   -5.5420 C.3       1 <0>        -0.0961
      9 C9         -2.5449    5.8110   -4.3397 C.3       1 <0>        -0.1435
     10 C10        -1.7816    5.5057   -3.0489 C.3       1 <0>        -0.0033
     11 C11        -0.6057    3.6718   -4.1102 C.3       1 <0>        -0.0056
     12 C12        -1.3339    3.9224   -5.4327 C.3       1 <0>        -0.1470
     13 C13        -0.8581    3.7179   -1.7030 C.3       1 <0>         0.0177
     14 C14        -0.7755    2.1952   -1.5793 C.3       1 <0>        -0.5255
     15 S1         -0.0218    1.7577    0.0117 S.o       1 <0>         1.3861
     16 O1          1.3521    2.1202    0.0005 O.2       1 <0>        -0.8208
     17 C15         0.0021   -0.0041    0.0020 C.ar      1 <0>        -0.4726
     18 C16        -1.0728   -0.7103    0.5134 C.ar      1 <0>        -0.0169
     19 C17        -1.0638   -2.0916    0.5046 C.ar      1 <0>        -0.1157
     20 C18         0.0306   -2.7705   -0.0079 C.ar      1 <0>         0.1202
     21 C19         1.1164   -2.0598   -0.5186 C.ar      1 <0>         0.0225
     22 C20         1.0958   -0.6738   -0.5107 C.ar      1 <0>        -0.0080
     23 O2          2.0277   -2.9684   -0.9449 O.3       1 <0>        -0.2328
     24 C21         1.5554   -4.2048   -0.7213 C.2       1 <0>         0.6399
     25 O3          2.1364   -5.2380   -0.9924 O.2       1 <0>        -0.4635
     26 N1          0.3375   -4.1235   -0.1499 N.am      1 <0>        -0.6467
     27 H1         -0.2232   -4.8697    0.1141 H         1 <0>         0.4504
     28 F1          0.8437    4.6120  -11.2576 F         1 <0>        -0.1338
     29 H2         -0.8565    7.3842   -8.1424 H         1 <0>         0.1334
     30 H3          0.6024    6.9262  -10.0720 H         1 <0>         0.1395
     31 H4         -0.6859    2.8563  -10.0756 H         1 <0>         0.1382
     32 H5         -2.1345    3.3152   -8.1385 H         1 <0>         0.1304
     33 H6         -3.3352    4.9972   -6.8661 H         1 <0>         0.0809
     34 H7         -2.7985    6.6943   -6.8650 H         1 <0>         0.0861
     35 H8         -0.7711    6.0002   -5.5505 H         1 <0>         0.0915
     36 H9         -3.4774    5.2468   -4.3532 H         1 <0>         0.0904
     37 H10        -2.7635    6.8777   -4.3895 H         1 <0>         0.1144
     38 H11        -2.3959    5.7780   -2.1906 H         1 <0>         0.1327
     39 H12        -0.8558    6.0807   -3.0299 H         1 <0>         0.1304
     40 H13         0.3146    4.2554   -4.0860 H         1 <0>         0.1296
     41 H14        -0.3659    2.6121   -4.0227 H         1 <0>         0.1262
     42 H15        -2.2474    3.3285   -5.4633 H         1 <0>         0.0893
     43 H16        -0.6879    3.6395   -6.2638 H         1 <0>         0.1137
     44 H17        -1.4667    4.1159   -0.8910 H         1 <0>         0.1419
     45 H18         0.1445    4.1419   -1.6471 H         1 <0>         0.1328
     46 H19        -0.1669    1.7972   -2.3913 H         1 <0>         0.1118
     47 H20        -1.7781    1.7712   -1.6352 H         1 <0>         0.1406
     48 H21        -1.9228   -0.1799    0.9168 H         1 <0>         0.1583
     49 H22        -1.9051   -2.6410    0.9003 H         1 <0>         0.1507
     50 H23         1.9341   -0.1184   -0.9045 H         1 <0>         0.1468
     51 N2         -1.4941    4.0567   -2.9928 N.4       1 <0>        -0.3899
     52 H24        -2.3768    3.5387   -3.0756 H         1 <0>         0.4269
@<TRIPOS>BOND
     1    1    6 ar
     2    1    2 ar
     3    1   29 1
     4    2    3 ar
     5    2   30 1
     6    3    4 ar
     7    3   28 1
     8    4    5 ar
     9    4   31 1
    10    5    6 ar
    11    5   32 1
    12    6    7 1
    13    7    8 1
    14    7   33 1
    15    7   34 1
    16    8   12 1
    17    8    9 1
    18    8   35 1
    19    9   10 1
    20    9   36 1
    21    9   37 1
    22   10   38 1
    23   10   39 1
    24   10   51 1
    25   11   12 1
    26   11   40 1
    27   11   41 1
    28   11   51 1
    29   12   42 1
    30   12   43 1
    31   13   14 1
    32   13   44 1
    33   13   45 1
    34   13   51 1
    35   14   15 1
    36   14   46 1
    37   14   47 1
    38   15   16 2
    39   15   17 1
    40   17   22 ar
    41   17   18 ar
    42   18   19 ar
    43   18   48 1
    44   19   20 ar
    45   19   49 1
    46   20   26 1
    47   20   21 ar
    48   21   22 ar
    49   21   23 1
    50   22   50 1
    51   23   24 1
    52   24   25 2
    53   24   26 am
    54   26   27 1
    55   51   52 1
@<TRIPOS>MOLECULE
ZINC03982657
   52    55     0     0     0
SMALL
USER_CHARGES
6-[2-[4-[(4-fluorophenyl)methyl]-1-piperidyl]ethylsulfinyl]-3H-benzooxazol-2-one
@<TRIPOS>ATOM
      1 C1         -4.9927   10.6525   -7.9960 C.ar      1 <0>        -0.0845
      2 C2         -3.9185   11.2409   -8.6361 C.ar      1 <0>        -0.1487
      3 C3         -2.8893   10.4545   -9.1253 C.ar      1 <0>         0.1050
      4 C4         -2.9347    9.0797   -8.9671 C.ar      1 <0>        -0.1512
      5 C5         -4.0070    8.4940   -8.3213 C.ar      1 <0>        -0.0911
      6 C6         -5.0342    9.2802   -7.8337 C.ar      1 <0>        -0.1067
      7 C7         -6.2032    8.6403   -7.1301 C.3       1 <0>        -0.0736
      8 C8         -5.9073    8.5458   -5.6319 C.3       1 <0>        -0.0951
      9 C9         -7.1411    8.0115   -4.8993 C.3       1 <0>        -0.1444
     10 C10        -6.8198    7.8632   -3.4104 C.3       1 <0>        -0.0031
     11 C11        -4.4811    7.4552   -3.8968 C.3       1 <0>        -0.0061
     12 C12        -4.7326    7.5914   -5.4003 C.3       1 <0>        -0.1487
     13 C13        -5.4424    6.6658   -1.8200 C.3       1 <0>         0.0181
     14 C14        -4.4353    5.5214   -1.6894 C.3       1 <0>        -0.5243
     15 S1         -4.1293    5.1826    0.0662 S.o       1 <0>         1.3858
     16 O1         -5.2924    4.6098    0.6478 O.2       1 <0>        -0.8200
     17 C15        -2.9658    3.8595    0.0485 C.ar      1 <0>        -0.4735
     18 C16        -3.4125    2.5495    0.0462 C.ar      1 <0>        -0.0295
     19 C17        -2.5066    1.5068    0.0333 C.ar      1 <0>        -0.1138
     20 C18        -1.1468    1.7752    0.0164 C.ar      1 <0>         0.1198
     21 C19        -0.6956    3.0948    0.0240 C.ar      1 <0>         0.0212
     22 C20        -1.6123    4.1345    0.0374 C.ar      1 <0>         0.0057
     23 O2          0.6594    3.0571    0.0114 O.3       1 <0>        -0.2298
     24 C21         1.0648    1.7776    0.0014 C.2       1 <0>         0.6407
     25 O3          2.2232    1.4081   -0.0113 O.2       1 <0>        -0.4633
     26 N1         -0.0111    0.9658    0.0074 N.am      1 <0>        -0.6476
     27 H1          0.0021   -0.0041    0.0020 H         1 <0>         0.4500
     28 F1         -1.8417   11.0281   -9.7568 F         1 <0>        -0.1339
     29 H2         -5.7981   11.2652   -7.6188 H         1 <0>         0.1333
     30 H3         -3.8840   12.3134   -8.7585 H         1 <0>         0.1394
     31 H4         -2.1326    8.4653   -9.3486 H         1 <0>         0.1382
     32 H5         -4.0426    7.4217   -8.1978 H         1 <0>         0.1302
     33 H6         -6.3661    7.6403   -7.5320 H         1 <0>         0.0801
     34 H7         -7.0967    9.2448   -7.2865 H         1 <0>         0.0857
     35 H8         -5.6549    9.5341   -5.2475 H         1 <0>         0.0929
     36 H9         -7.4164    7.0404   -5.3107 H         1 <0>         0.0885
     37 H10        -7.9694    8.7088   -5.0252 H         1 <0>         0.1142
     38 H11        -7.6917    7.4694   -2.8882 H         1 <0>         0.1291
     39 H12        -6.5579    8.8371   -2.9968 H         1 <0>         0.1332
     40 H13        -4.2303    8.4310   -3.4808 H         1 <0>         0.1337
     41 H14        -3.6545    6.7651   -3.7279 H         1 <0>         0.1299
     42 H15        -4.9700    6.6136   -5.8195 H         1 <0>         0.0875
     43 H16        -3.8403    7.9881   -5.8846 H         1 <0>         0.1153
     44 H17        -6.3774    6.3840   -1.3359 H         1 <0>         0.1315
     45 H18        -5.0408    7.5594   -1.3421 H         1 <0>         0.1430
     46 H19        -3.5003    5.8032   -2.1734 H         1 <0>         0.1393
     47 H20        -4.8369    4.6278   -2.1672 H         1 <0>         0.1122
     48 H21        -4.4723    2.3419    0.0550 H         1 <0>         0.1456
     49 H22        -2.8569    0.4852    0.0319 H         1 <0>         0.1459
     50 H23        -1.2685    5.1584    0.0389 H         1 <0>         0.1596
     51 N2         -5.6975    6.9138   -3.2540 N.4       1 <0>        -0.3917
     52 H24        -5.9465    6.0264   -3.7066 H         1 <0>         0.4257
@<TRIPOS>BOND
     1    1    6 ar
     2    1    2 ar
     3    1   29 1
     4    2    3 ar
     5    2   30 1
     6    3    4 ar
     7    3   28 1
     8    4    5 ar
     9    4   31 1
    10    5    6 ar
    11    5   32 1
    12    6    7 1
    13    7    8 1
    14    7   33 1
    15    7   34 1
    16    8   12 1
    17    8    9 1
    18    8   35 1
    19    9   10 1
    20    9   36 1
    21    9   37 1
    22   10   38 1
    23   10   39 1
    24   10   51 1
    25   11   12 1
    26   11   40 1
    27   11   41 1
    28   11   51 1
    29   12   42 1
    30   12   43 1
    31   13   14 1
    32   13   44 1
    33   13   45 1
    34   13   51 1
    35   14   15 1
    36   14   46 1
    37   14   47 1
    38   15   16 2
    39   15   17 1
    40   17   22 ar
    41   17   18 ar
    42   18   19 ar
    43   18   48 1
    44   19   20 ar
    45   19   49 1
    46   20   26 1
    47   20   21 ar
    48   21   22 ar
    49   21   23 1
    50   22   50 1
    51   23   24 1
    52   24   25 2
    53   24   26 am
    54   26   27 1
    55   51   52 1
@<TRIPOS>MOLECULE
ZINC03201907
   46    49     0     0     0
SMALL
USER_CHARGES

@<TRIPOS>ATOM
      1 C1         -0.0178    1.4648    0.0101 C.3       1 <0>        -0.0541
      2 N1          0.0021   -0.0041    0.0020 N.4       1 <0>        -0.3704
      3 C2         -1.3750   -0.4988    0.0701 C.3       1 <0>        -0.0155
      4 C3         -1.3740   -2.0327    0.0720 C.3       1 <0>        -0.1325
      5 C4         -0.6000   -2.4924    1.3162 C.3       1 <0>        -0.0191
      6 C5         -0.6317   -4.0111    1.4284 C.3       1 <0>        -0.1087
      7 C6          0.1733   -4.4520    2.6537 C.3       1 <0>        -0.1256
      8 C7          1.6184   -3.9692    2.5143 C.3       1 <0>        -0.1195
      9 C8          1.6413   -2.4424    2.4159 C.3       1 <0>        -0.1147
     10 C9          0.8433   -1.9991    1.1883 C.3       1 <0>        -0.0848
     11 H1          1.2952   -2.4125    0.2866 H         1 <0>         0.1023
     12 C10         0.8089   -0.4721    1.1198 C.3       1 <0>         0.0267
     13 H2          1.8300   -0.1263    0.9584 H         1 <0>         0.1343
     14 C11         0.3561    0.0989    2.4510 C.3       1 <0>        -0.0880
     15 C12        -0.8070   -0.6582    3.0329 C.ar      1 <0>        -0.1438
     16 C13        -1.2457   -1.8607    2.5233 C.ar      1 <0>        -0.0305
     17 C14        -2.3081   -2.5221    3.1185 C.ar      1 <0>        -0.1475
     18 C15        -2.9456   -1.9742    4.2198 C.ar      1 <0>         0.1453
     19 C16        -2.5143   -0.7560    4.7243 C.ar      1 <0>        -0.2001
     20 C17        -1.4521   -0.1058    4.1333 C.ar      1 <0>        -0.0688
     21 O1         -3.9867   -2.6255    4.8018 O.3       1 <0>        -0.3119
     22 C18        -4.5935   -1.9982    5.9333 C.3       1 <0>         0.0236
     23 H3          1.0041    1.8418    0.0487 H         1 <0>         0.1253
     24 H4         -0.5046    1.8265   -0.8956 H         1 <0>         0.1263
     25 H5         -0.5678    1.8159    0.8832 H         1 <0>         0.1235
     26 H6         -1.8462   -0.1353    0.9832 H         1 <0>         0.1323
     27 H7         -1.9332   -0.1377   -0.7937 H         1 <0>         0.1313
     28 H8         -2.3981   -2.4035    0.1152 H         1 <0>         0.1146
     29 H9         -0.8828   -2.4037   -0.8275 H         1 <0>         0.0950
     30 H10        -1.6637   -4.3460    1.5323 H         1 <0>         0.0783
     31 H11        -0.1965   -4.4505    0.5308 H         1 <0>         0.0756
     32 H12        -0.2684   -4.0221    3.5527 H         1 <0>         0.0693
     33 H13         0.1589   -5.5395    2.7259 H         1 <0>         0.0726
     34 H14         2.1924   -4.2855    3.3853 H         1 <0>         0.0732
     35 H15         2.0591   -4.3977    1.6142 H         1 <0>         0.0669
     36 H16         1.1954   -2.0136    3.3134 H         1 <0>         0.0798
     37 H17         2.6718   -2.0996    2.3226 H         1 <0>         0.0738
     38 H18         1.1889    0.0610    3.1532 H         1 <0>         0.1169
     39 H19         0.0642    1.1393    2.3081 H         1 <0>         0.0939
     40 H20        -2.6412   -3.4697    2.7215 H         1 <0>         0.1386
     41 H21        -3.0097   -0.3180    5.5782 H         1 <0>         0.1351
     42 H22        -1.1179    0.8418    4.5290 H         1 <0>         0.1291
     43 H23        -3.8503   -1.8717    6.7206 H         1 <0>         0.0602
     44 H24        -4.9840   -1.0231    5.6422 H         1 <0>         0.0594
     45 H25        -5.4090   -2.6214    6.3003 H         1 <0>         0.1083
     46 H26         0.4207   -0.3210   -0.8596 H         1 <0>         0.4244
@<TRIPOS>BOND
     1    1    2 1
     2    1   23 1
     3    1   24 1
     4    1   25 1
     5    2   12 1
     6    2    3 1
     7    2   46 1
     8    3    4 1
     9    3   26 1
    10    3   27 1
    11    4    5 1
    12    4   28 1
    13    4   29 1
    14    5   10 1
    15    5   16 1
    16    5    6 1
    17    6    7 1
    18    6   30 1
    19    6   31 1
    20    7    8 1
    21    7   32 1
    22    7   33 1
    23    8    9 1
    24    8   34 1
    25    8   35 1
    26    9   10 1
    27    9   36 1
    28    9   37 1
    29   10   11 1
    30   10   12 1
    31   12   13 1
    32   12   14 1
    33   14   15 1
    34   14   38 1
    35   14   39 1
    36   15   20 ar
    37   15   16 ar
    38   16   17 ar
    39   17   18 ar
    40   17   40 1
    41   18   19 ar
    42   18   21 1
    43   19   20 ar
    44   19   41 1
    45   20   42 1
    46   21   22 1
    47   22   43 1
    48   22   44 1
    49   22   45 1
@<TRIPOS>MOLECULE
ZINC22028288
   32    32     0     0     0
SMALL
USER_CHARGES

@<TRIPOS>ATOM
      1 C1         -0.0178    1.4646    0.0101 C.3       1 <0>        -0.0021
      2 C2          1.4177    1.9945   -0.0008 C.3       1 <0>         0.0195
      3 N1          2.1091    1.5033   -1.2012 N.3       1 <0>        -0.5387
      4 C3          2.1152    0.0340   -1.2356 C.3       1 <0>         0.0516
      5 C4          0.6738   -0.4797   -1.2145 C.3       1 <0>        -0.0413
      6 H1          0.1431   -0.1087   -2.0913 H         1 <0>         0.1387
      7 N2          0.0021   -0.0041    0.0020 N.4       1 <0>        -0.4837
      8 C5          0.6774   -1.9866   -1.2299 C.2       1 <0>         0.4937
      9 O1          0.3358   -2.6072   -0.2376 O.co2     1 <0>        -0.6772
     10 O2          1.0218   -2.5852   -2.2347 O.co2     1 <0>        -0.6364
     11 C6          3.4755    2.0374   -1.2772 C.3       1 <0>         0.0599
     12 C7          3.4202    3.5524   -1.4833 C.3       1 <0>        -0.0877
     13 C8          4.8433    4.1086   -1.5626 C.3       1 <0>        -0.7296
     14 P1          4.7774    5.9138   -1.8081 P.3       1 <0>         2.2588
     15 O3          3.9209    6.2332   -3.0537 O.2       1 <0>        -1.0956
     16 O4          4.1468    6.5799   -0.5649 O.3       1 <0>        -1.0987
     17 O5          6.2688    6.4810   -2.0225 O.3       1 <0>        -0.9059
     18 H2         -0.5281    1.8161    0.9069 H         1 <0>         0.1295
     19 H3         -0.5451    1.8257   -0.8730 H         1 <0>         0.1332
     20 H4          1.4031    3.0843   -0.0098 H         1 <0>         0.1256
     21 H5          1.9412    1.6448    0.8891 H         1 <0>         0.0535
     22 H6          2.6093   -0.3064   -2.1455 H         1 <0>         0.1178
     23 H7          2.6501   -0.3479   -0.3661 H         1 <0>         0.0497
     24 H8          0.5002   -0.3379    0.8135 H         1 <0>         0.4219
     25 H9          4.0043    1.8158   -0.3502 H         1 <0>         0.0346
     26 H10         3.9999    1.5758   -2.1139 H         1 <0>         0.0787
     27 H11         2.8913    3.7739   -2.4103 H         1 <0>         0.0847
     28 H12         2.8957    4.0140   -0.6466 H         1 <0>         0.0686
     29 H13         5.3721    3.8871   -0.6355 H         1 <0>         0.0680
     30 H14         5.3677    3.6470   -2.3992 H         1 <0>         0.0706
     31 H15         6.3100    7.4374   -2.1595 H         1 <0>         0.4126
     32 H16        -0.9444   -0.3532    0.0217 H         1 <0>         0.4258
@<TRIPOS>BOND
     1    1    7 1
     2    1    2 1
     3    1   18 1
     4    1   19 1
     5    2    3 1
     6    2   20 1
     7    2   21 1
     8    3    4 1
     9    3   11 1
    10    4    5 1
    11    4   22 1
    12    4   23 1
    13    5    6 1
    14    5    7 1
    15    5    8 1
    16    7   24 1
    17    7   32 1
    18    8    9 2
    19    8   10 1
    20   11   12 1
    21   11   25 1
    22   11   26 1
    23   12   13 1
    24   12   27 1
    25   12   28 1
    26   13   14 1
    27   13   29 1
    28   13   30 1
    29   14   15 2
    30   14   16 1
    31   14   17 1
    32   17   31 1
@<TRIPOS>MOLECULE
ZINC22028288
   31    31     0     0     0
SMALL
USER_CHARGES

@<TRIPOS>ATOM
      1 C1         -0.0178    1.4646    0.0101 C.3       1 <0>        -0.0013
      2 C2          1.4177    1.9945   -0.0008 C.3       1 <0>         0.0193
      3 N1          2.1091    1.5033   -1.2012 N.3       1 <0>        -0.5378
      4 C3          2.1152    0.0340   -1.2356 C.3       1 <0>         0.0504
      5 C4          0.6738   -0.4797   -1.2145 C.3       1 <0>        -0.0405
      6 H1          0.1431   -0.1087   -2.0913 H         1 <0>         0.1377
      7 N2          0.0021   -0.0041    0.0020 N.4       1 <0>        -0.4825
      8 C5          0.6774   -1.9866   -1.2299 C.2       1 <0>         0.4958
      9 O1          0.3358   -2.6072   -0.2376 O.co2     1 <0>        -0.6821
     10 O2          1.0218   -2.5852   -2.2347 O.co2     1 <0>        -0.6392
     11 C6          3.4755    2.0374   -1.2772 C.3       1 <0>         0.0593
     12 C7          3.4202    3.5524   -1.4833 C.3       1 <0>        -0.0800
     13 C8          4.8433    4.1086   -1.5626 C.3       1 <0>        -0.7273
     14 P1          4.7774    5.9138   -1.8081 P.3       1 <0>         2.2121
     15 O3          3.9089    6.2377   -3.0711 O.2       1 <0>        -1.1806
     16 O4          4.1380    6.5893   -0.5474 O.3       1 <0>        -1.1837
     17 O5          6.2287    6.4657   -2.0167 O.3       1 <0>        -1.1866
     18 H2         -0.5281    1.8161    0.9069 H         1 <0>         0.1273
     19 H3         -0.5451    1.8257   -0.8730 H         1 <0>         0.1326
     20 H4          1.4031    3.0843   -0.0098 H         1 <0>         0.1290
     21 H5          1.9412    1.6448    0.8891 H         1 <0>         0.0510
     22 H6          2.6093   -0.3064   -2.1455 H         1 <0>         0.1156
     23 H7          2.6501   -0.3479   -0.3661 H         1 <0>         0.0460
     24 H8          0.5002   -0.3379    0.8135 H         1 <0>         0.4207
     25 H9          4.0043    1.8158   -0.3502 H         1 <0>         0.0297
     26 H10         3.9999    1.5758   -2.1139 H         1 <0>         0.0741
     27 H11         2.8913    3.7739   -2.4103 H         1 <0>         0.0737
     28 H12         2.8957    4.0140   -0.6466 H         1 <0>         0.0572
     29 H13         5.3721    3.8871   -0.6355 H         1 <0>         0.0419
     30 H14         5.3677    3.6470   -2.3992 H         1 <0>         0.0461
     31 H15        -0.9444   -0.3532    0.0217 H         1 <0>         0.4219
@<TRIPOS>BOND
     1    1    7 1
     2    1    2 1
     3    1   18 1
     4    1   19 1
     5    2    3 1
     6    2   20 1
     7    2   21 1
     8    3    4 1
     9    3   11 1
    10    4    5 1
    11    4   22 1
    12    4   23 1
    13    5    6 1
    14    5    7 1
    15    5    8 1
    16    7   24 1
    17    7   31 1
    18    8    9 2
    19    8   10 1
    20   11   12 1
    21   11   25 1
    22   11   26 1
    23   12   13 1
    24   12   27 1
    25   12   28 1
    26   13   14 1
    27   13   29 1
    28   13   30 1
    29   14   15 2
    30   14   16 1
    31   14   17 1
@<TRIPOS>MOLECULE
ZINC22033348
   32    32     0     0     0
SMALL
USER_CHARGES

@<TRIPOS>ATOM
      1 C1         -0.0178    1.4646    0.0101 C.3       1 <0>        -0.0020
      2 C2          1.4177    1.9945   -0.0008 C.3       1 <0>         0.0198
      3 N1          2.1318    1.4905    1.1809 N.3       1 <0>        -0.5385
      4 C3          2.1384    0.0209    1.1994 C.3       1 <0>         0.0499
      5 C4          0.6969   -0.4926    1.2004 C.3       1 <0>        -0.0402
      6 H1          0.1830   -0.1311    2.0910 H         1 <0>         0.1380
      7 N2          0.0021   -0.0041    0.0020 N.4       1 <0>        -0.4854
      8 C5          0.7006   -1.9996    1.1995 C.2       1 <0>         0.4915
      9 O1          0.7030   -2.6099    2.2550 O.co2     1 <0>        -0.6375
     10 O2          0.7011   -2.6086    0.1432 O.co2     1 <0>        -0.6728
     11 C6          3.4995    2.0239    1.2366 C.3       1 <0>         0.0598
     12 C7          3.4483    3.5366    1.4599 C.3       1 <0>        -0.0878
     13 C8          4.8727    4.0921    1.5180 C.3       1 <0>        -0.7296
     14 P1          4.8117    5.8945    1.7841 P.3       1 <0>         2.2588
     15 O3          3.9400    6.5476    0.6884 O.2       1 <0>        -1.0979
     16 O4          4.2010    6.1898    3.1722 O.3       1 <0>        -1.0962
     17 O5          6.3027    6.4980    1.7143 O.3       1 <0>        -0.9060
     18 H2         -0.5281    1.8161    0.9069 H         1 <0>         0.1335
     19 H3         -0.5451    1.8257   -0.8730 H         1 <0>         0.1295
     20 H4          1.9241    1.6544   -0.9041 H         1 <0>         0.0538
     21 H5          1.4034    3.0842    0.0203 H         1 <0>         0.1261
     22 H6          2.6566   -0.3516    0.3158 H         1 <0>         0.0531
     23 H7          2.6498   -0.3292    2.0960 H         1 <0>         0.1143
     24 H8         -0.9446   -0.3530   -0.0034 H         1 <0>         0.4239
     25 H9          4.0397    1.5534    2.0581 H         1 <0>         0.0785
     26 H10         4.0105    1.8123    0.2973 H         1 <0>         0.0348
     27 H11         2.9080    4.0071    0.6384 H         1 <0>         0.0717
     28 H12         2.9373    3.7481    2.3992 H         1 <0>         0.0818
     29 H13         5.4130    3.6216    2.3395 H         1 <0>         0.0721
     30 H14         5.3837    3.8805    0.5787 H         1 <0>         0.0665
     31 H15         6.3463    7.4548    1.8476 H         1 <0>         0.4126
     32 H16         0.4846   -0.3292   -0.8223 H         1 <0>         0.4236
@<TRIPOS>BOND
     1    1    7 1
     2    1    2 1
     3    1   18 1
     4    1   19 1
     5    2    3 1
     6    2   20 1
     7    2   21 1
     8    3    4 1
     9    3   11 1
    10    4    5 1
    11    4   22 1
    12    4   23 1
    13    5    6 1
    14    5    7 1
    15    5    8 1
    16    7   24 1
    17    7   32 1
    18    8    9 2
    19    8   10 1
    20   11   12 1
    21   11   25 1
    22   11   26 1
    23   12   13 1
    24   12   27 1
    25   12   28 1
    26   13   14 1
    27   13   29 1
    28   13   30 1
    29   14   15 2
    30   14   16 1
    31   14   17 1
    32   17   31 1
@<TRIPOS>MOLECULE
ZINC22033348
   31    31     0     0     0
SMALL
USER_CHARGES

@<TRIPOS>ATOM
      1 C1         -0.0178    1.4646    0.0101 C.3       1 <0>        -0.0011
      2 C2          1.4177    1.9945   -0.0008 C.3       1 <0>         0.0195
      3 N1          2.1318    1.4905    1.1809 N.3       1 <0>        -0.5376
      4 C3          2.1384    0.0209    1.1994 C.3       1 <0>         0.0487
      5 C4          0.6969   -0.4926    1.2004 C.3       1 <0>        -0.0393
      6 H1          0.1830   -0.1311    2.0910 H         1 <0>         0.1370
      7 N2          0.0021   -0.0041    0.0020 N.4       1 <0>        -0.4842
      8 C5          0.7006   -1.9996    1.1995 C.2       1 <0>         0.4938
      9 O1          0.7030   -2.6099    2.2550 O.co2     1 <0>        -0.6413
     10 O2          0.7011   -2.6086    0.1432 O.co2     1 <0>        -0.6768
     11 C6          3.4995    2.0239    1.2366 C.3       1 <0>         0.0592
     12 C7          3.4483    3.5366    1.4599 C.3       1 <0>        -0.0801
     13 C8          4.8727    4.0921    1.5180 C.3       1 <0>        -0.7273
     14 P1          4.8117    5.8945    1.7841 P.3       1 <0>         2.2124
     15 O3          3.9277    6.5568    0.6730 O.2       1 <0>        -1.1828
     16 O4          4.1924    6.1939    3.1916 O.3       1 <0>        -1.1815
     17 O5          6.2625    6.4818    1.7162 O.3       1 <0>        -1.1868
     18 H2         -0.5281    1.8161    0.9069 H         1 <0>         0.1328
     19 H3         -0.5451    1.8257   -0.8730 H         1 <0>         0.1274
     20 H4          1.9241    1.6544   -0.9041 H         1 <0>         0.0515
     21 H5          1.4034    3.0842    0.0203 H         1 <0>         0.1298
     22 H6          2.6566   -0.3516    0.3158 H         1 <0>         0.0496
     23 H7          2.6498   -0.3292    2.0960 H         1 <0>         0.1120
     24 H8         -0.9446   -0.3530   -0.0034 H         1 <0>         0.4198
     25 H9          4.0397    1.5534    2.0581 H         1 <0>         0.0736
     26 H10         4.0105    1.8123    0.2973 H         1 <0>         0.0302
     27 H11         2.9080    4.0071    0.6384 H         1 <0>         0.0611
     28 H12         2.9373    3.7481    2.3992 H         1 <0>         0.0701
     29 H13         5.4130    3.6216    2.3395 H         1 <0>         0.0460
     30 H14         5.3837    3.8805    0.5787 H         1 <0>         0.0421
     31 H15         0.4846   -0.3292   -0.8223 H         1 <0>         0.4224
@<TRIPOS>BOND
     1    1    7 1
     2    1    2 1
     3    1   18 1
     4    1   19 1
     5    2    3 1
     6    2   20 1
     7    2   21 1
     8    3    4 1
     9    3   11 1
    10    4    5 1
    11    4   22 1
    12    4   23 1
    13    5    6 1
    14    5    7 1
    15    5    8 1
    16    7   24 1
    17    7   31 1
    18    8    9 2
    19    8   10 1
    20   11   12 1
    21   11   25 1
    22   11   26 1
    23   12   13 1
    24   12   27 1
    25   12   28 1
    26   13   14 1
    27   13   29 1
    28   13   30 1
    29   14   15 2
    30   14   16 1
    31   14   17 1
@<TRIPOS>MOLECULE
ZINC15020542
   24    25     0     0     0
SMALL
USER_CHARGES

@<TRIPOS>ATOM
      1 C1         -0.0184    1.5028    0.0103 C.3       1 <0>        -0.1185
      2 C2          0.0021   -0.0041    0.0020 C.ar      1 <0>        -0.0696
      3 C3          0.0057   -0.6850   -1.1984 C.ar      1 <0>        -0.1160
      4 C4          0.0245   -2.0750   -1.2099 C.ar      1 <0>         0.1154
      5 C5          0.0393   -2.7770   -0.0030 C.ar      1 <0>         0.1154
      6 C6          0.0350   -2.0801    1.1999 C.ar      1 <0>        -0.1161
      7 C7          0.0229   -0.7001    1.1986 C.ar      1 <0>        -0.0696
      8 C8          0.0255    0.0520    2.5046 C.3       1 <0>        -0.1185
      9 N1          0.0577   -4.1689    0.0065 N.am      1 <0>        -0.6332
     10 C9          0.0620   -4.8530   -1.1556 C.2       1 <0>         0.5080
     11 C10         0.0467   -4.1031   -2.4449 C.2       1 <0>         0.5080
     12 N2          0.0280   -2.7549   -2.4246 N.am      1 <0>        -0.6332
     13 O1          0.0506   -4.7007   -3.5023 O.2       1 <0>        -0.4681
     14 O2          0.0784   -6.0675   -1.1526 O.2       1 <0>        -0.4681
     15 H1          1.0042    1.8801    0.0026 H         1 <0>         0.0758
     16 H2         -0.5455    1.8639   -0.8728 H         1 <0>         0.0701
     17 H3         -0.5286    1.8543    0.9071 H         1 <0>         0.0740
     18 H4         -0.0065   -0.1377   -2.1294 H         1 <0>         0.1395
     19 H5          0.0461   -2.6189    2.1359 H         1 <0>         0.1395
     20 H6         -1.0014    0.2196    2.8293 H         1 <0>         0.0758
     21 H7          0.5545   -0.5311    3.2585 H         1 <0>         0.0701
     22 H8          0.5254    1.0113    2.3704 H         1 <0>         0.0740
     23 H9          0.0170   -2.2581   -3.2577 H         1 <0>         0.4227
     24 H10         0.0679   -4.6474    0.8502 H         1 <0>         0.4227
@<TRIPOS>BOND
     1    1    2 1
     2    1   15 1
     3    1   16 1
     4    1   17 1
     5    2    7 ar
     6    2    3 ar
     7    3    4 ar
     8    3   18 1
     9    4   12 1
    10    4    5 ar
    11    5    6 ar
    12    5    9 1
    13    6    7 ar
    14    6   19 1
    15    7    8 1
    16    8   20 1
    17    8   21 1
    18    8   22 1
    19    9   10 am
    20    9   24 1
    21   10   11 1
    22   10   14 2
    23   11   12 am
    24   11   13 2
    25   12   23 1
@<TRIPOS>MOLECULE
ZINC13829431
   43    45     0     0     0
SMALL
USER_CHARGES

@<TRIPOS>ATOM
      1 C1          0.1416    1.6069    0.1038 C.3       1 <0>        -0.1611
      2 C2          0.1684    0.0784    0.0434 C.3       1 <0>         0.1179
      3 H1         -0.8507   -0.3001   -0.0359 H         1 <0>         0.0467
      4 C3          0.9630   -0.3629   -1.1587 C.ar      1 <0>        -0.0630
      5 C4          2.3443   -0.3805   -1.1055 C.ar      1 <0>        -0.0963
      6 C5          3.0735   -0.7856   -2.2076 C.ar      1 <0>        -0.0906
      7 C6          2.4209   -1.1735   -3.3639 C.ar      1 <0>        -0.0957
      8 C7          1.0388   -1.1557   -3.4167 C.ar      1 <0>        -0.0914
      9 C8          0.3103   -0.7555   -2.3123 C.ar      1 <0>        -0.1117
     10 Br1         3.4179   -1.7272   -4.8723 Br        1 <0>        -0.0608
     11 N1          0.7931   -0.4491    1.2638 N.3       1 <0>        -0.6424
     12 C9         -0.1906   -0.5721    2.3478 C.3       1 <0>        -0.4605
     13 H2         -1.1954   -0.4562    1.9415 H         1 <0>         0.0812
     14 C10        -0.0622   -1.9289    2.9911 C.ar      1 <0>        -0.0782
     15 C11         1.1792   -2.5190    3.1145 C.ar      1 <0>        -0.1020
     16 C12         1.3033   -3.7655    3.7041 C.ar      1 <0>        -0.1037
     17 C13         0.1865   -4.4271    4.1728 C.ar      1 <0>        -0.1257
     18 C14        -1.0693   -3.8425    4.0545 C.ar      1 <0>         0.1113
     19 C15        -1.1938   -2.5829    3.4650 C.ar      1 <0>         0.1386
     20 N2         -2.4418   -1.9788    3.3420 N.am      1 <0>        -0.6186
     21 C16        -3.5446   -2.6058    3.7993 C.2       1 <0>         0.5081
     22 C17        -3.4109   -3.9485    4.4350 C.2       1 <0>         0.5122
     23 N3         -2.1911   -4.5160    4.5296 N.am      1 <0>        -0.6301
     24 O1         -4.3919   -4.5295    4.8535 O.2       1 <0>        -0.4801
     25 O2         -4.6357   -2.0824    3.6950 O.2       1 <0>        -0.4744
     26 P1          0.1138    0.7227    3.5945 P.3       1 <0>         2.2764
     27 O3         -0.1406    2.1115    2.9673 O.2       1 <0>        -1.0799
     28 O4         -0.8382    0.5170    4.7938 O.3       1 <0>        -1.0911
     29 O5          1.6400    0.6333    4.0994 O.3       1 <0>        -0.8935
     30 H3          1.1607    1.9854    0.1831 H         1 <0>         0.0612
     31 H4         -0.3219    1.9983   -0.8017 H         1 <0>         0.0427
     32 H5         -0.4331    1.9261    0.9733 H         1 <0>         0.1200
     33 H6          2.8537   -0.0773   -0.2028 H         1 <0>         0.1439
     34 H7          4.1526   -0.7990   -2.1660 H         1 <0>         0.1322
     35 H8          0.5288   -1.4585   -4.3193 H         1 <0>         0.1297
     36 H9         -0.7689   -0.7455   -2.3521 H         1 <0>         0.1281
     37 H10         1.2467   -1.3325    1.0851 H         1 <0>         0.3344
     38 H11         2.0571   -2.0067    2.7494 H         1 <0>         0.1427
     39 H12         2.2777   -4.2219    3.7973 H         1 <0>         0.1353
     40 H13         0.2881   -5.3996    4.6314 H         1 <0>         0.1365
     41 H14         1.8733    1.2943    4.7656 H         1 <0>         0.4093
     42 H15        -2.0938   -5.3892    4.9406 H         1 <0>         0.4192
     43 H16        -2.5184   -1.1053    2.9271 H         1 <0>         0.4234
@<TRIPOS>BOND
     1    1    2 1
     2    1   30 1
     3    1   31 1
     4    1   32 1
     5    2    3 1
     6    2    4 1
     7    2   11 1
     8    4    9 ar
     9    4    5 ar
    10    5    6 ar
    11    5   33 1
    12    6    7 ar
    13    6   34 1
    14    7    8 ar
    15    7   10 1
    16    8    9 ar
    17    8   35 1
    18    9   36 1
    19   11   12 1
    20   11   37 1
    21   12   13 1
    22   12   14 1
    23   12   26 1
    24   14   19 ar
    25   14   15 ar
    26   15   16 ar
    27   15   38 1
    28   16   17 ar
    29   16   39 1
    30   17   18 ar
    31   17   40 1
    32   18   23 1
    33   18   19 ar
    34   19   20 1
    35   20   21 am
    36   20   43 1
    37   21   22 1
    38   21   25 2
    39   22   23 am
    40   22   24 2
    41   23   42 1
    42   26   27 2
    43   26   28 1
    44   26   29 1
    45   29   41 1
@<TRIPOS>MOLECULE
ZINC13829431
   43    45     0     0     0
SMALL
USER_CHARGES

@<TRIPOS>ATOM
      1 C1         -0.5197   -2.5153   -0.9883 C.3       1 <0>        -0.1705
      2 C2         -1.3740   -1.9647    0.1553 C.3       1 <0>         0.0549
      3 H1         -2.4018   -2.3087    0.0393 H         1 <0>         0.1440
      4 C3         -0.8264   -2.4532    1.4716 C.ar      1 <0>        -0.1101
      5 C4          0.2671   -1.8271    2.0401 C.ar      1 <0>        -0.1108
      6 C5          0.7695   -2.2744    3.2476 C.ar      1 <0>        -0.0758
      7 C6          0.1778   -3.3488    3.8871 C.ar      1 <0>        -0.0787
      8 C7         -0.9164   -3.9750    3.3179 C.ar      1 <0>        -0.0842
      9 C8         -1.4213   -3.5236    2.1130 C.ar      1 <0>        -0.0856
     10 Br1         0.8650   -3.9617    5.5388 Br        1 <0>        -0.0385
     11 N1         -1.3430   -0.4963    0.1267 N.4       1 <0>        -0.4666
     12 C9         -2.0000   -0.0164   -1.0964 C.3       1 <0>        -0.5004
     13 H2         -1.5524   -0.5017   -1.9637 H         1 <0>         0.1322
     14 C10        -3.4695   -0.3455   -1.0394 C.ar      1 <0>        -0.0672
     15 C11        -4.0492   -0.7079    0.1595 C.ar      1 <0>        -0.1239
     16 C12        -5.3986   -1.0117    0.2180 C.ar      1 <0>        -0.0975
     17 C13        -6.1741   -0.9544   -0.9222 C.ar      1 <0>        -0.1216
     18 C14        -5.6016   -0.5902   -2.1356 C.ar      1 <0>         0.1208
     19 C15        -4.2418   -0.2783   -2.1934 C.ar      1 <0>         0.1541
     20 N2         -3.6512    0.0935   -3.3979 N.am      1 <0>        -0.6016
     21 C16        -4.3928    0.1617   -4.5220 C.2       1 <0>         0.5095
     22 C17        -5.8467   -0.1652   -4.4589 C.2       1 <0>         0.5113
     23 N3         -6.3902   -0.5347   -3.2813 N.am      1 <0>        -0.6323
     24 O1         -6.5320   -0.1094   -5.4602 O.2       1 <0>        -0.4790
     25 O2         -3.8822    0.4864   -5.5751 O.2       1 <0>        -0.4652
     26 P1         -1.7864    1.7889   -1.2326 P.3       1 <0>         2.0731
     27 O3         -2.5804    2.4970   -0.0826 O.2       1 <0>        -1.1067
     28 O4         -0.2654    2.1453   -1.1132 O.3       1 <0>        -1.1174
     29 O5         -2.3296    2.2759   -2.6190 O.3       1 <0>        -1.0939
     30 H3         -0.4643   -3.6011   -0.9102 H         1 <0>         0.0970
     31 H4         -0.9703   -2.2422   -1.9425 H         1 <0>         0.0832
     32 H5          0.4841   -2.0949   -0.9269 H         1 <0>         0.0833
     33 H6          0.7292   -0.9884    1.5405 H         1 <0>         0.1389
     34 H7          1.6240   -1.7854    3.6915 H         1 <0>         0.1447
     35 H8         -1.3787   -4.8139    3.8169 H         1 <0>         0.1413
     36 H9         -2.2781   -4.0099    1.6705 H         1 <0>         0.1410
     37 H10        -1.8283   -0.1339    0.9336 H         1 <0>         0.4257
     38 H11        -3.4478   -0.7549    1.0553 H         1 <0>         0.1174
     39 H12        -5.8460   -1.2949    1.1593 H         1 <0>         0.1366
     40 H13        -7.2263   -1.1930   -0.8719 H         1 <0>         0.1393
     41 H14        -7.3346   -0.7500   -3.2301 H         1 <0>         0.4186
     42 H15        -2.7048    0.3042   -3.4285 H         1 <0>         0.4303
     43 H16        -0.3850   -0.1799    0.1402 H         1 <0>         0.4307
@<TRIPOS>BOND
     1    1    2 1
     2    1   30 1
     3    1   31 1
     4    1   32 1
     5    2    3 1
     6    2    4 1
     7    2   11 1
     8    4    9 ar
     9    4    5 ar
    10    5    6 ar
    11    5   33 1
    12    6    7 ar
    13    6   34 1
    14    7    8 ar
    15    7   10 1
    16    8    9 ar
    17    8   35 1
    18    9   36 1
    19   11   12 1
    20   11   37 1
    21   11   43 1
    22   12   13 1
    23   12   14 1
    24   12   26 1
    25   14   19 ar
    26   14   15 ar
    27   15   16 ar
    28   15   38 1
    29   16   17 ar
    30   16   39 1
    31   17   18 ar
    32   17   40 1
    33   18   23 1
    34   18   19 ar
    35   19   20 1
    36   20   21 am
    37   20   42 1
    38   21   22 1
    39   21   25 2
    40   22   23 am
    41   22   24 2
    42   23   41 1
    43   26   27 2
    44   26   28 1
    45   26   29 1
@<TRIPOS>MOLECULE
ZINC13829431
   42    44     0     0     0
SMALL
USER_CHARGES

@<TRIPOS>ATOM
      1 C1          0.1560    1.6195    0.1183 C.3       1 <0>        -0.1622
      2 C2          0.1714    0.0912    0.0475 C.3       1 <0>         0.1176
      3 H1         -0.8506   -0.2791   -0.0334 H         1 <0>         0.0349
      4 C3          0.9617   -0.3479   -1.1582 C.ar      1 <0>        -0.0494
      5 C4          2.3428   -0.3760   -1.1063 C.ar      1 <0>        -0.0923
      6 C5          3.0681   -0.7791   -2.2118 C.ar      1 <0>        -0.0916
      7 C6          2.4117   -1.1543   -3.3701 C.ar      1 <0>        -0.1013
      8 C7          1.0297   -1.1259   -3.4216 C.ar      1 <0>        -0.0955
      9 C8          0.3051   -0.7278   -2.3139 C.ar      1 <0>        -0.1164
     10 Br1         3.4034   -1.7052   -4.8830 Br        1 <0>        -0.0740
     11 N1          0.7931   -0.4491    1.2638 N.3       1 <0>        -0.6206
     12 C9         -0.1906   -0.5721    2.3478 C.3       1 <0>        -0.4519
     13 H2         -1.1954   -0.4562    1.9415 H         1 <0>         0.0469
     14 C10        -0.0622   -1.9289    2.9911 C.ar      1 <0>        -0.0265
     15 C11         1.1792   -2.5190    3.1145 C.ar      1 <0>        -0.1010
     16 C12         1.3034   -3.7653    3.7045 C.ar      1 <0>        -0.1040
     17 C13         0.1866   -4.4267    4.1736 C.ar      1 <0>        -0.1476
     18 C14        -1.0692   -3.8421    4.0553 C.ar      1 <0>         0.1015
     19 C15        -1.1938   -2.5829    3.4650 C.ar      1 <0>         0.1245
     20 N2         -2.4419   -1.9789    3.3417 N.am      1 <0>        -0.6069
     21 H3         -2.5184   -1.1056    2.9265 H         1 <0>         0.4249
     22 C16        -3.5447   -2.6064    3.7983 C.2       1 <0>         0.5038
     23 O1         -4.6360   -2.0838    3.6922 O.2       1 <0>        -0.4948
     24 C17        -3.4109   -3.9488    4.4344 C.2       1 <0>         0.5128
     25 O2         -4.3922   -4.5305    4.8516 O.2       1 <0>        -0.5002
     26 N3         -2.1910   -4.5154    4.5309 N.am      1 <0>        -0.6247
     27 H4         -2.0936   -5.3885    4.9422 H         1 <0>         0.4136
     28 P1          0.1138    0.7227    3.5945 P.3       1 <0>         2.2006
     29 O3          1.6486    0.8048    3.8981 O.2       1 <0>        -1.1550
     30 O4         -0.3846    2.1030    3.0462 O.3       1 <0>        -1.1598
     31 O5         -0.6608    0.3730    4.9105 O.3       1 <0>        -1.1694
     32 H5          1.1779    1.9898    0.1992 H         1 <0>         0.0593
     33 H6         -0.3054    2.0204   -0.7842 H         1 <0>         0.0309
     34 H7         -0.4156    1.9371    0.9904 H         1 <0>         0.1275
     35 H8          2.8552   -0.0827   -0.2020 H         1 <0>         0.1505
     36 H9          4.1471   -0.8008   -2.1712 H         1 <0>         0.1300
     37 H10         0.5168   -1.4188   -4.3257 H         1 <0>         0.1251
     38 H11        -0.7741   -0.7095   -2.3527 H         1 <0>         0.1259
     39 H12         2.0570   -2.0069    2.7491 H         1 <0>         0.1440
     40 H13         2.2777   -4.2217    3.7977 H         1 <0>         0.1277
     41 H14         0.2883   -5.3990    4.6326 H         1 <0>         0.1271
     42 H15         1.2399   -1.3347    1.0788 H         1 <0>         0.3162
@<TRIPOS>BOND
     1    1    2 1
     2    1   32 1
     3    1   33 1
     4    1   34 1
     5    2    3 1
     6    2    4 1
     7    2   11 1
     8    4    9 ar
     9    4    5 ar
    10    5    6 ar
    11    5   35 1
    12    6    7 ar
    13    6   36 1
    14    7    8 ar
    15    7   10 1
    16    8    9 ar
    17    8   37 1
    18    9   38 1
    19   11   12 1
    20   11   42 1
    21   12   13 1
    22   12   14 1
    23   12   28 1
    24   14   19 ar
    25   14   15 ar
    26   15   16 ar
    27   15   39 1
    28   16   17 ar
    29   16   40 1
    30   17   18 ar
    31   17   41 1
    32   18   26 1
    33   18   19 ar
    34   19   20 1
    35   20   21 1
    36   20   22 am
    37   22   23 2
    38   22   24 1
    39   24   25 2
    40   24   26 am
    41   26   27 1
    42   28   29 2
    43   28   30 1
    44   28   31 1
@<TRIPOS>MOLECULE
ZINC13829431
   43    45     0     0     0
SMALL
USER_CHARGES

@<TRIPOS>ATOM
      1 C1          0.1314    1.5978    0.0935 C.3       1 <0>        -0.1483
      2 C2          0.1666    0.0691    0.0405 C.3       1 <0>         0.1126
      3 H1         -0.8504   -0.3153   -0.0376 H         1 <0>         0.0473
      4 C3          0.9645   -0.3737   -1.1589 C.ar      1 <0>        -0.0658
      5 C4          2.3458   -0.3835   -1.1046 C.ar      1 <0>        -0.0944
      6 C5          3.0779   -0.7900   -2.2042 C.ar      1 <0>        -0.0899
      7 C6          2.4283   -1.1871   -3.3591 C.ar      1 <0>        -0.0939
      8 C7          1.0461   -1.1771   -3.4129 C.ar      1 <0>        -0.0920
      9 C8          0.3147   -0.7754   -2.3110 C.ar      1 <0>        -0.1110
     10 Br1         3.4295   -1.7427   -4.8640 Br        1 <0>        -0.0591
     11 N1          0.7933   -0.4490    1.2639 N.3       1 <0>        -0.6405
     12 C9         -0.1906   -0.5721    2.3478 C.3       1 <0>        -0.4593
     13 H2         -1.1953   -0.4563    1.9414 H         1 <0>         0.0646
     14 C10        -0.0622   -1.9289    2.9911 C.ar      1 <0>        -0.0650
     15 C11         1.1792   -2.5190    3.1145 C.ar      1 <0>        -0.0787
     16 C12         1.3034   -3.7653    3.7045 C.ar      1 <0>        -0.1042
     17 C13         0.1866   -4.4267    4.1736 C.ar      1 <0>        -0.1247
     18 C14        -1.0692   -3.8421    4.0553 C.ar      1 <0>         0.1064
     19 C15        -1.1938   -2.5829    3.4650 C.ar      1 <0>         0.1313
     20 N2         -2.4419   -1.9789    3.3417 N.am      1 <0>        -0.6180
     21 H3         -2.5184   -1.1056    2.9265 H         1 <0>         0.4208
     22 C16        -3.5447   -2.6064    3.7983 C.2       1 <0>         0.5081
     23 O1         -4.6360   -2.0838    3.6922 O.2       1 <0>        -0.4794
     24 C17        -3.4109   -3.9488    4.4344 C.2       1 <0>         0.5115
     25 O2         -4.3922   -4.5305    4.8516 O.2       1 <0>        -0.4833
     26 N3         -2.1910   -4.5154    4.5309 N.am      1 <0>        -0.6285
     27 H4         -2.0936   -5.3885    4.9422 H         1 <0>         0.4190
     28 P1          0.1136    0.7227    3.5945 P.3       1 <0>         2.2675
     29 O3          1.4873    0.4840    4.2603 O.2       1 <0>        -1.0780
     30 O4          0.1063    2.1663    2.8818 O.3       1 <0>        -0.8947
     31 O5         -0.9951    0.6734    4.6694 O.3       1 <0>        -1.0906
     32 H5          1.1484    1.9821    0.1716 H         1 <0>         0.0686
     33 H6         -0.3335    1.9822   -0.8143 H         1 <0>         0.0492
     34 H7         -0.4456    1.9180    0.9610 H         1 <0>         0.0892
     35 H8          2.8529   -0.0732   -0.2030 H         1 <0>         0.1461
     36 H9          4.1571   -0.7973   -2.1618 H         1 <0>         0.1336
     37 H10         0.5385   -1.4870   -4.3144 H         1 <0>         0.1301
     38 H11        -0.7645   -0.7715   -2.3516 H         1 <0>         0.1275
     39 H12         2.0570   -2.0069    2.7491 H         1 <0>         0.1454
     40 H13         2.2777   -4.2217    3.7977 H         1 <0>         0.1356
     41 H14         0.2883   -5.3990    4.6326 H         1 <0>         0.1357
     42 H15         1.2517   -1.3309    1.0898 H         1 <0>         0.3397
     43 H16         0.2623    2.9044    3.4867 H         1 <0>         0.4095
@<TRIPOS>BOND
     1    1    2 1
     2    1   32 1
     3    1   33 1
     4    1   34 1
     5    2    3 1
     6    2    4 1
     7    2   11 1
     8    4    9 ar
     9    4    5 ar
    10    5    6 ar
    11    5   35 1
    12    6    7 ar
    13    6   36 1
    14    7    8 ar
    15    7   10 1
    16    8    9 ar
    17    8   37 1
    18    9   38 1
    19   11   12 1
    20   11   42 1
    21   12   13 1
    22   12   14 1
    23   12   28 1
    24   14   19 ar
    25   14   15 ar
    26   15   16 ar
    27   15   39 1
    28   16   17 ar
    29   16   40 1
    30   17   18 ar
    31   17   41 1
    32   18   26 1
    33   18   19 ar
    34   19   20 1
    35   20   21 1
    36   20   22 am
    37   22   23 2
    38   22   24 1
    39   24   25 2
    40   24   26 am
    41   26   27 1
    42   28   29 2
    43   28   30 1
    44   28   31 1
    45   30   43 1
@<TRIPOS>MOLECULE
ZINC13829433
   43    45     0     0     0
SMALL
USER_CHARGES

@<TRIPOS>ATOM
      1 C1          2.4622    0.9393    1.6978 C.3       1 <0>        -0.1319
      2 C2          1.2487    0.6754    0.8041 C.3       1 <0>         0.1190
      3 H1          0.4670    1.4009    1.0293 H         1 <0>         0.0579
      4 C3          1.6523    0.8045   -0.6421 C.ar      1 <0>        -0.0677
      5 C4          2.2965   -0.2418   -1.2757 C.ar      1 <0>        -0.0948
      6 C5          2.6664   -0.1240   -2.6022 C.ar      1 <0>        -0.0912
      7 C6          2.3921    1.0409   -3.2958 C.ar      1 <0>        -0.0919
      8 C7          1.7475    2.0876   -2.6613 C.ar      1 <0>        -0.0914
      9 C8          1.3732    1.9669   -1.3362 C.ar      1 <0>        -0.1028
     10 Br1         2.8985    1.2029   -5.1105 Br        1 <0>        -0.0593
     11 N1          0.7437   -0.6815    1.0523 N.3       1 <0>        -0.6565
     12 C9         -0.2039   -0.6935    2.1748 C.3       1 <0>        -0.4684
     13 H2         -0.1032    0.2299    2.7451 H         1 <0>         0.0867
     14 C10         0.0907   -1.8706    3.0685 C.ar      1 <0>        -0.0366
     15 C11         0.8585   -2.9172    2.5997 C.ar      1 <0>        -0.0675
     16 C12         1.1322   -4.0015    3.4159 C.ar      1 <0>        -0.1146
     17 C13         0.6393   -4.0437    4.7043 C.ar      1 <0>        -0.1291
     18 C14        -0.1349   -2.9951    5.1878 C.ar      1 <0>         0.1033
     19 C15        -0.4062   -1.8989    4.3666 C.ar      1 <0>         0.1281
     20 N2         -1.1751   -0.8368    4.8340 N.am      1 <0>        -0.6050
     21 C16        -1.6607   -0.8559    6.0919 C.2       1 <0>         0.5088
     22 C17        -1.3655   -2.0238    6.9714 C.2       1 <0>         0.5102
     23 N3         -0.6286   -3.0448    6.4885 N.am      1 <0>        -0.6293
     24 O1         -1.7934   -2.0598    8.1076 O.2       1 <0>        -0.4886
     25 O2         -2.3315    0.0688    6.5046 O.2       1 <0>        -0.4816
     26 P1         -1.9048   -0.8287    1.5328 P.3       1 <0>         2.2031
     27 O3         -2.0817   -2.1911    0.8260 O.2       1 <0>        -1.0616
     28 O4         -2.9072   -0.7219    2.7036 O.3       1 <0>        -1.0662
     29 O5         -2.1780    0.3603    0.4822 O.3       1 <0>        -0.8997
     30 H3          3.2085    0.1614    1.5362 H         1 <0>         0.0655
     31 H4          2.8907    1.9107    1.4512 H         1 <0>         0.0557
     32 H5          2.1520    0.9338    2.7427 H         1 <0>         0.0548
     33 H6          2.5110   -1.1512   -0.7340 H         1 <0>         0.1413
     34 H7          3.1700   -0.9413   -3.0971 H         1 <0>         0.1328
     35 H8          1.5331    2.9973   -3.2024 H         1 <0>         0.1317
     36 H9          0.8663    2.7825   -0.8420 H         1 <0>         0.1313
     37 H10         0.3238   -1.0689    0.2206 H         1 <0>         0.3476
     38 H11         1.2470   -2.8906    1.5924 H         1 <0>         0.1398
     39 H12         1.7333   -4.8175    3.0429 H         1 <0>         0.1296
     40 H13         0.8548   -4.8919    5.3372 H         1 <0>         0.1315
     41 H14        -3.0659    0.3507    0.0994 H         1 <0>         0.4169
     42 H15        -0.4318   -3.8092    7.0523 H         1 <0>         0.4167
     43 H16        -1.3615   -0.0819    4.2543 H         1 <0>         0.4234
@<TRIPOS>BOND
     1    1    2 1
     2    1   30 1
     3    1   31 1
     4    1   32 1
     5    2    3 1
     6    2    4 1
     7    2   11 1
     8    4    9 ar
     9    4    5 ar
    10    5    6 ar
    11    5   33 1
    12    6    7 ar
    13    6   34 1
    14    7    8 ar
    15    7   10 1
    16    8    9 ar
    17    8   35 1
    18    9   36 1
    19   11   12 1
    20   11   37 1
    21   12   13 1
    22   12   14 1
    23   12   26 1
    24   14   19 ar
    25   14   15 ar
    26   15   16 ar
    27   15   38 1
    28   16   17 ar
    29   16   39 1
    30   17   18 ar
    31   17   40 1
    32   18   23 1
    33   18   19 ar
    34   19   20 1
    35   20   21 am
    36   20   43 1
    37   21   22 1
    38   21   25 2
    39   22   23 am
    40   22   24 2
    41   23   42 1
    42   26   27 2
    43   26   28 1
    44   26   29 1
    45   29   41 1
@<TRIPOS>MOLECULE
ZINC00968311
   44    46     0     0     0
SMALL
USER_CHARGES
1-(1-phenylcyclohexyl)piperidine
@<TRIPOS>ATOM
      1 C1         -6.8504    0.6158   -1.3000 C.ar      1 <0>        -0.0983
      2 C2         -5.9618   -0.3997   -1.0001 C.ar      1 <0>        -0.0987
      3 C3         -4.6847   -0.0953   -0.5672 C.ar      1 <0>        -0.0916
      4 C4         -4.2963    1.2246   -0.4342 C.ar      1 <0>        -0.1122
      5 C5         -5.1866    2.2402   -0.7291 C.ar      1 <0>        -0.1651
      6 C6         -6.4619    1.9358   -1.1669 C.ar      1 <0>        -0.1010
      7 C7         -2.9042    1.5565    0.0381 C.3       1 <0>         0.1193
      8 C8         -1.8862    0.7425   -0.7631 C.3       1 <0>        -0.1361
      9 C9         -0.4729    1.0794   -0.2835 C.3       1 <0>        -0.1341
     10 C10        -0.3434    0.7376    1.2022 C.3       1 <0>        -0.1320
     11 C11        -1.3614    1.5516    2.0034 C.3       1 <0>        -0.1367
     12 C12        -2.7747    1.2147    1.5238 C.3       1 <0>        -0.1352
     13 C13        -3.4122    3.7968    0.8019 C.3       1 <0>        -0.0359
     14 C14        -3.0128    5.2678    0.6650 C.3       1 <0>        -0.1453
     15 C15        -3.2968    5.7378   -0.7643 C.3       1 <0>        -0.1398
     16 C16        -2.5281    4.8504   -1.7473 C.3       1 <0>        -0.1447
     17 C17        -2.9415    3.3915   -1.5404 C.3       1 <0>        -0.0394
     18 H1         -7.8482    0.3780   -1.6378 H         1 <0>         0.1358
     19 H2         -6.2654   -1.4310   -1.1036 H         1 <0>         0.1373
     20 H3         -3.9906   -0.8888   -0.3326 H         1 <0>         0.1331
     21 H4         -4.8845    3.2714   -0.6209 H         1 <0>         0.1421
     22 H5         -7.1563    2.7292   -1.4009 H         1 <0>         0.1351
     23 H6         -1.9784    0.9860   -1.8215 H         1 <0>         0.0898
     24 H7         -2.0755   -0.3209   -0.6171 H         1 <0>         0.1120
     25 H8         -0.2835    2.1429   -0.4295 H         1 <0>         0.0554
     26 H9          0.2524    0.4995   -0.8543 H         1 <0>         0.0955
     27 H10        -0.5328   -0.3259    1.3482 H         1 <0>         0.0810
     28 H11         0.6635    0.9776    1.5438 H         1 <0>         0.0819
     29 H12        -1.2692    1.3081    3.0618 H         1 <0>         0.0942
     30 H13        -1.1721    2.6150    1.8574 H         1 <0>         0.0570
     31 H14        -3.5000    1.7946    2.0946 H         1 <0>         0.0914
     32 H15        -2.9641    0.1512    1.6698 H         1 <0>         0.1109
     33 H16        -4.4780    3.6896    0.6004 H         1 <0>         0.1454
     34 H17        -3.1980    3.4551    1.8145 H         1 <0>         0.1336
     35 H18        -1.9499    5.3779    0.8798 H         1 <0>         0.0864
     36 H19        -3.5902    5.8691    1.3673 H         1 <0>         0.1130
     37 H20        -2.9737    6.7726   -0.8785 H         1 <0>         0.0959
     38 H21        -4.3653    5.6654   -0.9671 H         1 <0>         0.0810
     39 H22        -1.4576    4.9538   -1.5704 H         1 <0>         0.0851
     40 H23        -2.7597    5.1530   -2.7685 H         1 <0>         0.1123
     41 H24        -2.3855    2.7553   -2.2290 H         1 <0>         0.1276
     42 H25        -4.0096    3.2863   -1.7309 H         1 <0>         0.1542
     43 N1         -2.6198    2.9937   -0.1533 N.4       1 <0>        -0.3833
     44 H26        -1.6215    3.1617    0.0183 H         1 <0>         0.4232
@<TRIPOS>BOND
     1    1    6 ar
     2    1    2 ar
     3    1   18 1
     4    2    3 ar
     5    2   19 1
     6    3    4 ar
     7    3   20 1
     8    4    5 ar
     9    4    7 1
    10    5    6 ar
    11    5   21 1
    12    6   22 1
    13    7   12 1
    14    7    8 1
    15    7   43 1
    16    8    9 1
    17    8   23 1
    18    8   24 1
    19    9   10 1
    20    9   25 1
    21    9   26 1
    22   10   11 1
    23   10   27 1
    24   10   28 1
    25   11   12 1
    26   11   29 1
    27   11   30 1
    28   12   31 1
    29   12   32 1
    30   13   14 1
    31   13   33 1
    32   13   34 1
    33   13   43 1
    34   14   15 1
    35   14   35 1
    36   14   36 1
    37   15   16 1
    38   15   37 1
    39   15   38 1
    40   16   17 1
    41   16   39 1
    42   16   40 1
    43   17   41 1
    44   17   42 1
    45   17   43 1
    46   43   44 1
@<TRIPOS>MOLECULE
ZINC12428297
   18    19     0     0     0
SMALL
USER_CHARGES

@<TRIPOS>ATOM
      1 C1         -0.0168    1.3862    0.0097 C.ar      1 <0>        -0.1045
      2 C2          1.1691    2.0939    0.0021 C.ar      1 <0>        -0.0139
      3 C3          2.3815    1.4234   -0.0130 C.ar      1 <0>        -0.0845
      4 C4          2.4122    0.0428   -0.0206 C.ar      1 <0>        -0.0327
      5 C5          1.2234   -0.6800   -0.0132 C.ar      1 <0>         0.1328
      6 C6          0.0021   -0.0041    0.0020 C.ar      1 <0>         0.1454
      7 N1         -1.1978   -0.7098    0.0096 N.am      1 <0>        -0.6311
      8 C7         -1.1895   -2.0582    0.0023 C.2       1 <0>         0.5117
      9 C8          0.1151   -2.7807   -0.0140 C.2       1 <0>         0.5110
     10 O1          0.1439   -3.9950   -0.0211 O.2       1 <0>        -0.4536
     11 N2          1.2625   -2.0722   -0.0210 N.am      1 <0>        -0.6332
     12 H1          2.1161   -2.5327   -0.0315 H         1 <0>         0.4259
     13 O2         -2.2340   -2.6781    0.0093 O.2       1 <0>        -0.4544
     14 Cl1         3.9346   -0.7911   -0.0401 Cl        1 <0>        -0.0290
     15 Cl2         1.1406    3.8296    0.0111 Cl        1 <0>        -0.0357
     16 H2         -0.9595    1.9129    0.0260 H         1 <0>         0.1584
     17 H3          3.3056    1.9824   -0.0192 H         1 <0>         0.1589
     18 H4         -2.0412   -0.2308    0.0205 H         1 <0>         0.4285
@<TRIPOS>BOND
     1    1    6 ar
     2    1    2 ar
     3    1   16 1
     4    2    3 ar
     5    2   15 1
     6    3    4 ar
     7    3   17 1
     8    4    5 ar
     9    4   14 1
    10    5   11 1
    11    5    6 ar
    12    6    7 1
    13    7    8 am
    14    7   18 1
    15    8    9 1
    16    8   13 2
    17    9   10 2
    18    9   11 am
    19   11   12 1
@<TRIPOS>MOLECULE
ZINC12428297
   17    18     0     0     0
SMALL
USER_CHARGES

@<TRIPOS>ATOM
      1 C1         -0.0168    1.3862    0.0097 C.ar      1 <0>        -0.1094
      2 C2          1.1683    2.0925    0.0021 C.ar      1 <0>        -0.0647
      3 C3          2.3861    1.4248   -0.0135 C.ar      1 <0>        -0.0944
      4 C4          2.4275    0.0495   -0.0218 C.ar      1 <0>        -0.0347
      5 C5          1.2320   -0.6859   -0.0139 C.ar      1 <0>         0.1832
      6 C6          0.0021   -0.0041    0.0020 C.ar      1 <0>         0.0626
      7 N1         -1.1839   -0.7152    0.0091 N.am      1 <0>        -0.6297
      8 C7         -1.1390   -2.0653    0.0010 C.2       1 <0>         0.4750
      9 C8          0.1705   -2.7392   -0.0151 C.2       1 <0>         0.4190
     10 O1          0.2347   -4.0928   -0.0239 O.3       1 <0>        -0.6202
     11 N2          1.2703   -2.0340   -0.0224 N.2       1 <0>        -0.5943
     12 O2         -2.1676   -2.7165    0.0073 O.2       1 <0>        -0.5221
     13 Cl1         3.9554   -0.7745   -0.0425 Cl        1 <0>        -0.0534
     14 Cl2         1.1372    3.8282    0.0118 Cl        1 <0>        -0.0836
     15 H1         -0.9593    1.9133    0.0260 H         1 <0>         0.1297
     16 H2          3.3070    1.9890   -0.0197 H         1 <0>         0.1353
     17 H3         -2.0357   -0.2512    0.0200 H         1 <0>         0.4016
@<TRIPOS>BOND
     1    1    6 ar
     2    1    2 ar
     3    1   15 1
     4    2    3 ar
     5    2   14 1
     6    3    4 ar
     7    3   16 1
     8    4    5 ar
     9    4   13 1
    10    5   11 1
    11    5    6 ar
    12    6    7 1
    13    7    8 am
    14    7   17 1
    15    8    9 1
    16    8   12 2
    17    9   10 1
    18    9   11 2
@<TRIPOS>MOLECULE
ZINC00056526
   36    37     0     0     0
SMALL
USER_CHARGES

@<TRIPOS>ATOM
      1 C1          2.5037    1.7126    3.2140 C.3       1 <0>        -0.1237
      2 C2          1.1585    2.2578    2.8086 C.ar      1 <0>        -0.0710
      3 C3          0.9379    3.6213    2.8044 C.ar      1 <0>        -0.1067
      4 C4         -0.2961    4.1223    2.4330 C.ar      1 <0>        -0.0798
      5 C5         -1.3133    3.2607    2.0647 C.ar      1 <0>        -0.1093
      6 C6         -1.0991    1.8965    2.0664 C.ar      1 <0>        -0.0914
      7 C7          0.1412    1.3902    2.4334 C.ar      1 <0>         0.0607
      8 N1          0.3631    0.0092    2.4310 N.pl3     1 <0>        -0.6353
      9 C8          0.4090   -0.6826    3.6204 C.cat     1 <0>         0.7405
     10 N2          0.7150   -1.9495    3.6259 N.pl3     1 <0>        -0.7671
     11 N3          0.1317   -0.0363    4.8039 N.pl3     1 <0>        -0.6291
     12 C9          0.1332   -0.7493    6.0072 C.ar      1 <0>         0.0596
     13 C10         1.1662   -0.5736    6.9191 C.ar      1 <0>        -0.0907
     14 C11         1.1645   -1.2787    8.1063 C.ar      1 <0>        -0.1071
     15 C12         0.1360   -2.1594    8.3878 C.ar      1 <0>        -0.0804
     16 C13        -0.8935   -2.3370    7.4821 C.ar      1 <0>        -0.1047
     17 C14        -0.9010   -1.6301    6.2954 C.ar      1 <0>        -0.0763
     18 C15        -2.0269   -1.8192    5.3117 C.3       1 <0>        -0.1303
     19 H1          3.1435    1.6334    2.3352 H         1 <0>         0.0869
     20 H2          2.9640    2.3834    3.9394 H         1 <0>         0.0836
     21 H3          2.3764    0.7265    3.6608 H         1 <0>         0.0530
     22 H4          1.7300    4.2968    3.0918 H         1 <0>         0.1408
     23 H5         -0.4662    5.1889    2.4309 H         1 <0>         0.1404
     24 H6         -2.2763    3.6551    1.7758 H         1 <0>         0.1415
     25 H7         -1.8940    1.2242    1.7789 H         1 <0>         0.1367
     26 H8          0.4847   -0.4610    1.5914 H         1 <0>         0.4415
     27 H9          0.6889   -2.4511    4.4558 H         1 <0>         0.4432
     28 H10        -0.0647    0.9136    4.8032 H         1 <0>         0.4406
     29 H11         1.9701    0.1134    6.6995 H         1 <0>         0.1367
     30 H12         1.9674   -1.1426    8.8157 H         1 <0>         0.1422
     31 H13         0.1371   -2.7100    9.3170 H         1 <0>         0.1410
     32 H14        -1.6949   -3.0260    7.7046 H         1 <0>         0.1415
     33 H15        -1.7760   -2.6259    4.6230 H         1 <0>         0.0747
     34 H16        -2.9407   -2.0717    5.8496 H         1 <0>         0.0884
     35 H17        -2.1784   -0.8967    4.7512 H         1 <0>         0.0670
     36 H18         0.9688   -2.3908    2.8003 H         1 <0>         0.4426
@<TRIPOS>BOND
     1    1    2 1
     2    1   19 1
     3    1   20 1
     4    1   21 1
     5    2    7 ar
     6    2    3 ar
     7    3    4 ar
     8    3   22 1
     9    4    5 ar
    10    4   23 1
    11    5    6 ar
    12    5   24 1
    13    6    7 ar
    14    6   25 1
    15    7    8 1
    16    8    9 1
    17    8   26 1
    18    9   10 2
    19    9   11 1
    20   10   27 1
    21   10   36 1
    22   11   12 1
    23   11   28 1
    24   12   17 ar
    25   12   13 ar
    26   13   14 ar
    27   13   29 1
    28   14   15 ar
    29   14   30 1
    30   15   16 ar
    31   15   31 1
    32   16   17 ar
    33   16   32 1
    34   17   18 1
    35   18   33 1
    36   18   34 1
    37   18   35 1
@<TRIPOS>MOLECULE
ZINC18182210
   18    19     0     0     0
SMALL
USER_CHARGES

@<TRIPOS>ATOM
      1 C1         -0.0166    1.3754    0.0096 C.ar      1 <0>        -0.1036
      2 C2          1.1701    2.0892    0.0021 C.ar      1 <0>        -0.1036
      3 C3          2.3799    1.4261   -0.0130 C.ar      1 <0>        -0.1181
      4 C4          2.4115    0.0358   -0.0208 C.ar      1 <0>         0.1158
      5 C5          1.2153   -0.6836   -0.0137 C.ar      1 <0>         0.1157
      6 C6          0.0021   -0.0041    0.0020 C.ar      1 <0>        -0.1181
      7 N1          1.2259   -2.0756   -0.0218 N.am      1 <0>        -0.6341
      8 C7          2.3977   -2.7428   -0.0357 C.2       1 <0>         0.5079
      9 C8          3.6759   -1.9741   -0.0428 C.2       1 <0>         0.5080
     10 N2          3.6359   -0.6262   -0.0361 N.am      1 <0>        -0.6341
     11 O1          4.7418   -2.5562   -0.0549 O.2       1 <0>        -0.4670
     12 O2          2.4122   -3.9573   -0.0420 O.2       1 <0>        -0.4670
     13 H1         -0.9602    1.9006    0.0260 H         1 <0>         0.1365
     14 H2          1.1485    3.1690    0.0078 H         1 <0>         0.1365
     15 H3          3.3028    1.9869   -0.0192 H         1 <0>         0.1394
     16 H4         -0.9259   -0.5565    0.0083 H         1 <0>         0.1394
     17 H5          4.4616   -0.1171   -0.0415 H         1 <0>         0.4232
     18 H6          0.3892   -2.5664   -0.0171 H         1 <0>         0.4232
@<TRIPOS>BOND
     1    1    6 ar
     2    1    2 ar
     3    1   13 1
     4    2    3 ar
     5    2   14 1
     6    3    4 ar
     7    3   15 1
     8    4   10 1
     9    4    5 ar
    10    5    6 ar
    11    5    7 1
    12    6   16 1
    13    7    8 am
    14    7   18 1
    15    8    9 1
    16    8   12 2
    17    9   10 am
    18    9   11 2
    19   10   17 1
@<TRIPOS>MOLECULE
ZINC18187630
   18    19     0     0     0
SMALL
USER_CHARGES

@<TRIPOS>ATOM
      1 C1         -0.0166    1.3763    0.0096 C.ar      1 <0>        -0.0987
      2 C2          1.1776    2.0888    0.0020 C.ar      1 <0>         0.1367
      3 C3          2.3933    1.4029   -0.0137 C.ar      1 <0>         0.1367
      4 C4          2.4012    0.0123   -0.0216 C.ar      1 <0>        -0.0987
      5 C5          1.2101   -0.6856   -0.0136 C.ar      1 <0>        -0.0201
      6 C6          0.0021   -0.0041    0.0020 C.ar      1 <0>        -0.0201
      7 Cl1        -1.4910   -0.8897    0.0120 Cl        1 <0>        -0.0282
      8 Cl2         1.2243   -2.4215   -0.0241 Cl        1 <0>        -0.0282
      9 N1          3.5991    2.0989   -0.0219 N.am      1 <0>        -0.6322
     10 H1          4.4387    1.6131   -0.0335 H         1 <0>         0.4272
     11 C7          3.6016    3.4473   -0.0143 C.2       1 <0>         0.5107
     12 O1          4.6511    4.0590   -0.0219 O.2       1 <0>        -0.4559
     13 C8          2.3028    4.1801    0.0029 C.2       1 <0>         0.5108
     14 O2          2.2837    5.3946    0.0095 O.2       1 <0>        -0.4559
     15 N2          1.1499    3.4808    0.0097 N.am      1 <0>        -0.6323
     16 H2          0.3000    3.9482    0.0203 H         1 <0>         0.4272
     17 H3         -0.9593    1.9031    0.0259 H         1 <0>         0.1605
     18 H4          3.3397   -0.5220   -0.0345 H         1 <0>         0.1605
@<TRIPOS>BOND
     1    1    6 ar
     2    1    2 ar
     3    1   17 1
     4    2   15 1
     5    2    3 ar
     6    3    4 ar
     7    3    9 1
     8    4    5 ar
     9    4   18 1
    10    5    6 ar
    11    5    8 1
    12    6    7 1
    13    9   10 1
    14    9   11 am
    15   11   12 2
    16   11   13 1
    17   13   14 2
    18   13   15 am
    19   15   16 1
@<TRIPOS>MOLECULE
ZINC18187630
   18    19     0     0     0
SMALL
USER_CHARGES

@<TRIPOS>ATOM
      1 C1         -0.0163    1.3496    0.0095 C.ar      1 <0>        -0.1720
      2 C2          1.2042    2.0706    0.0017 C.ar      1 <0>         0.3977
      3 N1          1.2018    3.3887    0.0092 N.am      1 <0>        -0.4834
      4 C3          2.3685    4.0638    0.0017 C.2       1 <0>         0.4770
      5 O1          2.3724    5.2780    0.0090 O.2       1 <0>        -0.2305
      6 C4          3.6585    3.3064   -0.0153 C.2       1 <0>         0.4771
      7 O2          4.7169    3.9015   -0.0219 O.2       1 <0>        -0.2305
      8 N2          3.6374    1.9587   -0.0227 N.am      1 <0>        -0.4835
      9 C5          2.4852    1.3184   -0.0146 C.ar      1 <0>         0.3977
     10 C6          2.4506   -0.0986   -0.0219 C.ar      1 <0>        -0.1721
     11 C7          1.2596   -0.7424   -0.0140 C.ar      1 <0>         0.1260
     12 C8          0.0021   -0.0041    0.0020 C.ar      1 <0>         0.1258
     13 Cl1        -1.4985   -0.8768    0.0122 Cl        1 <0>         0.1611
     14 Cl2         1.2289   -2.4781   -0.0229 Cl        1 <0>         0.1612
     15 H1         -0.9578    1.8784    0.0258 H         1 <0>         0.2402
     16 H2          3.3713   -0.6630   -0.0341 H         1 <0>         0.2402
     17 H3          0.3612    3.8725    0.0199 H         1 <0>         0.4840
     18 H4          4.4696    1.4604   -0.0338 H         1 <0>         0.4840
@<TRIPOS>BOND
     1    1   12 ar
     2    1    2 ar
     3    1   15 1
     4    2    9 ar
     5    2    3 2
     6    3    4 am
     7    3   17 1
     8    4    5 2
     9    4    6 1
    10    6    7 2
    11    6    8 am
    12    8    9 2
    13    8   18 1
    14    9   10 ar
    15   10   11 ar
    16   10   16 1
    17   11   12 ar
    18   11   14 1
    19   12   13 1
@<TRIPOS>MOLECULE
ZINC25757829
   32    35     0     0     0
SMALL
USER_CHARGES

@<TRIPOS>ATOM
      1 C1         -0.0187    1.5258    0.0104 C.3       1 <0>        -0.1252
      2 C2          0.0021   -0.0041    0.0020 C.3       1 <0>         0.1700
      3 C3          0.7167   -0.5895   -1.2034 C.ar      1 <0>        -0.1069
      4 C4          0.8979    0.1802   -2.3343 C.ar      1 <0>        -0.1048
      5 C5          1.5405   -0.3573   -3.4350 C.ar      1 <0>        -0.1212
      6 C6          1.9955   -1.6623   -3.3949 C.ar      1 <0>        -0.1154
      7 C7          1.8143   -2.4276   -2.2597 C.ar      1 <0>        -0.1172
      8 C8          1.1755   -1.8892   -1.1532 C.ar      1 <0>        -0.0768
      9 C9          1.0113   -2.7345    0.0833 C.3       1 <0>        -0.1060
     10 C10         0.1766   -2.0033    1.1369 C.3       1 <0>         0.1001
     11 H1          0.2513   -2.4929    2.1079 H         1 <0>         0.1081
     12 N1          0.6774   -0.5970    1.1980 N.3       1 <0>        -0.6342
     13 C11        -1.2530   -1.8806    0.6988 C.ar      1 <0>        -0.0952
     14 C12        -1.3755   -0.6242    0.0348 C.ar      1 <0>        -0.0809
     15 C13        -2.5771   -0.1782   -0.4723 C.ar      1 <0>        -0.0931
     16 C14        -3.6801   -1.0063   -0.2906 C.ar      1 <0>        -0.1176
     17 C15        -3.5744   -2.2154    0.3646 C.ar      1 <0>        -0.1209
     18 C16        -2.3295   -2.7288    0.8705 C.ar      1 <0>        -0.0946
     19 H2          1.0039    1.9031    0.0027 H         1 <0>         0.0650
     20 H3         -0.5459    1.8868   -0.8726 H         1 <0>         0.0670
     21 H4         -0.5289    1.8773    0.9072 H         1 <0>         0.0732
     22 H5          0.5390    1.1985   -2.3601 H         1 <0>         0.1272
     23 H6          1.6860    0.2402   -4.3228 H         1 <0>         0.1244
     24 H7          2.4941   -2.0848   -4.2547 H         1 <0>         0.1231
     25 H8          2.1706   -3.4468   -2.2339 H         1 <0>         0.1229
     26 H9          0.5143   -3.6672   -0.1835 H         1 <0>         0.0854
     27 H10         1.9944   -2.9588    0.4973 H         1 <0>         0.0869
     28 H11         1.6807   -0.5800    1.0922 H         1 <0>         0.3441
     29 H12        -2.6584    0.7686   -0.9856 H         1 <0>         0.1300
     30 H13        -4.6417   -0.6950   -0.6711 H         1 <0>         0.1239
     31 H14        -4.4549   -2.8304    0.4782 H         1 <0>         0.1194
     32 H15        -2.2281   -3.6740    1.3830 H         1 <0>         0.1394
@<TRIPOS>BOND
     1    1    2 1
     2    1   19 1
     3    1   20 1
     4    1   21 1
     5    2   12 1
     6    2   14 1
     7    2    3 1
     8    3    8 ar
     9    3    4 ar
    10    4    5 ar
    11    4   22 1
    12    5    6 ar
    13    5   23 1
    14    6    7 ar
    15    6   24 1
    16    7    8 ar
    17    7   25 1
    18    8    9 1
    19    9   10 1
    20    9   26 1
    21    9   27 1
    22   10   11 1
    23   10   12 1
    24   10   13 1
    25   12   28 1
    26   13   18 ar
    27   13   14 ar
    28   14   15 ar
    29   15   16 ar
    30   15   29 1
    31   16   17 ar
    32   16   30 1
    33   17   18 ar
    34   17   31 1
    35   18   32 1
@<TRIPOS>MOLECULE
ZINC13761193
   21    22     0     0     0
SMALL
USER_CHARGES
6-chloro-7-methyl-1,4-dihydroquinoxaline-2,3-dione
@<TRIPOS>ATOM
      1 C1         -2.5619    3.8628    0.0464 C.3       1 <0>        -0.1224
      2 C2         -1.2424    3.1351    0.0299 C.ar      1 <0>        -0.0571
      3 C3         -0.0625    3.8508    0.0224 C.ar      1 <0>        -0.1089
      4 C4          1.1568    3.1830    0.0077 C.ar      1 <0>         0.1285
      5 C5          1.1819    1.7870    0.0004 C.ar      1 <0>         0.1239
      6 C6         -0.0126    1.0758    0.0080 C.ar      1 <0>        -0.1057
      7 C7         -1.2180    1.7498    0.0173 C.ar      1 <0>        -0.0270
      8 Cl1        -2.7076    0.8583    0.0196 Cl        1 <0>        -0.0479
      9 N1          2.3928    1.1006   -0.0149 N.am      1 <0>        -0.6326
     10 H1          2.3997    0.1306   -0.0205 H         1 <0>         0.4250
     11 C8          3.5564    1.7821   -0.0223 C.2       1 <0>         0.5096
     12 O1          4.6154    1.1876   -0.0360 O.2       1 <0>        -0.4620
     13 C9          3.5298    3.2733   -0.0140 C.2       1 <0>         0.5093
     14 O2          4.5670    3.9054   -0.0201 O.2       1 <0>        -0.4617
     15 N2          2.3426    3.9127    0.0007 N.am      1 <0>        -0.6333
     16 H2          2.3147    4.8823    0.0066 H         1 <0>         0.4250
     17 H3         -2.8899    4.0438   -0.9772 H         1 <0>         0.0819
     18 H4         -3.3049    3.2562    0.5641 H         1 <0>         0.0787
     19 H5         -2.4454    4.8148    0.5642 H         1 <0>         0.0760
     20 H6         -0.0863    4.9306    0.0284 H         1 <0>         0.1498
     21 H7          0.0021   -0.0041    0.0020 H         1 <0>         0.1508
@<TRIPOS>BOND
     1    1    2 1
     2    1   17 1
     3    1   18 1
     4    1   19 1
     5    2    7 ar
     6    2    3 ar
     7    3    4 ar
     8    3   20 1
     9    4   15 1
    10    4    5 ar
    11    5    6 ar
    12    5    9 1
    13    6    7 ar
    14    6   21 1
    15    7    8 1
    16    9   10 1
    17    9   11 am
    18   11   12 2
    19   11   13 1
    20   13   14 2
    21   13   15 am
    22   15   16 1
@<TRIPOS>MOLECULE
ZINC19632959
   23    22     0     0     0
SMALL
USER_CHARGES

@<TRIPOS>ATOM
      1 C1         -0.0187    1.5258    0.0104 C.3       1 <0>        -0.1033
      2 C2          0.0021   -0.0041    0.0020 C.3       1 <0>        -0.1242
      3 C3         -1.4333   -0.5336    0.0129 C.3       1 <0>        -0.0486
      4 H1         -1.9862   -0.1019   -0.8214 H         1 <0>         0.1341
      5 C4         -1.4159   -2.0348   -0.1192 C.2       1 <0>         0.4914
      6 O1         -1.3670   -2.7340    0.8784 O.co2     1 <0>        -0.6757
      7 O2         -1.4508   -2.5500   -1.2236 O.co2     1 <0>        -0.6432
      8 N1         -2.0833   -0.1607    1.2764 N.4       1 <0>        -0.6142
      9 C5          1.4167    2.0553   -0.0004 C.3       1 <0>        -0.7315
     10 P1          1.3920    3.8782    0.0096 P.3       1 <0>         2.2590
     11 O3          0.5382    4.3881   -1.1728 O.2       1 <0>        -1.0962
     12 O4          0.7821    4.3776    1.3383 O.3       1 <0>        -1.0992
     13 O5          2.8954    4.4361   -0.1340 O.3       1 <0>        -0.9050
     14 H2         -0.5459    1.8868   -0.8726 H         1 <0>         0.0844
     15 H3         -0.5289    1.8773    0.9072 H         1 <0>         0.0608
     16 H4          0.5123   -0.3556   -0.8948 H         1 <0>         0.0978
     17 H5          0.5293   -0.3651    0.8851 H         1 <0>         0.0754
     18 H6         -2.0949    0.8443    1.3648 H         1 <0>         0.4208
     19 H7         -3.0299   -0.5100    1.2835 H         1 <0>         0.4258
     20 H8          1.9439    1.6943    0.8826 H         1 <0>         0.0727
     21 H9          1.9269    1.7038   -0.8972 H         1 <0>         0.0753
     22 H10         2.9583    5.4010   -0.1361 H         1 <0>         0.4133
     23 H11        -1.5715   -0.5604    2.0487 H         1 <0>         0.4306
@<TRIPOS>BOND
     1    1    2 1
     2    1    9 1
     3    1   14 1
     4    1   15 1
     5    2    3 1
     6    2   16 1
     7    2   17 1
     8    3    4 1
     9    3    5 1
    10    3    8 1
    11    5    6 2
    12    5    7 1
    13    8   18 1
    14    8   19 1
    15    8   23 1
    16    9   10 1
    17    9   20 1
    18    9   21 1
    19   10   11 2
    20   10   12 1
    21   10   13 1
    22   13   22 1
@<TRIPOS>MOLECULE
ZINC19943047
   23    22     0     0     0
SMALL
USER_CHARGES

@<TRIPOS>ATOM
      1 C1         -0.0187    1.5258    0.0104 C.3       1 <0>        -0.1037
      2 C2          0.0021   -0.0041    0.0020 C.3       1 <0>        -0.1232
      3 C3         -1.4333   -0.5336    0.0129 C.3       1 <0>        -0.0495
      4 H1         -1.9701   -0.1109    0.8621 H         1 <0>         0.1346
      5 C4         -1.4136   -2.0361    0.1285 C.2       1 <0>         0.4933
      6 O1         -1.0650   -2.5627    1.1714 O.co2     1 <0>        -0.6411
      7 O2         -1.7461   -2.7250   -0.8209 O.co2     1 <0>        -0.6809
      8 N1         -2.1072   -0.1473   -1.2339 N.4       1 <0>        -0.6128
      9 C5          1.4167    2.0553   -0.0004 C.3       1 <0>        -0.7314
     10 P1          1.3920    3.8782    0.0096 P.3       1 <0>         2.2590
     11 O3          0.5382    4.3881   -1.1728 O.2       1 <0>        -1.0990
     12 O4          0.7821    4.3776    1.3383 O.3       1 <0>        -1.0965
     13 O5          2.8954    4.4361   -0.1340 O.3       1 <0>        -0.9051
     14 H2         -0.5459    1.8868   -0.8726 H         1 <0>         0.0633
     15 H3         -0.5289    1.8773    0.9072 H         1 <0>         0.0815
     16 H4          0.5123   -0.3556   -0.8948 H         1 <0>         0.0721
     17 H5          0.5293   -0.3651    0.8851 H         1 <0>         0.1018
     18 H6         -3.0538   -0.4965   -1.2267 H         1 <0>         0.4273
     19 H7         -2.1205    0.8587   -1.3113 H         1 <0>         0.4204
     20 H8          1.9439    1.6943    0.8826 H         1 <0>         0.0772
     21 H9          1.9269    1.7038   -0.8972 H         1 <0>         0.0707
     22 H10         2.9583    5.4010   -0.1361 H         1 <0>         0.4133
     23 H11        -1.6103   -0.5386   -2.0201 H         1 <0>         0.4288
@<TRIPOS>BOND
     1    1    2 1
     2    1    9 1
     3    1   14 1
     4    1   15 1
     5    2    3 1
     6    2   16 1
     7    2   17 1
     8    3    4 1
     9    3    5 1
    10    3    8 1
    11    5    6 2
    12    5    7 1
    13    8   18 1
    14    8   19 1
    15    8   23 1
    16    9   10 1
    17    9   20 1
    18    9   21 1
    19   10   11 2
    20   10   12 1
    21   10   13 1
    22   13   22 1
@<TRIPOS>MOLECULE
ZINC12410487
   24    25     0     0     0
SMALL
USER_CHARGES

@<TRIPOS>ATOM
      1 C1         -0.0184    1.5028    0.0103 C.3       1 <0>        -0.1167
      2 C2          0.0021   -0.0041    0.0020 C.ar      1 <0>        -0.0637
      3 C3          0.0057   -0.6873   -1.2026 C.ar      1 <0>        -0.1072
      4 C4          0.0243   -2.0668   -1.2191 C.ar      1 <0>        -0.0781
      5 C5          0.0396   -2.7770   -0.0235 C.ar      1 <0>         0.1076
      6 C6          0.0355   -2.0883    1.1906 C.ar      1 <0>         0.1266
      7 C7          0.0228   -0.6977    1.1945 C.ar      1 <0>        -0.1267
      8 N1          0.0507   -2.7811    2.3979 N.am      1 <0>        -0.6336
      9 C8          0.0694   -4.1295    2.4036 C.2       1 <0>         0.5082
     10 C9          0.0738   -4.8654    1.1062 C.2       1 <0>         0.5075
     11 N2          0.0584   -4.1687   -0.0483 N.am      1 <0>        -0.6326
     12 O1          0.0910   -6.0797    1.0898 O.2       1 <0>        -0.4684
     13 O2          0.0831   -4.7384    3.4544 O.2       1 <0>        -0.4673
     14 C10         0.0277   -2.8043   -2.5333 C.3       1 <0>        -0.1203
     15 H1          1.0042    1.8801    0.0026 H         1 <0>         0.0759
     16 H2         -0.5455    1.8639   -0.8728 H         1 <0>         0.0718
     17 H3         -0.5286    1.8543    0.9071 H         1 <0>         0.0702
     18 H4         -0.0065   -0.1383   -2.1325 H         1 <0>         0.1359
     19 H5          0.0247   -0.1605    2.1314 H         1 <0>         0.1389
     20 H6          1.0560   -2.9681   -2.8553 H         1 <0>         0.0806
     21 H7         -0.4725   -3.7651   -2.4120 H         1 <0>         0.0650
     22 H8         -0.4981   -2.2131   -3.2830 H         1 <0>         0.0817
     23 H9          0.0480   -2.2933    3.2363 H         1 <0>         0.4230
     24 H10         0.0608   -4.6380   -0.8972 H         1 <0>         0.4215
@<TRIPOS>BOND
     1    1    2 1
     2    1   15 1
     3    1   16 1
     4    1   17 1
     5    2    7 ar
     6    2    3 ar
     7    3    4 ar
     8    3   18 1
     9    4    5 ar
    10    4   14 1
    11    5   11 1
    12    5    6 ar
    13    6    7 ar
    14    6    8 1
    15    7   19 1
    16    8    9 am
    17    8   23 1
    18    9   10 1
    19    9   13 2
    20   10   11 am
    21   10   12 2
    22   11   24 1
    23   14   20 1
    24   14   21 1
    25   14   22 1
@<TRIPOS>MOLECULE
ZINC22309331
   24    23     0     0     0
SMALL
USER_CHARGES

@<TRIPOS>ATOM
      1 C1         -0.7087    1.4067    0.0945 C.3       1 <0>        -0.1377
      2 C2         -0.2180   -0.0164    0.0234 C.2       1 <0>        -0.0158
      3 C3          0.1091   -0.6521    1.1212 C.2       1 <0>        -0.2188
      4 C4          0.1232    0.0784    2.4392 C.3       1 <0>        -0.0074
      5 H1         -0.0643    1.1386    2.2690 H         1 <0>         0.1314
      6 C5          1.4688   -0.0948    3.0953 C.2       1 <0>         0.4994
      7 O1          2.4514    0.4523    2.6246 O.co2     1 <0>        -0.6423
      8 O2          1.5748   -0.7822    4.0967 O.co2     1 <0>        -0.6819
      9 N1         -0.9222   -0.4695    3.3138 N.4       1 <0>        -0.6097
     10 C6         -0.1037   -0.7083   -1.3105 C.3       1 <0>        -0.6991
     11 P1         -1.7171   -1.4263   -1.7628 P.3       1 <0>         2.2594
     12 O3         -2.2045   -2.3540   -0.6275 O.2       1 <0>        -1.0922
     13 O4         -2.7437   -0.2919   -1.9774 O.3       1 <0>        -1.0905
     14 O5         -1.5643   -2.2760   -3.1218 O.3       1 <0>        -0.9047
     15 H2          0.1445    2.0848    0.1099 H         1 <0>         0.0717
     16 H3         -1.3279    1.6214   -0.7764 H         1 <0>         0.0917
     17 H4         -1.2975    1.5431    1.0016 H         1 <0>         0.0612
     18 H5          0.3688   -1.6997    1.0816 H         1 <0>         0.1235
     19 H6         -0.7892   -1.4646    3.4144 H         1 <0>         0.4319
     20 H7         -0.8671   -0.0296    4.2202 H         1 <0>         0.4230
     21 H8          0.1984    0.0134   -2.0694 H         1 <0>         0.0888
     22 H9          0.6416   -1.5011   -1.2459 H         1 <0>         0.0842
     23 H10        -2.3859   -2.6878   -3.4227 H         1 <0>         0.4139
     24 H11        -1.8284   -0.2907    2.9077 H         1 <0>         0.4201
@<TRIPOS>BOND
     1    1    2 1
     2    1   15 1
     3    1   16 1
     4    1   17 1
     5    2    3 2
     6    2   10 1
     7    3    4 1
     8    3   18 1
     9    4    5 1
    10    4    6 1
    11    4    9 1
    12    6    7 2
    13    6    8 1
    14    9   19 1
    15    9   20 1
    16    9   24 1
    17   10   11 1
    18   10   21 1
    19   10   22 1
    20   11   12 2
    21   11   13 1
    22   11   14 1
    23   14   23 1
@<TRIPOS>MOLECULE
ZINC22309336
   24    23     0     0     0
SMALL
USER_CHARGES
(E,2S)-2-amino-4-methyl-5-phosphono-pent-3-enoic acid
@<TRIPOS>ATOM
      1 C1          0.2329    3.4033   -2.9556 C.3       1 <0>        -0.1362
      2 C2          0.2451    1.9340   -3.2907 C.2       1 <0>        -0.0134
      3 C3         -0.0074    1.0477   -2.3597 C.2       1 <0>        -0.2477
      4 C4         -0.1727    1.4858   -0.9272 C.3       1 <0>         0.0283
      5 H1          0.0145    2.5660   -0.8371 H         1 <0>         0.1319
      6 C5         -1.5679    1.1602   -0.4601 C.2       1 <0>         0.4625
      7 O1         -1.7660    0.1748    0.2105 O.co2     1 <0>        -0.6319
      8 O2         -2.5907    1.9648   -0.7891 O.co2     1 <0>        -0.6968
      9 N1          0.8028    0.7817   -0.0842 N.4       1 <0>        -0.6578
     10 C6          0.5477    1.4844   -4.6969 C.3       1 <0>        -0.7034
     11 P1         -0.9817    1.5193   -5.6884 P.3       1 <0>         2.2773
     12 O3         -1.5850    2.8689   -5.6173 O.2       1 <0>        -1.0773
     13 O4         -0.6361    1.1660   -7.2206 O.3       1 <0>        -1.1148
     14 O5         -2.0217    0.4354   -5.1091 O.3       1 <0>        -0.9346
     15 H2          0.4656    3.9872   -3.8583 H         1 <0>         0.0785
     16 H3          0.9867    3.6091   -2.1814 H         1 <0>         0.0577
     17 H4         -0.7625    3.6860   -2.5825 H         1 <0>         0.0947
     18 H5         -0.0988   -0.0163   -2.6235 H         1 <0>         0.1245
     19 H6          0.6822    1.1014    0.9614 H         1 <0>         0.4448
     20 H7          1.8212    1.0195   -0.4252 H         1 <0>         0.4325
     21 H8          1.2911    2.1596   -5.1457 H         1 <0>         0.1024
     22 H9          0.9480    0.4600   -4.6762 H         1 <0>         0.0821
     23 H10        -3.0071    0.3112   -5.5819 H         1 <0>         0.4474
     24 H11         0.6354   -0.3030   -0.1576 H         1 <0>         0.4492
@<TRIPOS>BOND
     1    1    2 1
     2    1   15 1
     3    1   16 1
     4    1   17 1
     5    2    3 2
     6    2   10 1
     7    3    4 1
     8    3   18 1
     9    4    5 1
    10    4    6 1
    11    4    9 1
    12    6    7 2
    13    6    8 1
    14    9   19 1
    15    9   20 1
    16    9   24 1
    17   10   11 1
    18   10   21 1
    19   10   22 1
    20   11   12 2
    21   11   13 1
    22   11   14 1
    23   14   23 1
@<TRIPOS>MOLECULE
ZINC19632758
   29    28     0     0     0
SMALL
USER_CHARGES

@<TRIPOS>ATOM
      1 C1         -0.0187    1.5258    0.0104 C.3       1 <0>        -0.1166
      2 C2          0.0021   -0.0041    0.0020 C.3       1 <0>        -0.1324
      3 C3         -1.4333   -0.5336    0.0129 C.3       1 <0>        -0.1263
      4 C4         -1.4126   -2.0635    0.0045 C.3       1 <0>        -0.0493
      5 H1         -0.8263   -2.4142   -0.8449 H         1 <0>         0.1336
      6 C5         -2.8221   -2.5844   -0.1087 C.2       1 <0>         0.4915
      7 O1         -3.4399   -2.4497   -1.1512 O.co2     1 <0>        -0.6389
      8 O2         -3.3448   -3.1404    0.8422 O.co2     1 <0>        -0.6788
      9 N1         -0.8087   -2.5519    1.2514 N.4       1 <0>        -0.6130
     10 C6          1.4167    2.0553   -0.0004 C.3       1 <0>        -0.0935
     11 C7          1.3960    3.5852    0.0080 C.3       1 <0>        -0.7309
     12 P1          3.1062    4.2162   -0.0050 P.3       1 <0>         2.2581
     13 O3          3.8899    3.6042    1.1776 O.2       1 <0>        -1.0989
     14 O4          3.7898    3.8240   -1.3338 O.3       1 <0>        -1.0984
     15 O5          3.0877    5.8199    0.1361 O.3       1 <0>        -0.9057
     16 H2         -0.5459    1.8868   -0.8726 H         1 <0>         0.0615
     17 H3         -0.5289    1.8773    0.9072 H         1 <0>         0.0567
     18 H4          0.5123   -0.3556   -0.8948 H         1 <0>         0.0764
     19 H5          0.5293   -0.3651    0.8851 H         1 <0>         0.0551
     20 H6         -1.9435   -0.1821    0.9097 H         1 <0>         0.0781
     21 H7         -1.9605   -0.1726   -0.8702 H         1 <0>         0.1075
     22 H8         -1.3514   -2.2272    2.0376 H         1 <0>         0.4301
     23 H9         -0.7950   -3.5608    1.2458 H         1 <0>         0.4289
     24 H10         1.9439    1.6943    0.8826 H         1 <0>         0.0705
     25 H11         1.9269    1.7038   -0.8972 H         1 <0>         0.0703
     26 H12         0.8688    3.9463   -0.8751 H         1 <0>         0.0695
     27 H13         0.8858    3.9367    0.9048 H         1 <0>         0.0664
     28 H14         3.9658    6.2249    0.1366 H         1 <0>         0.4121
     29 H15         0.1351   -2.2031    1.3272 H         1 <0>         0.4163
@<TRIPOS>BOND
     1    1    2 1
     2    1   10 1
     3    1   16 1
     4    1   17 1
     5    2    3 1
     6    2   18 1
     7    2   19 1
     8    3    4 1
     9    3   20 1
    10    3   21 1
    11    4    5 1
    12    4    6 1
    13    4    9 1
    14    6    7 2
    15    6    8 1
    16    9   22 1
    17    9   23 1
    18    9   29 1
    19   10   11 1
    20   10   24 1
    21   10   25 1
    22   11   12 1
    23   11   26 1
    24   11   27 1
    25   12   13 2
    26   12   14 1
    27   12   15 1
    28   15   28 1
@<TRIPOS>MOLECULE
ZINC00007042
   55    57     0     0     0
SMALL
USER_CHARGES

@<TRIPOS>ATOM
      1 C1          0.9053   -2.1839   -0.5875 C.3       1 <0>        -0.1797
      2 C2          0.6167   -1.9912    0.9026 C.3       1 <0>        -0.1474
      3 H1          1.2762   -2.6333    1.4865 H         1 <0>         0.1056
      4 C3          0.8590   -0.5295    1.2842 C.3       1 <0>        -0.0041
      5 N1          2.2860   -0.2145    1.1345 N.4       1 <0>        -0.3834
      6 C4          2.4939    1.2221    1.3526 C.3       1 <0>        -0.0059
      7 C5          3.9655    1.5697    1.1183 C.3       1 <0>        -0.1431
      8 C6          4.8345    0.7725    2.0953 C.3       1 <0>        -0.0940
      9 C7          4.5544   -0.7216    1.9099 C.3       1 <0>        -0.1449
     10 C8          3.0610   -0.9844    2.1149 C.3       1 <0>        -0.0119
     11 C9          6.3116    1.0550    1.8139 C.3       1 <0>        -0.0745
     12 C10         7.1610    0.3678    2.8519 C.ar      1 <0>        -0.0948
     13 C11         7.4909    1.0265    4.0215 C.ar      1 <0>        -0.1160
     14 C12         8.2701    0.3962    4.9736 C.ar      1 <0>        -0.1135
     15 C13         8.7190   -0.8931    4.7562 C.ar      1 <0>        -0.1162
     16 C14         8.3883   -1.5521    3.5870 C.ar      1 <0>        -0.1161
     17 C15         7.6056   -0.9234    2.6368 C.ar      1 <0>        -0.1216
     18 C16        -0.8401   -2.3590    1.1916 C.3       1 <0>         0.1644
     19 H2         -1.0708   -2.1379    2.2337 H         1 <0>         0.1182
     20 C17        -1.0481   -3.8288    0.9320 C.ar      1 <0>        -0.1428
     21 C18        -1.2202   -4.2835   -0.3624 C.ar      1 <0>        -0.0943
     22 C19        -1.4115   -5.6303   -0.6029 C.ar      1 <0>        -0.1416
     23 C20        -1.4304   -6.5269    0.4555 C.ar      1 <0>         0.1220
     24 C21        -1.2571   -6.0683    1.7533 C.ar      1 <0>        -0.1412
     25 C22        -1.0610   -4.7211    1.9881 C.ar      1 <0>        -0.0884
     26 O1         -1.6189   -7.8523    0.2215 O.3       1 <0>        -0.4965
     27 O2         -1.7010   -1.5986    0.3415 O.3       1 <0>        -0.5471
     28 H3          1.9189   -1.8486   -0.8076 H         1 <0>         0.0573
     29 H4          0.8082   -3.2391   -0.8429 H         1 <0>         0.0917
     30 H5          0.1946   -1.6013   -1.1736 H         1 <0>         0.0762
     31 H6          0.2735    0.1182    0.6317 H         1 <0>         0.1379
     32 H7          0.5583   -0.3697    2.3196 H         1 <0>         0.1323
     33 H8          1.8724    1.7882    0.6587 H         1 <0>         0.1313
     34 H9          2.2192    1.4772    2.3761 H         1 <0>         0.1292
     35 H10         4.2412    1.3152    0.0949 H         1 <0>         0.0887
     36 H11         4.1181    2.6364    1.2825 H         1 <0>         0.1142
     37 H12         4.5947    1.0642    3.1178 H         1 <0>         0.0913
     38 H13         4.8423   -1.0237    0.9030 H         1 <0>         0.0874
     39 H14         5.1280   -1.2928    2.6399 H         1 <0>         0.1154
     40 H15         2.7742   -0.6822    3.1221 H         1 <0>         0.1294
     41 H16         2.8582   -2.0473    1.9838 H         1 <0>         0.1296
     42 H17         6.5715    0.6786    0.8245 H         1 <0>         0.0781
     43 H18         6.4897    2.1296    1.8521 H         1 <0>         0.0834
     44 H19         7.1402    2.0338    4.1914 H         1 <0>         0.1217
     45 H20         8.5284    0.9111    5.8871 H         1 <0>         0.1255
     46 H21         9.3283   -1.3853    5.4998 H         1 <0>         0.1254
     47 H22         8.7393   -2.5593    3.4170 H         1 <0>         0.1243
     48 H23         7.3441   -1.4396    1.7249 H         1 <0>         0.1191
     49 H24        -1.2053   -3.5850   -1.1860 H         1 <0>         0.1253
     50 H25        -1.5465   -5.9848   -1.6141 H         1 <0>         0.1348
     51 H26        -1.2715   -6.7643    2.5790 H         1 <0>         0.1353
     52 H27        -0.9216   -4.3641    2.9978 H         1 <0>         0.1295
     53 H28        -0.8005   -8.3463    0.0759 H         1 <0>         0.3975
     54 H29        -1.5515   -1.7456   -0.6025 H         1 <0>         0.3783
     55 H30         2.5872   -0.4582    0.2029 H         1 <0>         0.4190
@<TRIPOS>BOND
     1    1    2 1
     2    1   28 1
     3    1   29 1
     4    1   30 1
     5    2    3 1
     6    2    4 1
     7    2   18 1
     8    4    5 1
     9    4   31 1
    10    4   32 1
    11    5   10 1
    12    5    6 1
    13    5   55 1
    14    6    7 1
    15    6   33 1
    16    6   34 1
    17    7    8 1
    18    7   35 1
    19    7   36 1
    20    8    9 1
    21    8   11 1
    22    8   37 1
    23    9   10 1
    24    9   38 1
    25    9   39 1
    26   10   40 1
    27   10   41 1
    28   11   12 1
    29   11   42 1
    30   11   43 1
    31   12   17 ar
    32   12   13 ar
    33   13   14 ar
    34   13   44 1
    35   14   15 ar
    36   14   45 1
    37   15   16 ar
    38   15   46 1
    39   16   17 ar
    40   16   47 1
    41   17   48 1
    42   18   19 1
    43   18   20 1
    44   18   27 1
    45   20   25 ar
    46   20   21 ar
    47   21   22 ar
    48   21   49 1
    49   22   23 ar
    50   22   50 1
    51   23   24 ar
    52   23   26 1
    53   24   25 ar
    54   24   51 1
    55   25   52 1
    56   26   53 1
    57   27   54 1
@<TRIPOS>MOLECULE
ZINC00007382
   53    55     0     0     0
SMALL
USER_CHARGES

@<TRIPOS>ATOM
      1 C1         -0.8334    0.9464   -0.0459 C.3       1 <0>        -0.1241
      2 C2         -0.6770   -0.5509    0.0217 C.ar      1 <0>        -0.0743
      3 C3         -0.6935   -1.3007   -1.1396 C.ar      1 <0>        -0.1146
      4 C4         -0.5501   -2.6742   -1.0776 C.ar      1 <0>        -0.1129
      5 C5         -0.3897   -3.2978    0.1456 C.ar      1 <0>        -0.1114
      6 C6         -0.3723   -2.5480    1.3068 C.ar      1 <0>        -0.1140
      7 C7         -0.5114   -1.1741    1.2444 C.ar      1 <0>        -0.1176
      8 C8         -0.2343   -4.7953    0.2133 C.3       1 <0>        -0.1041
      9 C9          1.2491   -5.1588    0.1217 C.3       1 <0>         0.1322
     10 C10         2.0054   -4.5227    1.2916 C.3       1 <0>        -0.1756
     11 C11         3.4723   -4.9549    1.2387 C.3       1 <0>        -0.0079
     12 N1          3.5592   -6.4170    1.3351 N.4       1 <0>        -0.3832
     13 C12         2.8977   -7.0325    0.1783 C.3       1 <0>        -0.0033
     14 C13         1.4087   -6.6803    0.1903 C.3       1 <0>        -0.1315
     15 C14         4.9711   -6.8214    1.3623 C.3       1 <0>         0.0000
     16 C15         5.6216   -6.3160    2.6517 C.3       1 <0>         0.0254
     17 O1          4.9991   -6.9410    3.7759 O.3       1 <0>        -0.3274
     18 C16         5.4631   -6.5991    5.0076 C.ar      1 <0>         0.1029
     19 C17         6.4920   -5.6771    5.1297 C.ar      1 <0>        -0.1854
     20 C18         6.9633   -5.3299    6.3808 C.ar      1 <0>        -0.1054
     21 C19         6.4074   -5.9029    7.5150 C.ar      1 <0>         0.0884
     22 C20         5.3779   -6.8242    7.3929 C.ar      1 <0>        -0.1042
     23 C21         4.9036   -7.1682    6.1420 C.ar      1 <0>        -0.1240
     24 O2          6.8720   -5.5617    8.7466 O.3       1 <0>        -0.4945
     25 O3          1.7836   -4.6774   -1.1131 O.3       1 <0>        -0.5537
     26 H1          0.1478    1.4100   -0.1480 H         1 <0>         0.0749
     27 H2         -1.4503    1.2089   -0.9054 H         1 <0>         0.0713
     28 H3         -1.3108    1.3034    0.8666 H         1 <0>         0.0704
     29 H4         -0.8188   -0.8134   -2.0952 H         1 <0>         0.1270
     30 H5         -0.5637   -3.2600   -1.9847 H         1 <0>         0.1269
     31 H6         -0.2473   -3.0353    2.2625 H         1 <0>         0.1203
     32 H7         -0.4941   -0.5878    2.1513 H         1 <0>         0.1251
     33 H8         -0.6403   -5.1604    1.1567 H         1 <0>         0.0868
     34 H9         -0.7728   -5.2543   -0.6158 H         1 <0>         0.0918
     35 H10         1.9429   -3.4370    1.2181 H         1 <0>         0.1183
     36 H11         1.5630   -4.8506    2.2323 H         1 <0>         0.0979
     37 H12         3.9138   -4.6263    0.2979 H         1 <0>         0.1350
     38 H13         4.0137   -4.5037    2.0702 H         1 <0>         0.1271
     39 H14         3.3514   -6.6597   -0.7400 H         1 <0>         0.1377
     40 H15         3.0149   -8.1151    0.2269 H         1 <0>         0.1327
     41 H16         0.9539   -7.0529    1.1082 H         1 <0>         0.1020
     42 H17         0.9197   -7.1367   -0.6703 H         1 <0>         0.1220
     43 H18         5.0385   -7.9086    1.3234 H         1 <0>         0.1434
     44 H19         5.4881   -6.3943    0.5030 H         1 <0>         0.1499
     45 H20         6.6839   -6.5599    2.6425 H         1 <0>         0.1098
     46 H21         5.4975   -5.2354    2.7219 H         1 <0>         0.0859
     47 H22         6.9249   -5.2309    4.2466 H         1 <0>         0.1317
     48 H23         7.7650   -4.6124    6.4759 H         1 <0>         0.1380
     49 H24         4.9452   -7.2707    8.2760 H         1 <0>         0.1431
     50 H25         4.0994   -7.8828    6.0471 H         1 <0>         0.1381
     51 H26         6.4154   -4.8077    9.1442 H         1 <0>         0.3959
     52 H27         1.7180   -3.7189   -1.2230 H         1 <0>         0.3900
     53 H28         3.1069   -6.7247    2.1829 H         1 <0>         0.4272
@<TRIPOS>BOND
     1    1    2 1
     2    1   26 1
     3    1   27 1
     4    1   28 1
     5    2    7 ar
     6    2    3 ar
     7    3    4 ar
     8    3   29 1
     9    4    5 ar
    10    4   30 1
    11    5    6 ar
    12    5    8 1
    13    6    7 ar
    14    6   31 1
    15    7   32 1
    16    8    9 1
    17    8   33 1
    18    8   34 1
    19    9   14 1
    20    9   10 1
    21    9   25 1
    22   10   11 1
    23   10   35 1
    24   10   36 1
    25   11   12 1
    26   11   37 1
    27   11   38 1
    28   12   13 1
    29   12   15 1
    30   12   53 1
    31   13   14 1
    32   13   39 1
    33   13   40 1
    34   14   41 1
    35   14   42 1
    36   15   16 1
    37   15   43 1
    38   15   44 1
    39   16   17 1
    40   16   45 1
    41   16   46 1
    42   17   18 1
    43   18   23 ar
    44   18   19 ar
    45   19   20 ar
    46   19   47 1
    47   20   21 ar
    48   20   48 1
    49   21   22 ar
    50   21   24 1
    51   22   23 ar
    52   22   49 1
    53   23   50 1
    54   24   51 1
    55   25   52 1
@<TRIPOS>MOLECULE
ZINC13777635
   38    40     0     0     0
SMALL
USER_CHARGES

@<TRIPOS>ATOM
      1 C1         -0.0187    1.5258    0.0104 C.3       1 <0>        -0.1481
      2 C2          0.0021   -0.0041    0.0020 C.3       1 <0>        -0.0480
      3 C3          0.7182   -0.4975   -1.2568 C.3       1 <0>        -0.1137
      4 C4          0.7390   -2.0273   -1.2652 C.3       1 <0>        -0.0804
      5 C5          1.4790   -2.5342   -0.0257 C.3       1 <0>        -0.1141
      6 C6          0.7628   -2.0407    1.2331 C.3       1 <0>        -0.0473
      7 C7          0.7421   -0.5109    1.2415 C.3       1 <0>        -0.1083
      8 C8         -0.6726   -2.5703    1.2440 C.3       1 <0>        -0.1224
      9 C9         -1.4126   -2.0635    0.0045 C.3       1 <0>         0.0580
     10 C10        -0.6964   -2.5569   -1.2543 C.3       1 <0>        -0.1266
     11 C11        -1.4333   -0.5336    0.0129 C.3       1 <0>        -0.1223
     12 N1         -2.7907   -2.5720    0.0149 N.4       1 <0>        -0.5049
     13 C12        -3.5012   -2.0853   -1.1752 C.3       1 <0>        -0.0563
     14 C13         1.5028   -2.5476    2.4727 C.3       1 <0>        -0.1482
     15 H1          1.0039    1.9031    0.0027 H         1 <0>         0.0681
     16 H2         -0.5459    1.8868   -0.8726 H         1 <0>         0.0610
     17 H3         -0.5289    1.8773    0.9072 H         1 <0>         0.0612
     18 H4          0.1910   -0.1364   -2.1398 H         1 <0>         0.0707
     19 H5          1.7408   -0.1202   -1.2645 H         1 <0>         0.0801
     20 H6          1.2492   -2.3788   -2.1620 H         1 <0>         0.0931
     21 H7          1.4937   -3.6240   -0.0317 H         1 <0>         0.0713
     22 H8          2.5015   -2.1569   -0.0334 H         1 <0>         0.0801
     23 H9          1.7647   -0.1336    1.2338 H         1 <0>         0.0800
     24 H10         0.2319   -0.1594    2.1383 H         1 <0>         0.0712
     25 H11        -0.6578   -3.6602    1.2380 H         1 <0>         0.0870
     26 H12        -1.1828   -2.2188    2.1408 H         1 <0>         0.0868
     27 H13        -1.2236   -2.1958   -2.1374 H         1 <0>         0.0877
     28 H14        -0.6816   -3.6468   -1.2603 H         1 <0>         0.0863
     29 H15        -1.9435   -0.1821    0.9097 H         1 <0>         0.0863
     30 H16        -1.9605   -0.1726   -0.8702 H         1 <0>         0.0880
     31 H17        -2.7770   -3.5808    0.0093 H         1 <0>         0.4277
     32 H18        -3.5160   -0.9954   -1.1692 H         1 <0>         0.1251
     33 H19        -2.9910   -2.4368   -2.0720 H         1 <0>         0.1253
     34 H20        -4.5238   -2.4626   -1.1675 H         1 <0>         0.1271
     35 H21         2.5254   -2.1703    2.4649 H         1 <0>         0.0680
     36 H22         0.9926   -2.1961    3.3695 H         1 <0>         0.0613
     37 H23         1.5176   -3.6375    2.4667 H         1 <0>         0.0614
     38 H24        -3.2630   -2.2466    0.8450 H         1 <0>         0.4276
@<TRIPOS>BOND
     1    1    2 1
     2    1   15 1
     3    1   16 1
     4    1   17 1
     5    2    7 1
     6    2   11 1
     7    2    3 1
     8    3    4 1
     9    3   18 1
    10    3   19 1
    11    4   10 1
    12    4    5 1
    13    4   20 1
    14    5    6 1
    15    5   21 1
    16    5   22 1
    17    6    7 1
    18    6    8 1
    19    6   14 1
    20    7   23 1
    21    7   24 1
    22    8    9 1
    23    8   25 1
    24    8   26 1
    25    9   10 1
    26    9   11 1
    27    9   12 1
    28   10   27 1
    29   10   28 1
    30   11   29 1
    31   11   30 1
    32   12   13 1
    33   12   31 1
    34   12   38 1
    35   13   32 1
    36   13   33 1
    37   13   34 1
    38   14   35 1
    39   14   36 1
    40   14   37 1
@<TRIPOS>MOLECULE
ZINC03866443
   35    37     0     0     0
SMALL
USER_CHARGES
2-(1-adamantyl)ethanamine
@<TRIPOS>ATOM
      1 C1         -0.0127    1.0858    0.0080 C.3       1 <0>        -0.1128
      2 C2         -0.7288    1.5792    1.2668 C.3       1 <0>        -0.0872
      3 C3         -0.7496    3.1091    1.2752 C.3       1 <0>        -0.1120
      4 C4         -1.4896    3.6159    0.0357 C.3       1 <0>        -0.0873
      5 C5         -0.7734    3.1225   -1.2231 C.3       1 <0>        -0.1128
      6 C6         -0.7527    1.5927   -1.2315 C.3       1 <0>        -0.0876
      7 C7         -2.1881    1.0631   -1.2207 C.3       1 <0>        -0.1020
      8 C8         -2.9042    1.5565    0.0381 C.3       1 <0>        -0.0481
      9 C9         -2.1642    1.0497    1.2777 C.3       1 <0>        -0.1078
     10 C10        -2.9250    3.0863    0.0466 C.3       1 <0>        -0.1078
     11 C11        -4.3396    1.0269    0.0490 C.3       1 <0>        -0.1430
     12 C12        -5.0557    1.5203    1.3078 C.3       1 <0>        -0.0137
     13 H1          0.0021   -0.0041    0.0020 H         1 <0>         0.0638
     14 H2          1.0099    1.4631    0.0003 H         1 <0>         0.0677
     15 H3         -0.2017    1.2182    2.1499 H         1 <0>         0.0747
     16 H4         -1.2598    3.4606    2.1720 H         1 <0>         0.0613
     17 H5          0.2730    3.4864    1.2675 H         1 <0>         0.0682
     18 H6         -1.5044    4.7058    0.0417 H         1 <0>         0.0748
     19 H7          0.2491    3.4998   -1.2308 H         1 <0>         0.0677
     20 H8         -1.3006    3.4836   -2.1062 H         1 <0>         0.0639
     21 H9         -0.2425    1.2411   -2.1283 H         1 <0>         0.0760
     22 H10        -2.7153    1.4241   -2.1037 H         1 <0>         0.0663
     23 H11        -2.1733   -0.0268   -1.2266 H         1 <0>         0.0662
     24 H12        -2.6744    1.4012    2.1745 H         1 <0>         0.0601
     25 H13        -2.1494   -0.0402    1.2717 H         1 <0>         0.0674
     26 H14        -3.4522    3.4474   -0.8365 H         1 <0>         0.0675
     27 H15        -3.4352    3.4378    0.9434 H         1 <0>         0.0601
     28 H16        -4.8668    1.3880   -0.8341 H         1 <0>         0.0890
     29 H17        -4.3248   -0.0630    0.0430 H         1 <0>         0.0886
     30 H18        -4.5286    1.1592    2.1909 H         1 <0>         0.1339
     31 H19        -5.0705    2.6102    1.3138 H         1 <0>         0.1368
     32 H20        -6.9283    1.3242    2.1405 H         1 <0>         0.4398
     33 H21        -6.9244    1.2793    0.4780 H         1 <0>         0.4366
     34 N1         -6.4293    0.9870    1.3189 N.4       1 <0>        -0.6471
     35 H22        -6.3929   -0.0388    1.3467 H         1 <0>         0.4389
@<TRIPOS>BOND
     1    1    6 1
     2    1    2 1
     3    1   13 1
     4    1   14 1
     5    2    9 1
     6    2    3 1
     7    2   15 1
     8    3    4 1
     9    3   16 1
    10    3   17 1
    11    4   10 1
    12    4    5 1
    13    4   18 1
    14    5    6 1
    15    5   19 1
    16    5   20 1
    17    6    7 1
    18    6   21 1
    19    7    8 1
    20    7   22 1
    21    7   23 1
    22    8    9 1
    23    8   10 1
    24    8   11 1
    25    9   24 1
    26    9   25 1
    27   10   26 1
    28   10   27 1
    29   11   12 1
    30   11   28 1
    31   11   29 1
    32   12   30 1
    33   12   31 1
    34   12   34 1
    35   32   34 1
    36   33   34 1
    37   34   35 1
@<TRIPOS>MOLECULE
ZINC13488065
   33    35     0     0     0
SMALL
USER_CHARGES
2-(3,4-dihydro-1H-isoquinolin-2-yl)pyridin-3-amine
@<TRIPOS>ATOM
      1 C1         -0.1117   10.0119   -1.2997 C.ar      1 <0>        -0.1037
      2 C2          0.8399    9.3864   -2.0838 C.ar      1 <0>        -0.1134
      3 C3          0.9843    8.0150   -2.0267 C.ar      1 <0>        -0.1078
      4 C4          0.1801    7.2593   -1.1859 C.ar      1 <0>        -0.0995
      5 C5         -0.7661    7.8838   -0.4020 C.ar      1 <0>        -0.0731
      6 C6         -0.9120    9.2616   -0.4618 C.ar      1 <0>        -0.1149
      7 C7         -1.6554    7.1068    0.5345 C.3       1 <0>        -0.0758
      8 C8         -1.6388    5.6246    0.1599 C.3       1 <0>         0.0452
      9 N1         -0.2384    5.1887    0.0401 N.pl3     1 <0>        -0.4914
     10 C9          0.3722    5.7656   -1.1617 C.3       1 <0>         0.0967
     11 C10        -0.1476    3.7989    0.0281 C.ar      1 <0>         0.2374
     12 C11         0.5866    3.1434    1.0203 C.ar      1 <0>         0.2526
     13 C12         0.6669    1.7578    0.9926 C.ar      1 <0>        -0.0670
     14 C13         0.0109    1.0774   -0.0250 C.ar      1 <0>        -0.0782
     15 C14        -0.6906    1.7917   -0.9743 C.ar      1 <0>         0.0943
     16 N2          1.2315    3.8729    2.0263 N.pl3     1 <0>        -0.8228
     17 H1         -0.2289   11.0846   -1.3430 H         1 <0>         0.1304
     18 H2          1.4693    9.9699   -2.7394 H         1 <0>         0.1303
     19 H3          1.7277    7.5274   -2.6399 H         1 <0>         0.1248
     20 H4         -1.6554    9.7501    0.1506 H         1 <0>         0.1283
     21 H5         -1.2963    7.2259    1.5567 H         1 <0>         0.0943
     22 H6         -2.6751    7.4853    0.4627 H         1 <0>         0.0956
     23 H7         -2.1495    5.4820   -0.7924 H         1 <0>         0.0556
     24 H8         -2.1376    5.0449    0.9366 H         1 <0>         0.0969
     25 H9          1.4385    5.5399   -1.1671 H         1 <0>         0.1044
     26 H10        -0.0923    5.3293   -2.0460 H         1 <0>         0.0545
     27 H11         1.2260    1.2214    1.7450 H         1 <0>         0.1772
     28 H12         0.0533   -0.0006   -0.0755 H         1 <0>         0.1900
     29 H13        -1.1977    1.2648   -1.7690 H         1 <0>         0.1945
     30 H14         1.6730    3.4088    2.7548 H         1 <0>         0.4221
     31 H15         1.2369    4.8424    1.9948 H         1 <0>         0.4248
     32 N3         -0.7979    3.1487   -0.9778 N.ar      1 <0>        -0.4691
     33 H16        -1.3355    3.6513   -1.6938 H         1 <0>         0.4668
@<TRIPOS>BOND
     1    1    6 ar
     2    1    2 ar
     3    1   17 1
     4    2    3 ar
     5    2   18 1
     6    3    4 ar
     7    3   19 1
     8    4   10 1
     9    4    5 ar
    10    5    6 ar
    11    5    7 1
    12    6   20 1
    13    7    8 1
    14    7   21 1
    15    7   22 1
    16    8    9 1
    17    8   23 1
    18    8   24 1
    19    9   10 1
    20    9   11 1
    21   10   25 1
    22   10   26 1
    23   11   12 ar
    24   11   32 ar
    25   12   13 ar
    26   12   16 1
    27   13   14 ar
    28   13   27 1
    29   14   15 ar
    30   14   28 1
    31   15   29 1
    32   15   32 ar
    33   16   30 1
    34   16   31 1
    35   32   33 1
@<TRIPOS>MOLECULE
ZINC11568744
   33    35     0     0     0
SMALL
USER_CHARGES
6-(3,4-dihydro-1H-isoquinolin-2-yl)pyridin-3-amine
@<TRIPOS>ATOM
      1 C1         -8.9187    6.2199   -1.2445 C.ar      1 <0>        -0.1038
      2 C2         -7.8612    6.7881   -1.9304 C.ar      1 <0>        -0.1119
      3 C3         -6.6101    6.2089   -1.8667 C.ar      1 <0>        -0.1059
      4 C4         -6.4065    5.0593   -1.1173 C.ar      1 <0>        -0.1009
      5 C5         -7.4604    4.4953   -0.4310 C.ar      1 <0>        -0.0768
      6 C6         -8.7176    5.0767   -0.4975 C.ar      1 <0>        -0.1134
      7 C7         -7.2861    3.2533    0.4048 C.3       1 <0>        -0.0734
      8 C8         -5.9839    2.5477    0.0253 C.3       1 <0>         0.0201
      9 N1         -4.8936    3.5358    0.0473 N.pl3     1 <0>        -0.4686
     10 C9         -5.0243    4.4617   -1.0822 C.3       1 <0>         0.1002
     11 C10        -3.6502    2.9076    0.0365 C.ar      1 <0>         0.3239
     12 C11        -2.4913    3.6766    0.0348 C.ar      1 <0>        -0.0998
     13 C12        -1.2621    3.0433    0.0304 C.ar      1 <0>        -0.0371
     14 C13        -1.2333    1.6495    0.0169 C.ar      1 <0>         0.1995
     15 C14        -2.4293    0.9486    0.0187 C.ar      1 <0>         0.0356
     16 N2         -0.0111    0.9658    0.0074 N.pl3     1 <0>        -0.8423
     17 H1         -9.8996    6.6692   -1.2933 H         1 <0>         0.1308
     18 H2         -8.0138    7.6835   -2.5146 H         1 <0>         0.1314
     19 H3         -5.7848    6.6532   -2.4033 H         1 <0>         0.1279
     20 H4         -9.5437    4.6329    0.0383 H         1 <0>         0.1287
     21 H5         -7.2550    3.5280    1.4591 H         1 <0>         0.0965
     22 H6         -8.1250    2.5795    0.2310 H         1 <0>         0.0995
     23 H7         -6.0748    2.1248   -0.9752 H         1 <0>         0.0781
     24 H8         -5.7742    1.7549    0.7434 H         1 <0>         0.0923
     25 H9         -4.2896    5.2603   -0.9795 H         1 <0>         0.1128
     26 H10        -4.8422    3.9228   -2.0120 H         1 <0>         0.0770
     27 H11        -2.5507    4.7550    0.0417 H         1 <0>         0.1883
     28 H12        -0.3458    3.6150    0.0337 H         1 <0>         0.1765
     29 H13        -2.4153   -0.1313    0.0124 H         1 <0>         0.1901
     30 H14         0.0021   -0.0041    0.0020 H         1 <0>         0.4166
     31 H15         0.8223    1.4622    0.0021 H         1 <0>         0.4220
     32 N3         -3.6525    1.5439    0.0287 N.ar      1 <0>        -0.4827
     33 H16        -4.5235    1.0001    0.0303 H         1 <0>         0.4689
@<TRIPOS>BOND
     1    1    6 ar
     2    1    2 ar
     3    1   17 1
     4    2    3 ar
     5    2   18 1
     6    3    4 ar
     7    3   19 1
     8    4   10 1
     9    4    5 ar
    10    5    6 ar
    11    5    7 1
    12    6   20 1
    13    7    8 1
    14    7   21 1
    15    7   22 1
    16    8    9 1
    17    8   23 1
    18    8   24 1
    19    9   10 1
    20    9   11 1
    21   10   25 1
    22   10   26 1
    23   11   12 ar
    24   11   32 ar
    25   12   13 ar
    26   12   27 1
    27   13   14 ar
    28   13   28 1
    29   14   15 ar
    30   14   16 1
    31   15   29 1
    32   15   32 ar
    33   16   30 1
    34   16   31 1
    35   32   33 1
@<TRIPOS>MOLECULE
ZINC28768623
   27    27     0     0     0
SMALL
USER_CHARGES
(2S,4R)-4-(phosphonomethyl)piperidine-2-carboxylic acid
@<TRIPOS>ATOM
      1 C1         -1.3745   -2.5417   -1.5677 C.3       1 <0>        -0.1674
      2 C2         -1.4183   -4.0649   -1.7090 C.3       1 <0>         0.0024
      3 N1         -2.7510   -4.5544   -1.3342 N.4       1 <0>        -0.5170
      4 C3         -3.0574   -4.2401    0.0671 C.3       1 <0>        -0.0095
      5 H1         -2.2856   -4.7142    0.6913 H         1 <0>         0.1270
      6 C4         -3.0626   -2.7222    0.2615 C.3       1 <0>        -0.1168
      7 C5         -1.6905   -2.1591   -0.1191 C.3       1 <0>        -0.0753
      8 H2         -0.9216   -2.5732    0.5497 H         1 <0>         0.0782
      9 C6         -1.7082   -0.6351    0.0149 C.3       1 <0>        -0.7309
     10 P1          0.0021   -0.0041    0.0020 P.3       1 <0>         2.2817
     11 O1          0.6948   -0.4814   -1.2156 O.2       1 <0>        -1.0838
     12 O2         -0.0198    1.6058    0.0109 O.3       1 <0>        -1.1192
     13 O3          0.7807   -0.5374    1.3064 O.3       1 <0>        -0.9391
     14 C7         -4.4124   -4.7964    0.4218 C.2       1 <0>         0.4598
     15 O4         -5.2035   -5.0629   -0.4516 O.co2     1 <0>        -0.6242
     16 O5         -4.7403   -4.9958    1.7081 O.co2     1 <0>        -0.7122
     17 H3         -2.1197   -2.0880   -2.2377 H         1 <0>         0.0765
     18 H4         -0.3717   -2.1757   -1.8332 H         1 <0>         0.1550
     19 H5         -1.2061   -4.3426   -2.7520 H         1 <0>         0.1238
     20 H6         -0.6633   -4.5163   -1.0486 H         1 <0>         0.1187
     21 H7         -3.5093   -4.0797   -1.9742 H         1 <0>         0.4435
     22 H8         -3.8358   -2.2731   -0.3792 H         1 <0>         0.0761
     23 H9         -3.2777   -2.4881    1.3146 H         1 <0>         0.0998
     24 H10        -2.2661   -0.1995   -0.8271 H         1 <0>         0.0895
     25 H11        -2.1950   -0.3558    0.9610 H         1 <0>         0.0777
     26 H12         1.8317   -0.2583    1.4720 H         1 <0>         0.4463
     27 H13        -2.7912   -5.6457   -1.4659 H         1 <0>         0.4396
@<TRIPOS>BOND
     1    1    7 1
     2    1    2 1
     3    1   17 1
     4    1   18 1
     5    2    3 1
     6    2   19 1
     7    2   20 1
     8    3    4 1
     9    3   21 1
    10    3   27 1
    11    4    5 1
    12    4    6 1
    13    4   14 1
    14    6    7 1
    15    6   22 1
    16    6   23 1
    17    7    8 1
    18    7    9 1
    19    9   10 1
    20    9   24 1
    21    9   25 1
    22   10   11 2
    23   10   12 1
    24   10   13 1
    25   13   26 1
    26   14   15 2
    27   14   16 1
@<TRIPOS>MOLECULE
ZINC17014699
   20    21     0     0     0
SMALL
USER_CHARGES

@<TRIPOS>ATOM
      1 C1         -0.0166    1.3746    0.0096 C.ar      1 <0>        -0.1514
      2 C2          1.1730    2.0868    0.0021 C.ar      1 <0>        -0.0461
      3 C3          2.3871    1.4329   -0.0113 C.ar      1 <0>        -0.1644
      4 C4          2.4310    0.0417   -0.0176 C.ar      1 <0>         0.2091
      5 C5          1.2232   -0.6755   -0.0135 C.ar      1 <0>        -0.2013
      6 C6          0.0021   -0.0041    0.0020 C.ar      1 <0>        -0.0195
      7 C7          1.2775   -2.1549   -0.0307 C.2       1 <0>         0.4660
      8 O1          0.3572   -2.8494    0.3560 O.2       1 <0>        -0.4003
      9 C8          2.5541   -2.7284   -0.5609 C.2       1 <0>         0.0217
     10 N1          2.5930   -3.8522   -1.2215 N.2       1 <0>        -0.1917
     11 O2          3.8292   -4.3492   -1.7009 O.3       1 <0>        -0.3497
     12 C9          3.7767   -1.9256   -0.2817 C.2       1 <0>         0.5450
     13 O3          4.8727   -2.4516   -0.2851 O.2       1 <0>        -0.4687
     14 N2          3.6529   -0.6097   -0.0264 N.am      1 <0>        -0.6497
     15 H1         -0.9597    1.9007    0.0259 H         1 <0>         0.1392
     16 H2          1.1486    3.1665    0.0063 H         1 <0>         0.1387
     17 H3          3.3054    2.0012   -0.0172 H         1 <0>         0.1404
     18 H4         -0.9238   -0.5601    0.0077 H         1 <0>         0.1446
     19 H5          3.7577   -5.1872   -2.1781 H         1 <0>         0.4165
     20 H6          4.4542   -0.0957    0.1596 H         1 <0>         0.4214
@<TRIPOS>BOND
     1    1    6 ar
     2    1    2 ar
     3    1   15 1
     4    2    3 ar
     5    2   16 1
     6    3    4 ar
     7    3   17 1
     8    4   14 1
     9    4    5 ar
    10    5    6 ar
    11    5    7 1
    12    6   18 1
    13    7    8 2
    14    7    9 1
    15    9   10 2
    16    9   12 1
    17   10   11 1
    18   11   19 1
    19   12   13 2
    20   12   14 am
    21   14   20 1
@<TRIPOS>MOLECULE
ZINC17014699
   19    20     0     0     0
SMALL
USER_CHARGES

@<TRIPOS>ATOM
      1 C1         -0.0166    1.3748    0.0096 C.ar      1 <0>        -0.2123
      2 C2          1.1722    2.0909    0.0021 C.ar      1 <0>        -0.0599
      3 C3          2.3876    1.4447   -0.0111 C.ar      1 <0>        -0.1696
      4 C4          2.4367    0.0449   -0.0168 C.ar      1 <0>         0.2610
      5 C5          1.2223   -0.6749   -0.0130 C.ar      1 <0>        -0.2903
      6 C6          0.0021   -0.0041    0.0020 C.ar      1 <0>        -0.0215
      7 C7          1.2851   -2.1517   -0.0304 C.2       1 <0>         0.4211
      8 O1          0.3655   -2.8576    0.3391 O.2       1 <0>        -0.4462
      9 C8          2.5799   -2.7028   -0.5434 C.2       1 <0>         0.0316
     10 N1          2.6519   -3.8349   -1.1918 N.2       1 <0>        -0.2245
     11 O2          1.4778   -4.5891   -1.4321 O.3       1 <0>        -0.3997
     12 C9          3.7750   -1.8689   -0.2622 C.2       1 <0>         0.5079
     13 O3          5.0063   -2.4280   -0.2521 O.3       1 <0>        -0.6243
     14 N2          3.6318   -0.5916   -0.0243 N.2       1 <0>        -0.6420
     15 H1         -0.9604    1.8997    0.0260 H         1 <0>         0.1135
     16 H2          1.1433    3.1705    0.0063 H         1 <0>         0.1152
     17 H3          3.3035    2.0171   -0.0166 H         1 <0>         0.1253
     18 H4         -0.9237   -0.5601    0.0084 H         1 <0>         0.1155
     19 H5          1.6308   -5.4108   -1.9184 H         1 <0>         0.3993
@<TRIPOS>BOND
     1    1    6 ar
     2    1    2 ar
     3    1   15 1
     4    2    3 ar
     5    2   16 1
     6    3    4 ar
     7    3   17 1
     8    4   14 1
     9    4    5 ar
    10    5    6 ar
    11    5    7 1
    12    6   18 1
    13    7    8 2
    14    7    9 1
    15    9   10 2
    16    9   12 1
    17   10   11 1
    18   11   19 1
    19   12   13 1
    20   12   14 2
@<TRIPOS>MOLECULE
ZINC17014699
   19    20     0     0     0
SMALL
USER_CHARGES

@<TRIPOS>ATOM
      1 C1         -0.0166    1.3748    0.0096 C.ar      1 <0>        -0.2151
      2 C2          1.1722    2.0909    0.0021 C.ar      1 <0>        -0.0580
      3 C3          2.3876    1.4447   -0.0111 C.ar      1 <0>        -0.1718
      4 C4          2.4367    0.0449   -0.0168 C.ar      1 <0>         0.2672
      5 C5          1.2223   -0.6749   -0.0130 C.ar      1 <0>        -0.2905
      6 C6          0.0021   -0.0041    0.0020 C.ar      1 <0>        -0.0175
      7 C7          1.2851   -2.1517   -0.0304 C.2       1 <0>         0.4714
      8 O1          0.3655   -2.8576    0.3391 O.2       1 <0>        -0.4521
      9 C8          2.5799   -2.7028   -0.5434 C.2       1 <0>         0.0192
     10 N1          2.6519   -3.8349   -1.1918 N.2       1 <0>        -0.2461
     11 O2          3.9041   -4.3076   -1.6541 O.3       1 <0>        -0.3584
     12 C9          3.7750   -1.8689   -0.2622 C.2       1 <0>         0.4660
     13 O3          5.0063   -2.4280   -0.2521 O.3       1 <0>        -0.6178
     14 N2          3.6318   -0.5916   -0.0243 N.2       1 <0>        -0.6560
     15 H1         -0.9604    1.8997    0.0260 H         1 <0>         0.1140
     16 H2          1.1433    3.1705    0.0063 H         1 <0>         0.1146
     17 H3          3.3035    2.0171   -0.0166 H         1 <0>         0.1240
     18 H4         -0.9237   -0.5601    0.0084 H         1 <0>         0.1173
     19 H5          3.8571   -5.1525   -2.1221 H         1 <0>         0.3896
@<TRIPOS>BOND
     1    1    6 ar
     2    1    2 ar
     3    1   15 1
     4    2    3 ar
     5    2   16 1
     6    3    4 ar
     7    3   17 1
     8    4   14 1
     9    4    5 ar
    10    5    6 ar
    11    5    7 1
    12    6   18 1
    13    7    8 2
    14    7    9 1
    15    9   10 2
    16    9   12 1
    17   10   11 1
    18   11   19 1
    19   12   13 1
    20   12   14 2
@<TRIPOS>MOLECULE
ZINC17014699
   19    20     0     0     0
SMALL
USER_CHARGES

@<TRIPOS>ATOM
      1 C1         -0.0166    1.3746    0.0096 C.ar      1 <0>        -0.1660
      2 C2          1.1730    2.0868    0.0021 C.ar      1 <0>        -0.0695
      3 C3          2.3871    1.4329   -0.0113 C.ar      1 <0>        -0.1783
      4 C4          2.4310    0.0417   -0.0176 C.ar      1 <0>         0.2138
      5 C5          1.2232   -0.6755   -0.0135 C.ar      1 <0>        -0.1895
      6 C6          0.0021   -0.0041    0.0020 C.ar      1 <0>        -0.0352
      7 C7          1.2775   -2.1549   -0.0307 C.2       1 <0>         0.4243
      8 O1          0.3569   -2.8494    0.3553 O.2       1 <0>        -0.4387
      9 C8          2.5541   -2.7284   -0.5609 C.2       1 <0>        -0.2007
     10 N1          2.5930   -3.8522   -1.2215 N.2       1 <0>        -0.2038
     11 O2          1.3990   -4.5753   -1.4593 O.3       1 <0>        -0.4841
     12 C9          3.7767   -1.9256   -0.2817 C.2       1 <0>         0.5908
     13 O3          4.8727   -2.4516   -0.2851 O.2       1 <0>        -0.5242
     14 N2          3.6529   -0.6097   -0.0264 N.am      1 <0>        -0.6596
     15 H1         -0.9597    1.9007    0.0259 H         1 <0>         0.1259
     16 H2          1.1486    3.1665    0.0063 H         1 <0>         0.1257
     17 H3          3.3054    2.0012   -0.0172 H         1 <0>         0.1288
     18 H4         -0.9238   -0.5601    0.0077 H         1 <0>         0.1343
     19 H5          4.4542   -0.0957    0.1596 H         1 <0>         0.4058
@<TRIPOS>BOND
     1    1    6 ar
     2    1    2 ar
     3    1   15 1
     4    2    3 ar
     5    2   16 1
     6    3    4 ar
     7    3   17 1
     8    4   14 1
     9    4    5 ar
    10    5    6 ar
    11    5    7 1
    12    6   18 1
    13    7    8 2
    14    7    9 1
    15    9   10 2
    16    9   12 1
    17   10   11 1
    18   12   13 2
    19   12   14 am
    20   14   19 1
@<TRIPOS>MOLECULE
ZINC17014699
   19    20     0     0     0
SMALL
USER_CHARGES
(3Z)-3-hydroxyimino-1H-quinoline-2,4-dione
@<TRIPOS>ATOM
      1 C1         -0.0167    1.3824    0.0096 C.ar      1 <0>        -0.1752
      2 C2          0.0021   -0.0041    0.0020 C.ar      1 <0>        -0.0626
      3 C3          1.1962   -0.6937   -0.0153 C.ar      1 <0>        -0.1851
      4 C4          2.4030   -0.0003   -0.0247 C.ar      1 <0>         0.2359
      5 C5          2.3790    1.4042   -0.0130 C.ar      1 <0>        -0.2002
      6 C6          1.1662    2.0906    0.0022 C.ar      1 <0>        -0.0294
      7 C7          3.6665    2.1350   -0.0148 C.2       1 <0>         0.4619
      8 O1          3.7659    3.2874   -0.3903 O.2       1 <0>        -0.4661
      9 C8          4.8359    1.3443    0.4823 C.2       1 <0>        -0.2009
     10 N1          5.8267    1.8944    1.1277 N.2       1 <0>        -0.2087
     11 O2          6.9087    1.0985    1.5758 O.3       1 <0>        -0.4777
     12 C9          4.7890   -0.1146    0.1879 C.2       1 <0>         0.5494
     13 O3          5.8120   -0.7707    0.1623 O.2       1 <0>        -0.4947
     14 N2          3.5990   -0.6978   -0.0489 N.am      1 <0>        -0.6793
     15 H1         -0.9599    1.9085    0.0170 H         1 <0>         0.1254
     16 H2         -0.9295   -0.5504    0.0094 H         1 <0>         0.1249
     17 H3          1.1949   -1.7736   -0.0219 H         1 <0>         0.1287
     18 H4          1.1531    3.1705    0.0084 H         1 <0>         0.1333
     19 H5          3.6028   -1.7756   -0.2687 H         1 <0>         0.4203
@<TRIPOS>BOND
     1    1    6 ar
     2    1    2 ar
     3    1   15 1
     4    2    3 ar
     5    2   16 1
     6    3    4 ar
     7    3   17 1
     8    4   14 1
     9    4    5 ar
    10    5    6 ar
    11    5    7 1
    12    6   18 1
    13    7    8 2
    14    7    9 1
    15    9   10 2
    16    9   12 1
    17   10   11 1
    18   12   13 2
    19   12   14 am
    20   14   19 1
@<TRIPOS>MOLECULE
ZINC00014669
   52    54     0     0     0
SMALL
USER_CHARGES

@<TRIPOS>ATOM
      1 C1         -0.0187    1.5258    0.0104 C.3       1 <0>        -0.1955
      2 C2          0.0021   -0.0041    0.0020 C.3       1 <0>        -0.0083
      3 H1         -1.0205   -0.3814    0.0098 H         1 <0>         0.1468
      4 C3          0.7182   -0.4975   -1.2568 C.3       1 <0>         0.1400
      5 H2          0.8116   -1.5829   -1.2198 H         1 <0>         0.1310
      6 C4         -0.0771   -0.1029   -2.4745 C.ar      1 <0>        -0.1512
      7 C5          0.0941    1.1497   -3.0345 C.ar      1 <0>        -0.0890
      8 C6         -0.6341    1.5140   -4.1505 C.ar      1 <0>        -0.1398
      9 C7         -1.5374    0.6217   -4.7096 C.ar      1 <0>         0.1316
     10 C8         -1.7070   -0.6346   -4.1460 C.ar      1 <0>        -0.1402
     11 C9         -0.9726   -0.9960   -3.0331 C.ar      1 <0>        -0.0838
     12 O1         -2.2553    0.9780   -5.8071 O.3       1 <0>        -0.4970
     13 O2          2.0188    0.0904   -1.3262 O.3       1 <0>        -0.5453
     14 N1          0.7126   -0.4907    1.1921 N.4       1 <0>        -0.3761
     15 C10         0.7394   -1.9582    1.1781 C.3       1 <0>        -0.0130
     16 C11         1.5480   -2.4687    2.3727 C.3       1 <0>        -0.1408
     17 C12         0.8958   -1.9809    3.6696 C.3       1 <0>        -0.0939
     18 C13         0.8055   -0.4524    3.6405 C.3       1 <0>        -0.1446
     19 C14         0.0245   -0.0166    2.3989 C.3       1 <0>        -0.0111
     20 C15         1.7430   -2.4207    4.8653 C.3       1 <0>        -0.0745
     21 C16         1.0387   -2.0476    6.1443 C.ar      1 <0>        -0.0945
     22 C17         1.2668   -0.8138    6.7244 C.ar      1 <0>        -0.1215
     23 C18         0.6208   -0.4716    7.8976 C.ar      1 <0>        -0.1162
     24 C19        -0.2537   -1.3631    8.4905 C.ar      1 <0>        -0.1164
     25 C20        -0.4825   -2.5965    7.9099 C.ar      1 <0>        -0.1138
     26 C21         0.1602   -2.9370    6.7344 C.ar      1 <0>        -0.1161
     27 H3          1.0039    1.9031    0.0027 H         1 <0>         0.0830
     28 H4         -0.5459    1.8868   -0.8726 H         1 <0>         0.1122
     29 H5         -0.5289    1.8773    0.9072 H         1 <0>         0.0916
     30 H6          0.7975    1.8439   -2.5989 H         1 <0>         0.1273
     31 H7         -0.5005    2.4927   -4.5871 H         1 <0>         0.1383
     32 H8         -2.4096   -1.3309   -4.5794 H         1 <0>         0.1385
     33 H9         -1.1011   -1.9755   -2.5967 H         1 <0>         0.1312
     34 H10        -1.8251    0.7616   -6.6457 H         1 <0>         0.4023
     35 H11         2.0123    1.0567   -1.3619 H         1 <0>         0.3863
     36 H12        -0.2795   -2.3404    1.2397 H         1 <0>         0.1288
     37 H13         1.2010   -2.3039    0.2532 H         1 <0>         0.1321
     38 H14         1.5652   -3.5585    2.3616 H         1 <0>         0.1138
     39 H15         2.5673   -2.0873    2.3121 H         1 <0>         0.0906
     40 H16        -0.1053   -2.4035    3.7555 H         1 <0>         0.0907
     41 H17         0.2921   -0.1010    4.5354 H         1 <0>         0.1157
     42 H18         1.8094   -0.0291    3.6061 H         1 <0>         0.0886
     43 H19        -0.0418    1.0711    2.3751 H         1 <0>         0.1320
     44 H20        -0.9792   -0.4402    2.4344 H         1 <0>         0.1280
     45 H21         1.8865   -3.5007    4.8312 H         1 <0>         0.0833
     46 H22         2.7124   -1.9239    4.8261 H         1 <0>         0.0787
     47 H23         1.9500   -0.1173    6.2612 H         1 <0>         0.1195
     48 H24         0.7995    0.4921    8.3512 H         1 <0>         0.1244
     49 H25        -0.7579   -1.0960    9.4075 H         1 <0>         0.1252
     50 H26        -1.1655   -3.2931    8.3733 H         1 <0>         0.1252
     51 H27        -0.0214   -3.8992    6.2788 H         1 <0>         0.1215
     52 H28         1.6582   -0.1389    1.1853 H         1 <0>         0.4240
@<TRIPOS>BOND
     1    1    2 1
     2    1   27 1
     3    1   28 1
     4    1   29 1
     5    2    3 1
     6    2    4 1
     7    2   14 1
     8    4    5 1
     9    4    6 1
    10    4   13 1
    11    6   11 ar
    12    6    7 ar
    13    7    8 ar
    14    7   30 1
    15    8    9 ar
    16    8   31 1
    17    9   10 ar
    18    9   12 1
    19   10   11 ar
    20   10   32 1
    21   11   33 1
    22   12   34 1
    23   13   35 1
    24   14   19 1
    25   14   15 1
    26   14   52 1
    27   15   16 1
    28   15   36 1
    29   15   37 1
    30   16   17 1
    31   16   38 1
    32   16   39 1
    33   17   18 1
    34   17   20 1
    35   17   40 1
    36   18   19 1
    37   18   41 1
    38   18   42 1
    39   19   43 1
    40   19   44 1
    41   20   21 1
    42   20   45 1
    43   20   46 1
    44   21   26 ar
    45   21   22 ar
    46   22   23 ar
    47   22   47 1
    48   23   24 ar
    49   23   48 1
    50   24   25 ar
    51   24   49 1
    52   25   26 ar
    53   25   50 1
    54   26   51 1
