@<TRIPOS>MOLECULE
ZINC26823248
   22    23     0     0     0
SMALL
USER_CHARGES

@<TRIPOS>ATOM
      1 C1         -0.0167    1.3791    0.0096 C.ar      1 <0>        -0.0619
      2 C2          1.1738    2.0800    0.0020 C.ar      1 <0>        -0.0866
      3 C3          2.3803    1.4026   -0.0162 C.ar      1 <0>        -0.0168
      4 C4          2.4046    0.0232   -0.0306 C.ar      1 <0>        -0.0303
      5 C5          1.2074   -0.6787   -0.0171 C.ar      1 <0>        -0.0881
      6 C6          0.0021   -0.0041    0.0020 C.ar      1 <0>        -0.0299
      7 Cl1        -1.4894   -0.8923    0.0171 Cl        1 <0>        -0.0337
      8 N1          3.5946   -0.6953   -0.0702 N.4       1 <0>        -0.3848
      9 C7          4.6934    0.0006    0.3908 C.2       1 <0>         0.3381
     10 O1          5.7533   -0.7230    0.8307 O.3       1 <0>        -0.5661
     11 C8          4.7917    1.3007    0.4360 C.2       1 <0>        -0.2745
     12 C9          3.6656    2.1894   -0.0148 C.3       1 <0>        -0.0196
     13 N2          6.0397    1.9148    0.9428 N.pl3     1 <0>         0.0830
     14 O2          6.9534    1.2129    1.3091 O.2       1 <0>        -0.1529
     15 O3          6.1452    3.1182    0.9905 O.3       1 <0>        -0.2315
     16 H1         -0.9578    1.9087    0.0259 H         1 <0>         0.1563
     17 H2          1.1628    3.1599    0.0099 H         1 <0>         0.1603
     18 H3          1.2182   -1.7586   -0.0220 H         1 <0>         0.1572
     19 H4          3.4849   -1.5280    0.4888 H         1 <0>         0.4351
     20 H5          3.8705    2.5535   -1.0216 H         1 <0>         0.1041
     21 H6          3.5740    3.0350    0.6668 H         1 <0>         0.1116
     22 H7          3.7689   -0.9742   -1.0241 H         1 <0>         0.4310
@<TRIPOS>BOND
     1    1    6 ar
     2    1    2 ar
     3    1   16 1
     4    2    3 ar
     5    2   17 1
     6    3   12 1
     7    3    4 ar
     8    4    5 ar
     9    4    8 1
    10    5    6 ar
    11    5   18 1
    12    6    7 1
    13    8    9 1
    14    8   19 1
    15    8   22 1
    16    9   10 1
    17    9   11 2
    18   11   12 1
    19   11   13 1
    20   12   20 1
    21   12   21 1
    22   13   14 2
    23   13   15 1
@<TRIPOS>MOLECULE
ZINC03616630
   52    54     0     0     0
SMALL
USER_CHARGES

@<TRIPOS>ATOM
      1 C1         -0.0187    1.5258    0.0104 C.3       1 <0>        -0.1979
      2 C2          0.0021   -0.0041    0.0020 C.3       1 <0>        -0.0083
      3 H1         -1.0205   -0.3814    0.0098 H         1 <0>         0.1467
      4 C3          0.7421   -0.5109    1.2415 C.3       1 <0>         0.1398
      5 H2          0.8346   -1.5958    1.1912 H         1 <0>         0.1306
      6 C4         -0.0298   -0.1295    2.4784 C.ar      1 <0>        -0.1506
      7 C5          0.0648    1.1546    2.9823 C.ar      1 <0>        -0.0917
      8 C6         -0.6414    1.5067    4.1162 C.ar      1 <0>        -0.1399
      9 C7         -1.4464    0.5707    4.7491 C.ar      1 <0>         0.1318
     10 C8         -1.5399   -0.7170    4.2412 C.ar      1 <0>        -0.1399
     11 C9         -0.8358   -1.0625    3.1041 C.ar      1 <0>        -0.0825
     12 O1         -2.1418    0.9144    5.8650 O.3       1 <0>        -0.4954
     13 O2          2.0438    0.0763    1.2925 O.3       1 <0>        -0.5446
     14 N1          0.6897   -0.4778   -1.2066 N.4       1 <0>        -0.3762
     15 C10        -0.0162    0.0165   -2.3948 C.3       1 <0>        -0.0111
     16 C11         0.7414   -0.4060   -3.6554 C.3       1 <0>        -0.1418
     17 C12         0.8228   -1.9344   -3.7071 C.3       1 <0>        -0.0939
     18 C13         1.4942   -2.4436   -2.4284 C.3       1 <0>        -0.1436
     19 C14         0.7088   -1.9455   -1.2133 C.3       1 <0>        -0.0127
     20 C15         1.6472   -2.3620   -4.9230 C.3       1 <0>        -0.0744
     21 C16         1.6242   -3.8640   -5.0426 C.ar      1 <0>        -0.0948
     22 C17         2.5880   -4.6230   -4.4053 C.ar      1 <0>        -0.1212
     23 C18         2.5668   -6.0008   -4.5150 C.ar      1 <0>        -0.1159
     24 C19         1.5817   -6.6197   -5.2615 C.ar      1 <0>        -0.1163
     25 C20         0.6174   -5.8609   -5.8979 C.ar      1 <0>        -0.1139
     26 C21         0.6360   -4.4833   -5.7848 C.ar      1 <0>        -0.1163
     27 H3          1.0039    1.9031    0.0027 H         1 <0>         0.0834
     28 H4         -0.5459    1.8868   -0.8726 H         1 <0>         0.0917
     29 H5         -0.5289    1.8773    0.9072 H         1 <0>         0.1135
     30 H6          0.6915    1.8829    2.4892 H         1 <0>         0.1279
     31 H7         -0.5667    2.5096    4.5098 H         1 <0>         0.1384
     32 H8         -2.1659   -1.4474    4.7322 H         1 <0>         0.1387
     33 H9         -0.9117   -2.0635    2.7058 H         1 <0>         0.1316
     34 H10        -3.0262    1.2619    5.6858 H         1 <0>         0.4006
     35 H11         2.0381    1.0422    1.3386 H         1 <0>         0.3862
     36 H12        -1.0226   -0.4013   -2.4191 H         1 <0>         0.1283
     37 H13        -0.0762    1.1042   -2.3550 H         1 <0>         0.1325
     38 H14         0.2147   -0.0396   -4.5366 H         1 <0>         0.1136
     39 H15         1.7479    0.0115   -3.6323 H         1 <0>         0.0897
     40 H16        -0.1818   -2.3506   -3.7819 H         1 <0>         0.0907
     41 H17         1.5058   -3.5335   -2.4326 H         1 <0>         0.1159
     42 H18         2.5165   -2.0683   -2.3798 H         1 <0>         0.0897
     43 H19         1.1841   -2.3064   -0.3012 H         1 <0>         0.1315
     44 H20        -0.3131   -2.3215   -1.2627 H         1 <0>         0.1284
     45 H21         1.2224   -1.9192   -5.8239 H         1 <0>         0.0830
     46 H22         2.6760   -2.0229   -4.8019 H         1 <0>         0.0787
     47 H23         3.3577   -4.1394   -3.8221 H         1 <0>         0.1199
     48 H24         3.3202   -6.5937   -4.0177 H         1 <0>         0.1246
     49 H25         1.5656   -7.6962   -5.3477 H         1 <0>         0.1252
     50 H26        -0.1521   -6.3444   -6.4814 H         1 <0>         0.1251
     51 H27        -0.1196   -3.8906   -6.2790 H         1 <0>         0.1213
     52 H28         1.6368   -0.1301   -1.2116 H         1 <0>         0.4242
@<TRIPOS>BOND
     1    1    2 1
     2    1   27 1
     3    1   28 1
     4    1   29 1
     5    2    3 1
     6    2    4 1
     7    2   14 1
     8    4    5 1
     9    4    6 1
    10    4   13 1
    11    6   11 ar
    12    6    7 ar
    13    7    8 ar
    14    7   30 1
    15    8    9 ar
    16    8   31 1
    17    9   10 ar
    18    9   12 1
    19   10   11 ar
    20   10   32 1
    21   11   33 1
    22   12   34 1
    23   13   35 1
    24   14   19 1
    25   14   15 1
    26   14   52 1
    27   15   16 1
    28   15   36 1
    29   15   37 1
    30   16   17 1
    31   16   38 1
    32   16   39 1
    33   17   18 1
    34   17   20 1
    35   17   40 1
    36   18   19 1
    37   18   41 1
    38   18   42 1
    39   19   43 1
    40   19   44 1
    41   20   21 1
    42   20   45 1
    43   20   46 1
    44   21   26 ar
    45   21   22 ar
    46   22   23 ar
    47   22   47 1
    48   23   24 ar
    49   23   48 1
    50   24   25 ar
    51   24   49 1
    52   25   26 ar
    53   25   50 1
    54   26   51 1
@<TRIPOS>MOLECULE
ZINC13805755
   48    50     0     0     0
SMALL
USER_CHARGES
4-[1-(3-phenylpropyl)-4-piperidyl]phenol
@<TRIPOS>ATOM
      1 C1         -2.9441    9.8292   -3.1678 C.ar      1 <0>        -0.1131
      2 C2         -1.7312    9.3793   -3.6552 C.ar      1 <0>        -0.1153
      3 C3         -1.5018    8.0231   -3.7927 C.ar      1 <0>        -0.1156
      4 C4         -2.4854    7.1168   -3.4434 C.ar      1 <0>        -0.1009
      5 C5         -3.7004    7.5669   -2.9615 C.ar      1 <0>        -0.1159
      6 C6         -3.9279    8.9229   -2.8189 C.ar      1 <0>        -0.1154
      7 C7         -2.2355    5.6383   -3.5939 C.3       1 <0>        -0.0732
      8 C8         -1.6290    5.0894   -2.3009 C.3       1 <0>        -0.1468
      9 C9         -1.3753    3.5884   -2.4536 C.3       1 <0>        -0.0056
     10 C10        -0.7544    1.5936   -1.2306 C.3       1 <0>        -0.0003
     11 C11        -0.0127    1.0858    0.0080 C.3       1 <0>        -0.1416
     12 C12        -0.7310    1.5804    1.2666 C.3       1 <0>        -0.0519
     13 C13        -0.8011    3.1098    1.2370 C.3       1 <0>        -0.1411
     14 C14        -1.5200    3.5588   -0.0372 C.3       1 <0>        -0.0096
     15 C15         0.0293    1.1339    2.4887 C.ar      1 <0>        -0.1080
     16 C16         1.3411    1.5318    2.6690 C.ar      1 <0>        -0.0979
     17 C17         2.0384    1.1285    3.7913 C.ar      1 <0>        -0.1424
     18 C18         1.4252    0.3138    4.7319 C.ar      1 <0>         0.1194
     19 C19         0.1106   -0.0888    4.5458 C.ar      1 <0>        -0.1408
     20 C20        -0.5843    0.3223    3.4249 C.ar      1 <0>        -0.0909
     21 O1          2.1111   -0.0897    5.8336 O.3       1 <0>        -0.4980
     22 H1         -3.1232   10.8888   -3.0600 H         1 <0>         0.1266
     23 H2         -0.9628   10.0874   -3.9281 H         1 <0>         0.1261
     24 H3         -0.5543    7.6716   -4.1735 H         1 <0>         0.1213
     25 H4         -4.4704    6.8590   -2.6927 H         1 <0>         0.1212
     26 H5         -4.8756    9.2744   -2.4386 H         1 <0>         0.1261
     27 H6         -1.5447    5.4687   -4.4198 H         1 <0>         0.0825
     28 H7         -3.1776    5.1295   -3.7978 H         1 <0>         0.0825
     29 H8         -2.3198    5.2590   -1.4749 H         1 <0>         0.0910
     30 H9         -0.6869    5.5983   -2.0969 H         1 <0>         0.0878
     31 H10        -0.6845    3.4188   -3.2795 H         1 <0>         0.1294
     32 H11        -2.3174    3.0795   -2.6576 H         1 <0>         0.1314
     33 H12        -0.2368    1.2551   -2.1281 H         1 <0>         0.1300
     34 H13        -1.7723    1.2035   -1.2296 H         1 <0>         0.1309
     35 H14         0.0021   -0.0041    0.0020 H         1 <0>         0.1141
     36 H15         1.0097    1.4637    0.0003 H         1 <0>         0.0896
     37 H16        -1.7406    1.1705    1.2946 H         1 <0>         0.0961
     38 H17         0.2087    3.5200    1.2489 H         1 <0>         0.0893
     39 H18        -1.3492    3.4665    2.1090 H         1 <0>         0.1139
     40 H19        -1.5583    4.6477   -0.0680 H         1 <0>         0.1343
     41 H20        -2.5342    3.1596   -0.0419 H         1 <0>         0.1313
     42 H21         1.8197    2.1619    1.9339 H         1 <0>         0.1227
     43 H22         3.0618    1.4429    3.9337 H         1 <0>         0.1330
     44 H23        -0.3689   -0.7233    5.2765 H         1 <0>         0.1345
     45 H24        -1.6077    0.0092    3.2796 H         1 <0>         0.1288
     46 H25         2.5903   -0.9213    5.7159 H         1 <0>         0.3983
     47 N1         -0.7648    3.0719   -1.2111 N.4       1 <0>        -0.3942
     48 H26         0.2023    3.4110   -1.1489 H         1 <0>         0.4265
@<TRIPOS>BOND
     1    1    6 ar
     2    1    2 ar
     3    1   22 1
     4    2    3 ar
     5    2   23 1
     6    3    4 ar
     7    3   24 1
     8    4    5 ar
     9    4    7 1
    10    5    6 ar
    11    5   25 1
    12    6   26 1
    13    7    8 1
    14    7   27 1
    15    7   28 1
    16    8    9 1
    17    8   29 1
    18    8   30 1
    19    9   31 1
    20    9   32 1
    21    9   47 1
    22   10   11 1
    23   10   33 1
    24   10   34 1
    25   10   47 1
    26   11   12 1
    27   11   35 1
    28   11   36 1
    29   12   13 1
    30   12   15 1
    31   12   37 1
    32   13   14 1
    33   13   38 1
    34   13   39 1
    35   14   40 1
    36   14   41 1
    37   14   47 1
    38   15   20 ar
    39   15   16 ar
    40   16   17 ar
    41   16   42 1
    42   17   18 ar
    43   17   43 1
    44   18   19 ar
    45   18   21 1
    46   19   20 ar
    47   19   44 1
    48   20   45 1
    49   21   46 1
    50   47   48 1
@<TRIPOS>MOLECULE
ZINC18118278
   22    23     0     0     0
SMALL
USER_CHARGES

@<TRIPOS>ATOM
      1 C1          0.0496    1.1063    0.6344 C.ar      1 <0>        -0.0815
      2 C2          0.8293    1.9861   -0.1610 C.ar      1 <0>         0.4075
      3 N1          0.4596    3.2355   -0.3488 N.am      1 <0>        -0.4279
      4 C3          1.2172    4.0533   -1.1085 C.2       1 <0>         0.4679
      5 O1          0.8827    5.2069   -1.2858 O.2       1 <0>        -0.1860
      6 C4          2.4726    3.5290   -1.7307 C.2       1 <0>         0.4680
      7 O2          3.1640    4.2540   -2.4164 O.2       1 <0>        -0.1859
      8 N2          2.8311    2.2450   -1.5240 N.am      1 <0>        -0.4280
      9 C5          2.0762    1.4654   -0.7789 C.ar      1 <0>         0.4074
     10 C6          2.4324    0.1113   -0.5464 C.ar      1 <0>        -0.0816
     11 C7          1.6375   -0.6655    0.2237 C.ar      1 <0>         0.1372
     12 C8          0.4549   -0.1716    0.8097 C.ar      1 <0>         0.1371
     13 N3         -0.3677   -1.0785    1.6416 N.pl3     1 <0>        -0.0219
     14 O3         -1.5741   -1.0221    1.5858 O.2       1 <0>        -0.0173
     15 O4          0.1668   -1.8755    2.3769 O.3       1 <0>        -0.0340
     16 N4          2.0208   -2.0759    0.4581 N.pl3     1 <0>        -0.0219
     17 O5          3.1825   -2.3672    0.6234 O.2       1 <0>        -0.0173
     18 O6          1.1722   -2.9366    0.4842 O.3       1 <0>        -0.0339
     19 H1         -0.8595    1.4568    1.1003 H         1 <0>         0.2615
     20 H2          3.3326   -0.2963   -0.9822 H         1 <0>         0.2615
     21 H3         -0.3561    3.5673    0.0580 H         1 <0>         0.4946
     22 H4          3.6434    1.8969   -1.9239 H         1 <0>         0.4946
@<TRIPOS>BOND
     1    1   12 ar
     2    1    2 ar
     3    1   19 1
     4    2    9 ar
     5    2    3 2
     6    3    4 am
     7    3   21 1
     8    4    5 2
     9    4    6 1
    10    6    7 2
    11    6    8 am
    12    8    9 2
    13    8   22 1
    14    9   10 ar
    15   10   11 ar
    16   10   20 1
    17   11   12 ar
    18   11   16 1
    19   12   13 1
    20   13   14 2
    21   13   15 1
    22   16   17 2
    23   16   18 1
@<TRIPOS>MOLECULE
ZINC18118278
   21    22     0     0     0
SMALL
USER_CHARGES

@<TRIPOS>ATOM
      1 C1          0.0417    1.2522    0.5309 C.ar      1 <0>        -0.0473
      2 C2          0.8780    2.0146   -0.2789 C.ar      1 <0>         0.0748
      3 C3          2.0479    1.4409   -0.8068 C.ar      1 <0>         0.2260
      4 C4          2.3544    0.1053   -0.5080 C.ar      1 <0>        -0.0622
      5 C5          1.5202   -0.6244    0.2883 C.ar      1 <0>         0.0219
      6 C6          0.3650   -0.0580    0.8097 C.ar      1 <0>        -0.0602
      7 N1         -0.5259   -0.8673    1.6712 N.pl3     1 <0>         0.0426
      8 O1         -1.7257   -0.7484    1.5809 O.2       1 <0>        -0.1529
      9 O2         -0.0539   -1.6473    2.4653 O.3       1 <0>        -0.1493
     10 N2          1.8502   -2.0336    0.5987 N.pl3     1 <0>         0.0304
     11 O3          2.9984   -2.3560    0.7971 O.2       1 <0>        -0.1355
     12 O4          0.9715   -2.8622    0.6539 O.3       1 <0>        -0.1417
     13 N3          2.8727    2.1624   -1.5937 N.2       1 <0>        -0.5947
     14 C7          2.6068    3.4079   -1.8848 C.2       1 <0>         0.4324
     15 O5          3.4503    4.1124   -2.6771 O.3       1 <0>        -0.5802
     16 C8          1.3904    4.0475   -1.3530 C.2       1 <0>         0.4795
     17 O6          1.1361    5.2074   -1.6209 O.2       1 <0>        -0.4979
     18 N4          0.5617    3.3300   -0.5634 N.am      1 <0>        -0.6270
     19 H1         -0.2442    3.7314   -0.2024 H         1 <0>         0.4104
     20 H2         -0.8563    1.6877    0.9435 H         1 <0>         0.1592
     21 H3          3.2502   -0.3457   -0.9085 H         1 <0>         0.1717
@<TRIPOS>BOND
     1    1    6 ar
     2    1    2 ar
     3    1   20 1
     4    2   18 1
     5    2    3 ar
     6    3    4 ar
     7    3   13 1
     8    4    5 ar
     9    4   21 1
    10    5    6 ar
    11    5   10 1
    12    6    7 1
    13    7    8 2
    14    7    9 1
    15   10   11 2
    16   10   12 1
    17   13   14 2
    18   14   15 1
    19   14   16 1
    20   16   17 2
    21   16   18 am
    22   18   19 1
@<TRIPOS>MOLECULE
ZINC18118278
   22    23     0     0     0
SMALL
USER_CHARGES

@<TRIPOS>ATOM
      1 C1          0.0382    1.2610    0.5152 C.ar      1 <0>        -0.0552
      2 C2          0.8758    2.0183   -0.2964 C.ar      1 <0>         0.1719
      3 C3          2.0393    1.4471   -0.8145 C.ar      1 <0>         0.1720
      4 C4          2.3510    0.1254   -0.5146 C.ar      1 <0>        -0.0553
      5 C5          1.5125   -0.6159    0.2921 C.ar      1 <0>         0.0166
      6 C6          0.3581   -0.0491    0.8060 C.ar      1 <0>         0.0165
      7 N1         -0.5357   -0.8520    1.6707 N.pl3     1 <0>         0.0206
      8 O1         -1.7351   -0.7324    1.5766 O.2       1 <0>        -0.1120
      9 O2         -0.0664   -1.6272    2.4709 O.3       1 <0>        -0.1151
     10 N2          1.8476   -2.0224    0.6091 N.pl3     1 <0>         0.0206
     11 O3          2.9970   -2.3396    0.8090 O.2       1 <0>        -0.1120
     12 O4          0.9720   -2.8539    0.6680 O.3       1 <0>        -0.1151
     13 N3          2.8903    2.1887   -1.6291 N.am      1 <0>        -0.6303
     14 C7          2.5958    3.4709   -1.9250 C.2       1 <0>         0.5137
     15 C8          1.3528    4.0814   -1.3711 C.2       1 <0>         0.5137
     16 N4          0.5461    3.3396   -0.5854 N.am      1 <0>        -0.6303
     17 O5          1.0696    5.2348   -1.6257 O.2       1 <0>        -0.4318
     18 O6          3.3354    4.1221   -2.6351 O.2       1 <0>        -0.4318
     19 H1         -0.8610    1.7001    0.9216 H         1 <0>         0.1865
     20 H2          3.2498   -0.3211   -0.9137 H         1 <0>         0.1866
     21 H3          3.6965    1.7826   -1.9842 H         1 <0>         0.4351
     22 H4         -0.2650    3.7271   -0.2210 H         1 <0>         0.4351
@<TRIPOS>BOND
     1    1    6 ar
     2    1    2 ar
     3    1   19 1
     4    2   16 1
     5    2    3 ar
     6    3    4 ar
     7    3   13 1
     8    4    5 ar
     9    4   20 1
    10    5    6 ar
    11    5   10 1
    12    6    7 1
    13    7    8 2
    14    7    9 1
    15   10   11 2
    16   10   12 1
    17   13   14 am
    18   13   21 1
    19   14   15 1
    20   14   18 2
    21   15   16 am
    22   15   17 2
    23   16   22 1
@<TRIPOS>MOLECULE
ZINC06092461
   45    47     0     0     0
SMALL
USER_CHARGES
3-[1-(1-piperidyl)cyclohexyl]phenol
@<TRIPOS>ATOM
      1 C1          1.1504    1.7752    0.0622 C.ar      1 <0>        -0.0815
      2 C2          1.1385    3.1566   -0.0008 C.ar      1 <0>        -0.1768
      3 C3         -0.0559    3.8452    0.1007 C.ar      1 <0>        -0.0929
      4 C4         -1.2411    3.1545    0.2658 C.ar      1 <0>        -0.1219
      5 C5         -1.2325    1.7686    0.3231 C.ar      1 <0>         0.1336
      6 C6         -0.0318    1.0800    0.2268 C.ar      1 <0>        -0.1283
      7 O1         -2.3976    1.0866    0.4794 O.3       1 <0>        -0.4925
      8 C7         -0.0652    5.3506    0.0316 C.3       1 <0>         0.1193
      9 C8         -0.9064    5.9088    1.1812 C.3       1 <0>        -0.1365
     10 C9         -0.9158    7.4371    1.1111 C.3       1 <0>        -0.1337
     11 C10        -1.5166    7.8827   -0.2236 C.3       1 <0>        -0.1324
     12 C11        -0.6754    7.3246   -1.3733 C.3       1 <0>        -0.1364
     13 C12        -0.6660    5.7962   -1.3031 C.3       1 <0>        -0.1360
     14 C13         2.0692    5.5858   -1.0864 C.3       1 <0>        -0.0362
     15 C14         3.4451    6.2493   -0.9928 C.3       1 <0>        -0.1451
     16 C15         4.1924    5.6941    0.2228 C.3       1 <0>        -0.1400
     17 C16         3.3585    5.9437    1.4825 C.3       1 <0>        -0.1446
     18 C17         1.9851    5.2891    1.3172 C.3       1 <0>        -0.0405
     19 H1          2.0847    1.2394   -0.0176 H         1 <0>         0.1406
     20 H2          2.0639    3.6983   -0.1291 H         1 <0>         0.1454
     21 H3         -2.1739    3.6930    0.3454 H         1 <0>         0.1399
     22 H4         -0.0220    0.0012    0.2760 H         1 <0>         0.1422
     23 H5         -2.6410    0.9301    1.4021 H         1 <0>         0.4029
     24 H6         -1.9270    5.5350    1.0994 H         1 <0>         0.1121
     25 H7         -0.4784    5.5913    2.1321 H         1 <0>         0.0902
     26 H8          0.1048    7.8109    1.1929 H         1 <0>         0.0559
     27 H9         -1.5151    7.8348    1.9301 H         1 <0>         0.0959
     28 H10        -1.5234    8.9715   -0.2736 H         1 <0>         0.0824
     29 H11        -2.5373    7.5089   -0.3054 H         1 <0>         0.0811
     30 H12         0.3452    7.6983   -1.2915 H         1 <0>         0.0576
     31 H13        -1.1035    7.6420   -2.3241 H         1 <0>         0.0948
     32 H14        -0.0667    5.3986   -2.1222 H         1 <0>         0.0924
     33 H15        -1.6866    5.4224   -1.3849 H         1 <0>         0.1114
     34 H16         2.1924    4.5098   -1.2092 H         1 <0>         0.1453
     35 H17         1.5288    5.9894   -1.9427 H         1 <0>         0.1343
     36 H18         3.3228    7.3269   -0.8838 H         1 <0>         0.0866
     37 H19         4.0139    6.0367   -1.8980 H         1 <0>         0.1133
     38 H20         5.1557    6.1952    0.3184 H         1 <0>         0.0961
     39 H21         4.3501    4.6229    0.0967 H         1 <0>         0.0813
     40 H22         3.2349    7.0165    1.6304 H         1 <0>         0.0852
     41 H23         3.8655    5.5127    2.3459 H         1 <0>         0.1125
     42 H24         1.3838    5.4771    2.2066 H         1 <0>         0.1276
     43 H25         2.1089    4.2145    1.1831 H         1 <0>         0.1549
     44 N1          1.3079    5.8840    0.1455 N.4       1 <0>        -0.3834
     45 H26         1.2608    6.9022    0.2696 H         1 <0>         0.4240
@<TRIPOS>BOND
     1    1    6 ar
     2    1    2 ar
     3    1   19 1
     4    2    3 ar
     5    2   20 1
     6    3    4 ar
     7    3    8 1
     8    4    5 ar
     9    4   21 1
    10    5    6 ar
    11    5    7 1
    12    6   22 1
    13    7   23 1
    14    8   13 1
    15    8    9 1
    16    8   44 1
    17    9   10 1
    18    9   24 1
    19    9   25 1
    20   10   11 1
    21   10   26 1
    22   10   27 1
    23   11   12 1
    24   11   28 1
    25   11   29 1
    26   12   13 1
    27   12   30 1
    28   12   31 1
    29   13   32 1
    30   13   33 1
    31   14   15 1
    32   14   34 1
    33   14   35 1
    34   14   44 1
    35   15   16 1
    36   15   36 1
    37   15   37 1
    38   16   17 1
    39   16   38 1
    40   16   39 1
    41   17   18 1
    42   17   40 1
    43   17   41 1
    44   18   42 1
    45   18   43 1
    46   18   44 1
    47   44   45 1
@<TRIPOS>MOLECULE
ZINC00132781
   21    22     0     0     0
SMALL
USER_CHARGES
5-bromo-7-(trifluoromethyl)-1,4-dihydroquinoxaline-2,3-dione
@<TRIPOS>ATOM
      1 C1         -2.4847    3.6997    0.0434 C.ar      1 <0>        -0.0517
      2 C2         -3.6598    2.9760    0.0502 C.ar      1 <0>        -0.1680
      3 C3         -3.6267    1.5921    0.0429 C.ar      1 <0>        -0.0241
      4 C4         -2.4175    0.9255    0.0287 C.ar      1 <0>        -0.1080
      5 C5         -1.2267    1.6446    0.0168 C.ar      1 <0>         0.1819
      6 C6         -1.2608    3.0401    0.0290 C.ar      1 <0>         0.1270
      7 N1         -0.0801    3.7774    0.0222 N.am      1 <0>        -0.6349
      8 H1         -0.1155    4.7768    0.0279 H         1 <0>         0.4358
      9 C7          1.1114    3.1460    0.0079 C.2       1 <0>         0.5118
     10 O1          2.1442    3.7851    0.0010 O.2       1 <0>        -0.4525
     11 C8          1.1480    1.6550   -0.0000 C.2       1 <0>         0.5119
     12 O2          2.2110    1.0675   -0.0133 O.2       1 <0>        -0.4472
     13 N2         -0.0111    0.9658    0.0074 N.am      1 <0>        -0.6395
     14 H2          0.0025   -0.0341    0.0061 H         1 <0>         0.4328
     15 Br1        -2.3802   -0.9651    0.0188 Br        1 <0>        -0.0019
     16 C9         -4.9841    3.6951    0.0663 C.3       1 <0>         0.5157
     17 F1         -5.4060    3.9247   -1.2477 F         1 <0>        -0.1696
     18 F2         -5.9329    2.9102    0.7303 F         1 <0>        -0.1702
     19 F3         -4.8428    4.9179    0.7311 F         1 <0>        -0.1716
     20 H3         -2.5158    4.7793    0.0495 H         1 <0>         0.1615
     21 H4         -4.5500    1.0317    0.0480 H         1 <0>         0.1606
@<TRIPOS>BOND
     1    1    6 ar
     2    1    2 ar
     3    1   20 1
     4    2    3 ar
     5    2   16 1
     6    3    4 ar
     7    3   21 1
     8    4    5 ar
     9    4   15 1
    10    5   13 1
    11    5    6 ar
    12    6    7 1
    13    7    8 1
    14    7    9 am
    15    9   10 2
    16    9   11 1
    17   11   12 2
    18   11   13 am
    19   13   14 1
    20   16   17 1
    21   16   18 1
    22   16   19 1
@<TRIPOS>MOLECULE
ZINC00005936
   50    52     0     0     0
SMALL
USER_CHARGES
1-[2-hydroxy-2-(4-hydroxyphenyl)-1-methyl-ethyl]-4-phenyl-piperidin-4-ol
@<TRIPOS>ATOM
      1 C1         -1.7773    1.2090   -4.4603 C.3       1 <0>        -0.1747
      2 C2         -2.1841   -0.1251   -3.8314 C.3       1 <0>         0.0014
      3 H1         -3.2637   -0.1421   -3.6818 H         1 <0>         0.1463
      4 C3         -1.7799   -1.2714   -4.7607 C.3       1 <0>         0.1378
      5 H2         -2.2595   -1.1392   -5.7305 H         1 <0>         0.1525
      6 C4         -2.2153   -2.5829   -4.1595 C.ar      1 <0>        -0.1674
      7 C5         -1.4557   -3.1727   -3.1661 C.ar      1 <0>        -0.1394
      8 C6         -1.8557   -4.3721   -2.6094 C.ar      1 <0>        -0.1258
      9 C7         -3.0144   -4.9906   -3.0562 C.ar      1 <0>         0.1334
     10 C8         -3.7718   -4.3995   -4.0570 C.ar      1 <0>        -0.1261
     11 C9         -3.3707   -3.1971   -4.6062 C.ar      1 <0>        -0.0728
     12 O1         -3.4066   -6.1737   -2.5146 O.3       1 <0>        -0.4946
     13 O2         -0.3606   -1.2716   -4.9273 O.3       1 <0>        -0.5323
     14 C10        -2.2828    0.3446   -1.4586 C.3       1 <0>         0.0001
     15 C11        -1.6261    0.0367   -0.1110 C.3       1 <0>        -0.1339
     16 C12        -0.1921    0.5735   -0.1131 C.3       1 <0>         0.1764
     17 C13         0.5809   -0.0587   -1.2738 C.3       1 <0>        -0.1731
     18 C14        -0.1411    0.2518   -2.5885 C.3       1 <0>        -0.0205
     19 C15         0.4791    0.2222    1.1896 C.ar      1 <0>        -0.1288
     20 C16         0.1070   -0.9205    1.8727 C.ar      1 <0>        -0.1150
     21 C17         0.7261   -1.2454    3.0652 C.ar      1 <0>        -0.1122
     22 C18         1.7099   -0.4220    3.5799 C.ar      1 <0>        -0.1056
     23 C19         2.0784    0.7234    2.8995 C.ar      1 <0>        -0.1096
     24 C20         1.4630    1.0455    1.7043 C.ar      1 <0>        -0.1065
     25 O3         -0.2140    1.9936   -0.2712 O.3       1 <0>        -0.5476
     26 H3         -2.0653    2.0256   -3.7982 H         1 <0>         0.0834
     27 H4         -0.6977    1.2260   -4.6098 H         1 <0>         0.0904
     28 H5         -2.2790    1.3258   -5.4208 H         1 <0>         0.1059
     29 H6         -0.5511   -2.6934   -2.8222 H         1 <0>         0.1186
     30 H7         -1.2646   -4.8301   -1.8301 H         1 <0>         0.1427
     31 H8         -4.6740   -4.8793   -4.4068 H         1 <0>         0.1447
     32 H9         -3.9600   -2.7365   -5.3853 H         1 <0>         0.1416
     33 H10        -3.0524   -6.9507   -2.9685 H         1 <0>         0.4056
     34 H11         0.1262   -1.5854   -4.1529 H         1 <0>         0.3706
     35 H12        -3.2993   -0.0490   -1.4655 H         1 <0>         0.1292
     36 H13        -2.3102    1.4235   -1.6112 H         1 <0>         0.1415
     37 H14        -1.6108   -1.0414    0.0486 H         1 <0>         0.1012
     38 H15        -2.1925    0.5149    0.6882 H         1 <0>         0.1243
     39 H16         1.5902    0.3518   -1.3054 H         1 <0>         0.1200
     40 H17         0.6309   -1.1383   -1.1326 H         1 <0>         0.0958
     41 H18         0.3980   -0.2091   -3.4162 H         1 <0>         0.1380
     42 H19        -0.1785    1.3311   -2.7359 H         1 <0>         0.1456
     43 H20        -0.6648   -1.5615    1.4728 H         1 <0>         0.1223
     44 H21         0.4379   -2.1401    3.5970 H         1 <0>         0.1291
     45 H22         2.1905   -0.6735    4.5139 H         1 <0>         0.1299
     46 H23         2.8469    1.3669    3.3018 H         1 <0>         0.1302
     47 H24         1.7507    1.9407    1.1729 H         1 <0>         0.1227
     48 H25         0.6627    2.4016   -0.2833 H         1 <0>         0.3903
     49 N1         -1.5067   -0.3121   -2.5317 N.4       1 <0>        -0.3997
     50 H26        -1.4439   -1.3169   -2.3301 H         1 <0>         0.4142
@<TRIPOS>BOND
     1    1    2 1
     2    1   26 1
     3    1   27 1
     4    1   28 1
     5    2    3 1
     6    2    4 1
     7    2   49 1
     8    4    5 1
     9    4    6 1
    10    4   13 1
    11    6   11 ar
    12    6    7 ar
    13    7    8 ar
    14    7   29 1
    15    8    9 ar
    16    8   30 1
    17    9   10 ar
    18    9   12 1
    19   10   11 ar
    20   10   31 1
    21   11   32 1
    22   12   33 1
    23   13   34 1
    24   14   15 1
    25   14   35 1
    26   14   36 1
    27   14   49 1
    28   15   16 1
    29   15   37 1
    30   15   38 1
    31   16   17 1
    32   16   19 1
    33   16   25 1
    34   17   18 1
    35   17   39 1
    36   17   40 1
    37   18   41 1
    38   18   42 1
    39   18   49 1
    40   19   24 ar
    41   19   20 ar
    42   20   21 ar
    43   20   43 1
    44   21   22 ar
    45   21   44 1
    46   22   23 ar
    47   22   45 1
    48   23   24 ar
    49   23   46 1
    50   24   47 1
    51   25   48 1
    52   49   50 1
@<TRIPOS>MOLECULE
ZINC02557962
   50    52     0     0     0
SMALL
USER_CHARGES

@<TRIPOS>ATOM
      1 C1         -0.0167    1.3781    0.0096 C.ar      1 <0>        -0.1174
      2 C2          1.1709    2.0855    0.0021 C.ar      1 <0>        -0.1161
      3 C3          2.3773    1.4107   -0.0130 C.ar      1 <0>        -0.1176
      4 C4          2.3960    0.0285   -0.0201 C.ar      1 <0>        -0.0952
      5 C5          1.2084   -0.6789   -0.0117 C.ar      1 <0>        -0.1175
      6 C6          0.0021   -0.0041    0.0020 C.ar      1 <0>        -0.1159
      7 C7          3.7112   -0.7071   -0.0376 C.3       1 <0>        -0.0781
      8 C8          4.1714   -0.9633    1.3989 C.3       1 <0>        -0.1117
      9 C9          5.5066   -1.7102    1.3812 C.3       1 <0>        -0.1496
     10 C10         5.9667   -1.9663    2.8177 C.3       1 <0>        -0.0103
     11 N1          7.2487   -2.6834    2.8007 N.4       1 <0>        -0.3835
     12 C11         8.2788   -1.8269    2.2009 C.3       1 <0>        -0.0110
     13 C12         9.5972   -2.5980    2.1066 C.3       1 <0>        -0.1394
     14 C13        10.0368   -3.0204    3.5114 C.3       1 <0>        -0.0537
     15 C14         8.9234   -3.8512    4.1558 C.3       1 <0>        -0.1399
     16 C15         7.6300   -3.0337    4.1741 C.3       1 <0>        -0.0059
     17 C16        11.2933   -3.8472    3.4189 C.ar      1 <0>        -0.0975
     18 C17        11.2936   -5.0257    2.6964 C.ar      1 <0>        -0.1167
     19 C18        12.4462   -5.7841    2.6115 C.ar      1 <0>        -0.1146
     20 C19        13.5986   -5.3638    3.2489 C.ar      1 <0>        -0.1098
     21 C20        13.5986   -4.1849    3.9707 C.ar      1 <0>        -0.1125
     22 C21        12.4471   -3.4243    4.0519 C.ar      1 <0>        -0.1100
     23 H1         -0.9591    1.9053    0.0259 H         1 <0>         0.1251
     24 H2          1.1563    3.1654    0.0076 H         1 <0>         0.1246
     25 H3          3.3051    1.9634   -0.0196 H         1 <0>         0.1201
     26 H4          1.2231   -1.7588   -0.0176 H         1 <0>         0.1202
     27 H5         -0.9258   -0.5567    0.0082 H         1 <0>         0.1247
     28 H6          3.5884   -1.6586   -0.5549 H         1 <0>         0.0755
     29 H7          4.4573   -0.1052   -0.5563 H         1 <0>         0.0752
     30 H8          4.2941   -0.0118    1.9163 H         1 <0>         0.0754
     31 H9          3.4252   -1.5652    1.9176 H         1 <0>         0.0757
     32 H10         5.3838   -2.6617    0.8639 H         1 <0>         0.0876
     33 H11         6.2527   -1.1082    0.8625 H         1 <0>         0.0878
     34 H12         6.0895   -1.0148    3.3350 H         1 <0>         0.1296
     35 H13         5.2206   -2.5682    3.3364 H         1 <0>         0.1311
     36 H14         7.9631   -1.5245    1.2024 H         1 <0>         0.1331
     37 H15         8.4200   -0.9411    2.8202 H         1 <0>         0.1294
     38 H16         9.4572   -3.4839    1.4872 H         1 <0>         0.0897
     39 H17        10.3612   -1.9597    1.6627 H         1 <0>         0.1137
     40 H18        10.2263   -2.1336    4.1161 H         1 <0>         0.0954
     41 H19         8.7694   -4.7632    3.5789 H         1 <0>         0.0898
     42 H20         9.2057   -4.1088    5.1766 H         1 <0>         0.1141
     43 H21         7.7850   -2.1222    4.7514 H         1 <0>         0.1292
     44 H22         6.8352   -3.6222    4.6325 H         1 <0>         0.1316
     45 H23        10.3933   -5.3540    2.1984 H         1 <0>         0.1175
     46 H24        12.4463   -6.7052    2.0476 H         1 <0>         0.1265
     47 H25        14.4989   -5.9567    3.1832 H         1 <0>         0.1278
     48 H26        14.4988   -3.8567    4.4689 H         1 <0>         0.1280
     49 H27        12.4481   -2.5013    4.6128 H         1 <0>         0.1236
     50 H28         7.1544   -3.5260    2.2536 H         1 <0>         0.4219
@<TRIPOS>BOND
     1    1    6 ar
     2    1    2 ar
     3    1   23 1
     4    2    3 ar
     5    2   24 1
     6    3    4 ar
     7    3   25 1
     8    4    5 ar
     9    4    7 1
    10    5    6 ar
    11    5   26 1
    12    6   27 1
    13    7    8 1
    14    7   28 1
    15    7   29 1
    16    8    9 1
    17    8   30 1
    18    8   31 1
    19    9   10 1
    20    9   32 1
    21    9   33 1
    22   10   11 1
    23   10   34 1
    24   10   35 1
    25   11   16 1
    26   11   12 1
    27   11   50 1
    28   12   13 1
    29   12   36 1
    30   12   37 1
    31   13   14 1
    32   13   38 1
    33   13   39 1
    34   14   15 1
    35   14   17 1
    36   14   40 1
    37   15   16 1
    38   15   41 1
    39   15   42 1
    40   16   43 1
    41   16   44 1
    42   17   22 ar
    43   17   18 ar
    44   18   19 ar
    45   18   45 1
    46   19   20 ar
    47   19   46 1
    48   20   21 ar
    49   20   47 1
    50   21   22 ar
    51   21   48 1
    52   22   49 1
@<TRIPOS>MOLECULE
ZINC00336490
   18    19     0     0     0
SMALL
USER_CHARGES
6-chloroquinoxaline-2,3-diol
@<TRIPOS>ATOM
      1 C1          5.5378    3.5379   -1.1415 C.ar      1 <0>        -0.0893
      2 C2          4.9429    3.2511    0.0495 C.ar      1 <0>        -0.0637
      3 C3          3.6685    2.6617    0.0683 C.ar      1 <0>         0.0927
      4 C4          3.0189    2.3733   -1.1565 C.ar      1 <0>         0.1023
      5 C5          3.6617    2.6823   -2.3657 C.ar      1 <0>        -0.0728
      6 C6          4.8991    3.2538   -2.3471 C.ar      1 <0>        -0.0122
      7 Cl1         5.6897    3.6335   -3.8452 Cl        1 <0>        -0.0450
      8 N1          1.8020    1.8110   -1.1476 N.ar      1 <0>        -0.4291
      9 C7          1.2200    1.5311   -0.0014 C.ar      1 <0>         0.2952
     10 C8          1.8654    1.8236    1.2195 C.ar      1 <0>         0.2934
     11 N2          3.0619    2.3703    1.2276 N.ar      1 <0>        -0.4284
     12 O1          1.2499    1.5337    2.3925 O.3       1 <0>        -0.4610
     13 O2         -0.0110    0.9628    0.0073 O.3       1 <0>        -0.4608
     14 H1          6.5180    3.9912   -1.1519 H         1 <0>         0.1520
     15 H2          5.4497    3.4760    0.9763 H         1 <0>         0.1552
     16 H3          3.1778    2.4678   -3.3071 H         1 <0>         0.1553
     17 H4          1.4419    0.6477    2.7290 H         1 <0>         0.4079
     18 H5          0.0021   -0.0041    0.0020 H         1 <0>         0.4082
@<TRIPOS>BOND
     1    1    6 ar
     2    1    2 ar
     3    1   14 1
     4    2    3 ar
     5    2   15 1
     6    3   11 ar
     7    3    4 ar
     8    4    5 ar
     9    4    8 ar
    10    5    6 ar
    11    5   16 1
    12    6    7 1
    13    8    9 ar
    14    9   10 ar
    15    9   13 1
    16   10   11 ar
    17   10   12 1
    18   12   17 1
    19   13   18 1
@<TRIPOS>MOLECULE
ZINC15020542
   24    25     0     0     0
SMALL
USER_CHARGES

@<TRIPOS>ATOM
      1 C1         -0.0184    1.5028    0.0103 C.3       1 <0>        -0.1185
      2 C2          0.0021   -0.0041    0.0020 C.ar      1 <0>        -0.0696
      3 C3          0.0057   -0.6850   -1.1984 C.ar      1 <0>        -0.1160
      4 C4          0.0245   -2.0750   -1.2099 C.ar      1 <0>         0.1154
      5 C5          0.0393   -2.7770   -0.0030 C.ar      1 <0>         0.1154
      6 C6          0.0350   -2.0801    1.1999 C.ar      1 <0>        -0.1161
      7 C7          0.0229   -0.7001    1.1986 C.ar      1 <0>        -0.0696
      8 C8          0.0255    0.0520    2.5046 C.3       1 <0>        -0.1185
      9 N1          0.0577   -4.1689    0.0065 N.am      1 <0>        -0.6332
     10 C9          0.0620   -4.8530   -1.1556 C.2       1 <0>         0.5080
     11 C10         0.0467   -4.1031   -2.4449 C.2       1 <0>         0.5080
     12 N2          0.0280   -2.7549   -2.4246 N.am      1 <0>        -0.6332
     13 O1          0.0506   -4.7007   -3.5023 O.2       1 <0>        -0.4681
     14 O2          0.0784   -6.0675   -1.1526 O.2       1 <0>        -0.4681
     15 H1          1.0042    1.8801    0.0026 H         1 <0>         0.0758
     16 H2         -0.5455    1.8639   -0.8728 H         1 <0>         0.0701
     17 H3         -0.5286    1.8543    0.9071 H         1 <0>         0.0740
     18 H4         -0.0065   -0.1377   -2.1294 H         1 <0>         0.1395
     19 H5          0.0461   -2.6189    2.1359 H         1 <0>         0.1395
     20 H6         -1.0014    0.2196    2.8293 H         1 <0>         0.0758
     21 H7          0.5545   -0.5311    3.2585 H         1 <0>         0.0701
     22 H8          0.5254    1.0113    2.3704 H         1 <0>         0.0740
     23 H9          0.0170   -2.2581   -3.2577 H         1 <0>         0.4227
     24 H10         0.0679   -4.6474    0.8502 H         1 <0>         0.4227
@<TRIPOS>BOND
     1    1    2 1
     2    1   15 1
     3    1   16 1
     4    1   17 1
     5    2    7 ar
     6    2    3 ar
     7    3    4 ar
     8    3   18 1
     9    4   12 1
    10    4    5 ar
    11    5    6 ar
    12    5    9 1
    13    6    7 ar
    14    6   19 1
    15    7    8 1
    16    8   20 1
    17    8   21 1
    18    8   22 1
    19    9   10 am
    20    9   24 1
    21   10   11 1
    22   10   14 2
    23   11   12 am
    24   11   13 2
    25   12   23 1
@<TRIPOS>MOLECULE
ZINC00034354
   23    24     0     0     0
SMALL
USER_CHARGES
3-(carboxymethyl)-1H-indole-2-carboxylic acid
@<TRIPOS>ATOM
      1 C1         -0.0126    1.0758    0.0080 C.ar      1 <0>        -0.1717
      2 C2          1.1850    1.7804    0.0003 C.ar      1 <0>        -0.1223
      3 C3          1.1894    3.1570    0.0072 C.ar      1 <0>        -0.1342
      4 C4         -0.0164    3.8530    0.0220 C.ar      1 <0>         0.0829
      5 C5         -1.2292    3.1364    0.0297 C.ar      1 <0>        -0.0921
      6 C6         -1.2068    1.7354    0.0172 C.ar      1 <0>        -0.0583
      7 C7         -2.2735    4.0918    0.0438 C.2       1 <0>        -0.0899
      8 C8         -1.7048    5.3266    0.0445 C.2       1 <0>         0.0511
      9 N1         -0.3296    5.1915    0.0312 N.pl3     1 <0>        -0.5666
     10 H1          0.3096    5.9211    0.0288 H         1 <0>         0.4140
     11 C9         -2.4354    6.6009    0.0577 C.2       1 <0>         0.5160
     12 O1         -3.6511    6.6045    0.0692 O.co2     1 <0>        -0.5944
     13 C10        -3.7507    3.7936    0.0567 C.3       1 <0>        -0.0930
     14 C11        -4.2294    3.6881    1.4818 C.2       1 <0>         0.4814
     15 O2         -3.4510    3.8395    2.3934 O.co2     1 <0>        -0.6375
     16 H2          0.0021   -0.0041    0.0020 H         1 <0>         0.1077
     17 H3          2.1216    1.2428   -0.0108 H         1 <0>         0.1094
     18 H4          2.1255    3.6956    0.0015 H         1 <0>         0.1074
     19 H5         -2.1325    1.1791    0.0186 H         1 <0>         0.1138
     20 H6         -4.2878    4.5963   -0.4485 H         1 <0>         0.0947
     21 H7         -3.9357    2.8516   -0.4594 H         1 <0>         0.0547
     22 O3         -1.7577    7.7667    0.0569 O.co2     1 <0>        -0.7775
     23 O4         -5.5206    3.4260    1.7383 O.co2     1 <0>        -0.7955
@<TRIPOS>BOND
     1    1    6 ar
     2    1    2 ar
     3    1   16 1
     4    2    3 ar
     5    2   17 1
     6    3    4 ar
     7    3   18 1
     8    4    9 1
     9    4    5 ar
    10    5    6 ar
    11    5    7 1
    12    6   19 1
    13    7    8 2
    14    7   13 1
    15    8    9 1
    16    8   11 1
    17    9   10 1
    18   11   12 2
    19   11   22 1
    20   13   14 1
    21   13   20 1
    22   13   21 1
    23   14   15 2
    24   14   23 1
@<TRIPOS>MOLECULE
ZINC13472572
   22    24     0     0     0
SMALL
USER_CHARGES
5-hydroxypyrazolo[1,5-c]quinazoline-2-carboxylic acid
@<TRIPOS>ATOM
      1 C1          4.7771    7.7251   -0.0036 C.ar      1 <0>        -0.2041
      2 C2          4.0346    8.8978    0.0105 C.ar      1 <0>        -0.0864
      3 C3          2.6581    8.8598    0.0244 C.ar      1 <0>        -0.1615
      4 C4          1.9985    7.6291    0.0245 C.ar      1 <0>         0.2111
      5 C5          2.7580    6.4378    0.0101 C.ar      1 <0>        -0.1501
      6 C6          4.1485    6.4983   -0.0039 C.ar      1 <0>        -0.0501
      7 C7          2.0318    5.1612    0.0100 C.2       1 <0>         0.0972
      8 C8          2.4100    3.8435    0.0053 C.2       1 <0>        -0.2321
      9 C9          1.2381    3.0668    0.0067 C.2       1 <0>         0.0466
     10 N1          0.1966    3.8800    0.0215 N.2       1 <0>        -0.2262
     11 N2          0.6571    5.2019    0.0240 N.pl3     1 <0>        -0.3504
     12 C10         0.0121    6.4127    0.0374 C.2       1 <0>         0.6281
     13 N3          0.6440    7.5522    0.0376 N.2       1 <0>        -0.6251
     14 O1         -1.3390    6.4241    0.0514 O.3       1 <0>        -0.6563
     15 C11         1.1808    1.5907   -0.0007 C.2       1 <0>         0.5367
     16 O2          2.2084    0.9430   -0.0140 O.co2     1 <0>        -0.6309
     17 O3         -0.0110    0.9628    0.0073 O.co2     1 <0>        -0.7421
     18 H1          5.8559    7.7743   -0.0148 H         1 <0>         0.1080
     19 H2          4.5422    9.8510    0.0101 H         1 <0>         0.1085
     20 H3          2.0907    9.7787    0.0357 H         1 <0>         0.1180
     21 H4          4.7315    5.5893   -0.0153 H         1 <0>         0.1155
     22 H5          3.4234    3.4702   -0.0013 H         1 <0>         0.1455
@<TRIPOS>BOND
     1    1    6 ar
     2    1    2 ar
     3    1   18 1
     4    2    3 ar
     5    2   19 1
     6    3    4 ar
     7    3   20 1
     8    4   13 1
     9    4    5 ar
    10    5    6 ar
    11    5    7 1
    12    6   21 1
    13    7   11 1
    14    7    8 2
    15    8    9 1
    16    8   22 1
    17    9   10 2
    18    9   15 1
    19   10   11 1
    20   11   12 1
    21   12   13 2
    22   12   14 1
    23   15   16 2
    24   15   17 1
@<TRIPOS>MOLECULE
ZINC25757829
   32    35     0     0     0
SMALL
USER_CHARGES

@<TRIPOS>ATOM
      1 C1         -0.0187    1.5258    0.0104 C.3       1 <0>        -0.1252
      2 C2          0.0021   -0.0041    0.0020 C.3       1 <0>         0.1700
      3 C3          0.7167   -0.5895   -1.2034 C.ar      1 <0>        -0.1069
      4 C4          0.8979    0.1802   -2.3343 C.ar      1 <0>        -0.1048
      5 C5          1.5405   -0.3573   -3.4350 C.ar      1 <0>        -0.1212
      6 C6          1.9955   -1.6623   -3.3949 C.ar      1 <0>        -0.1154
      7 C7          1.8143   -2.4276   -2.2597 C.ar      1 <0>        -0.1172
      8 C8          1.1755   -1.8892   -1.1532 C.ar      1 <0>        -0.0768
      9 C9          1.0113   -2.7345    0.0833 C.3       1 <0>        -0.1060
     10 C10         0.1766   -2.0033    1.1369 C.3       1 <0>         0.1001
     11 H1          0.2513   -2.4929    2.1079 H         1 <0>         0.1081
     12 N1          0.6774   -0.5970    1.1980 N.3       1 <0>        -0.6342
     13 C11        -1.2530   -1.8806    0.6988 C.ar      1 <0>        -0.0952
     14 C12        -1.3755   -0.6242    0.0348 C.ar      1 <0>        -0.0809
     15 C13        -2.5771   -0.1782   -0.4723 C.ar      1 <0>        -0.0931
     16 C14        -3.6801   -1.0063   -0.2906 C.ar      1 <0>        -0.1176
     17 C15        -3.5744   -2.2154    0.3646 C.ar      1 <0>        -0.1209
     18 C16        -2.3295   -2.7288    0.8705 C.ar      1 <0>        -0.0946
     19 H2          1.0039    1.9031    0.0027 H         1 <0>         0.0650
     20 H3         -0.5459    1.8868   -0.8726 H         1 <0>         0.0670
     21 H4         -0.5289    1.8773    0.9072 H         1 <0>         0.0732
     22 H5          0.5390    1.1985   -2.3601 H         1 <0>         0.1272
     23 H6          1.6860    0.2402   -4.3228 H         1 <0>         0.1244
     24 H7          2.4941   -2.0848   -4.2547 H         1 <0>         0.1231
     25 H8          2.1706   -3.4468   -2.2339 H         1 <0>         0.1229
     26 H9          0.5143   -3.6672   -0.1835 H         1 <0>         0.0854
     27 H10         1.9944   -2.9588    0.4973 H         1 <0>         0.0869
     28 H11         1.6807   -0.5800    1.0922 H         1 <0>         0.3441
     29 H12        -2.6584    0.7686   -0.9856 H         1 <0>         0.1300
     30 H13        -4.6417   -0.6950   -0.6711 H         1 <0>         0.1239
     31 H14        -4.4549   -2.8304    0.4782 H         1 <0>         0.1194
     32 H15        -2.2281   -3.6740    1.3830 H         1 <0>         0.1394
@<TRIPOS>BOND
     1    1    2 1
     2    1   19 1
     3    1   20 1
     4    1   21 1
     5    2   12 1
     6    2   14 1
     7    2    3 1
     8    3    8 ar
     9    3    4 ar
    10    4    5 ar
    11    4   22 1
    12    5    6 ar
    13    5   23 1
    14    6    7 ar
    15    6   24 1
    16    7    8 ar
    17    7   25 1
    18    8    9 1
    19    9   10 1
    20    9   26 1
    21    9   27 1
    22   10   11 1
    23   10   12 1
    24   10   13 1
    25   12   28 1
    26   13   18 ar
    27   13   14 ar
    28   14   15 ar
    29   15   16 ar
    30   15   29 1
    31   16   17 ar
    32   16   30 1
    33   17   18 ar
    34   17   31 1
    35   18   32 1
@<TRIPOS>MOLECULE
ZINC13829431
   43    45     0     0     0
SMALL
USER_CHARGES

@<TRIPOS>ATOM
      1 C1          0.1416    1.6069    0.1038 C.3       1 <0>        -0.1611
      2 C2          0.1684    0.0784    0.0434 C.3       1 <0>         0.1179
      3 H1         -0.8507   -0.3001   -0.0359 H         1 <0>         0.0467
      4 C3          0.9630   -0.3629   -1.1587 C.ar      1 <0>        -0.0630
      5 C4          2.3443   -0.3805   -1.1055 C.ar      1 <0>        -0.0963
      6 C5          3.0735   -0.7856   -2.2076 C.ar      1 <0>        -0.0906
      7 C6          2.4209   -1.1735   -3.3639 C.ar      1 <0>        -0.0957
      8 C7          1.0388   -1.1557   -3.4167 C.ar      1 <0>        -0.0914
      9 C8          0.3103   -0.7555   -2.3123 C.ar      1 <0>        -0.1117
     10 Br1         3.4179   -1.7272   -4.8723 Br        1 <0>        -0.0608
     11 N1          0.7931   -0.4491    1.2638 N.3       1 <0>        -0.6424
     12 C9         -0.1906   -0.5721    2.3478 C.3       1 <0>        -0.4605
     13 H2         -1.1954   -0.4562    1.9415 H         1 <0>         0.0812
     14 C10        -0.0622   -1.9289    2.9911 C.ar      1 <0>        -0.0782
     15 C11         1.1792   -2.5190    3.1145 C.ar      1 <0>        -0.1020
     16 C12         1.3033   -3.7655    3.7041 C.ar      1 <0>        -0.1037
     17 C13         0.1865   -4.4271    4.1728 C.ar      1 <0>        -0.1257
     18 C14        -1.0693   -3.8425    4.0545 C.ar      1 <0>         0.1113
     19 C15        -1.1938   -2.5829    3.4650 C.ar      1 <0>         0.1386
     20 N2         -2.4418   -1.9788    3.3420 N.am      1 <0>        -0.6186
     21 C16        -3.5446   -2.6058    3.7993 C.2       1 <0>         0.5081
     22 C17        -3.4109   -3.9485    4.4350 C.2       1 <0>         0.5122
     23 N3         -2.1911   -4.5160    4.5296 N.am      1 <0>        -0.6301
     24 O1         -4.3919   -4.5295    4.8535 O.2       1 <0>        -0.4801
     25 O2         -4.6357   -2.0824    3.6950 O.2       1 <0>        -0.4744
     26 P1          0.1138    0.7227    3.5945 P.3       1 <0>         2.2764
     27 O3         -0.1406    2.1115    2.9673 O.2       1 <0>        -1.0799
     28 O4         -0.8382    0.5170    4.7938 O.3       1 <0>        -1.0911
     29 O5          1.6400    0.6333    4.0994 O.3       1 <0>        -0.8935
     30 H3          1.1607    1.9854    0.1831 H         1 <0>         0.0612
     31 H4         -0.3219    1.9983   -0.8017 H         1 <0>         0.0427
     32 H5         -0.4331    1.9261    0.9733 H         1 <0>         0.1200
     33 H6          2.8537   -0.0773   -0.2028 H         1 <0>         0.1439
     34 H7          4.1526   -0.7990   -2.1660 H         1 <0>         0.1322
     35 H8          0.5288   -1.4585   -4.3193 H         1 <0>         0.1297
     36 H9         -0.7689   -0.7455   -2.3521 H         1 <0>         0.1281
     37 H10         1.2467   -1.3325    1.0851 H         1 <0>         0.3344
     38 H11         2.0571   -2.0067    2.7494 H         1 <0>         0.1427
     39 H12         2.2777   -4.2219    3.7973 H         1 <0>         0.1353
     40 H13         0.2881   -5.3996    4.6314 H         1 <0>         0.1365
     41 H14         1.8733    1.2943    4.7656 H         1 <0>         0.4093
     42 H15        -2.0938   -5.3892    4.9406 H         1 <0>         0.4192
     43 H16        -2.5184   -1.1053    2.9271 H         1 <0>         0.4234
@<TRIPOS>BOND
     1    1    2 1
     2    1   30 1
     3    1   31 1
     4    1   32 1
     5    2    3 1
     6    2    4 1
     7    2   11 1
     8    4    9 ar
     9    4    5 ar
    10    5    6 ar
    11    5   33 1
    12    6    7 ar
    13    6   34 1
    14    7    8 ar
    15    7   10 1
    16    8    9 ar
    17    8   35 1
    18    9   36 1
    19   11   12 1
    20   11   37 1
    21   12   13 1
    22   12   14 1
    23   12   26 1
    24   14   19 ar
    25   14   15 ar
    26   15   16 ar
    27   15   38 1
    28   16   17 ar
    29   16   39 1
    30   17   18 ar
    31   17   40 1
    32   18   23 1
    33   18   19 ar
    34   19   20 1
    35   20   21 am
    36   20   43 1
    37   21   22 1
    38   21   25 2
    39   22   23 am
    40   22   24 2
    41   23   42 1
    42   26   27 2
    43   26   28 1
    44   26   29 1
    45   29   41 1
@<TRIPOS>MOLECULE
ZINC13829431
   43    45     0     0     0
SMALL
USER_CHARGES

@<TRIPOS>ATOM
      1 C1         -0.5197   -2.5153   -0.9883 C.3       1 <0>        -0.1705
      2 C2         -1.3740   -1.9647    0.1553 C.3       1 <0>         0.0549
      3 H1         -2.4018   -2.3087    0.0393 H         1 <0>         0.1440
      4 C3         -0.8264   -2.4532    1.4716 C.ar      1 <0>        -0.1101
      5 C4          0.2671   -1.8271    2.0401 C.ar      1 <0>        -0.1108
      6 C5          0.7695   -2.2744    3.2476 C.ar      1 <0>        -0.0758
      7 C6          0.1778   -3.3488    3.8871 C.ar      1 <0>        -0.0787
      8 C7         -0.9164   -3.9750    3.3179 C.ar      1 <0>        -0.0842
      9 C8         -1.4213   -3.5236    2.1130 C.ar      1 <0>        -0.0856
     10 Br1         0.8650   -3.9617    5.5388 Br        1 <0>        -0.0385
     11 N1         -1.3430   -0.4963    0.1267 N.4       1 <0>        -0.4666
     12 C9         -2.0000   -0.0164   -1.0964 C.3       1 <0>        -0.5004
     13 H2         -1.5524   -0.5017   -1.9637 H         1 <0>         0.1322
     14 C10        -3.4695   -0.3455   -1.0394 C.ar      1 <0>        -0.0672
     15 C11        -4.0492   -0.7079    0.1595 C.ar      1 <0>        -0.1239
     16 C12        -5.3986   -1.0117    0.2180 C.ar      1 <0>        -0.0975
     17 C13        -6.1741   -0.9544   -0.9222 C.ar      1 <0>        -0.1216
     18 C14        -5.6016   -0.5902   -2.1356 C.ar      1 <0>         0.1208
     19 C15        -4.2418   -0.2783   -2.1934 C.ar      1 <0>         0.1541
     20 N2         -3.6512    0.0935   -3.3979 N.am      1 <0>        -0.6016
     21 C16        -4.3928    0.1617   -4.5220 C.2       1 <0>         0.5095
     22 C17        -5.8467   -0.1652   -4.4589 C.2       1 <0>         0.5113
     23 N3         -6.3902   -0.5347   -3.2813 N.am      1 <0>        -0.6323
     24 O1         -6.5320   -0.1094   -5.4602 O.2       1 <0>        -0.4790
     25 O2         -3.8822    0.4864   -5.5751 O.2       1 <0>        -0.4652
     26 P1         -1.7864    1.7889   -1.2326 P.3       1 <0>         2.0731
     27 O3         -2.5804    2.4970   -0.0826 O.2       1 <0>        -1.1067
     28 O4         -0.2654    2.1453   -1.1132 O.3       1 <0>        -1.1174
     29 O5         -2.3296    2.2759   -2.6190 O.3       1 <0>        -1.0939
     30 H3         -0.4643   -3.6011   -0.9102 H         1 <0>         0.0970
     31 H4         -0.9703   -2.2422   -1.9425 H         1 <0>         0.0832
     32 H5          0.4841   -2.0949   -0.9269 H         1 <0>         0.0833
     33 H6          0.7292   -0.9884    1.5405 H         1 <0>         0.1389
     34 H7          1.6240   -1.7854    3.6915 H         1 <0>         0.1447
     35 H8         -1.3787   -4.8139    3.8169 H         1 <0>         0.1413
     36 H9         -2.2781   -4.0099    1.6705 H         1 <0>         0.1410
     37 H10        -1.8283   -0.1339    0.9336 H         1 <0>         0.4257
     38 H11        -3.4478   -0.7549    1.0553 H         1 <0>         0.1174
     39 H12        -5.8460   -1.2949    1.1593 H         1 <0>         0.1366
     40 H13        -7.2263   -1.1930   -0.8719 H         1 <0>         0.1393
     41 H14        -7.3346   -0.7500   -3.2301 H         1 <0>         0.4186
     42 H15        -2.7048    0.3042   -3.4285 H         1 <0>         0.4303
     43 H16        -0.3850   -0.1799    0.1402 H         1 <0>         0.4307
@<TRIPOS>BOND
     1    1    2 1
     2    1   30 1
     3    1   31 1
     4    1   32 1
     5    2    3 1
     6    2    4 1
     7    2   11 1
     8    4    9 ar
     9    4    5 ar
    10    5    6 ar
    11    5   33 1
    12    6    7 ar
    13    6   34 1
    14    7    8 ar
    15    7   10 1
    16    8    9 ar
    17    8   35 1
    18    9   36 1
    19   11   12 1
    20   11   37 1
    21   11   43 1
    22   12   13 1
    23   12   14 1
    24   12   26 1
    25   14   19 ar
    26   14   15 ar
    27   15   16 ar
    28   15   38 1
    29   16   17 ar
    30   16   39 1
    31   17   18 ar
    32   17   40 1
    33   18   23 1
    34   18   19 ar
    35   19   20 1
    36   20   21 am
    37   20   42 1
    38   21   22 1
    39   21   25 2
    40   22   23 am
    41   22   24 2
    42   23   41 1
    43   26   27 2
    44   26   28 1
    45   26   29 1
@<TRIPOS>MOLECULE
ZINC13829431
   42    44     0     0     0
SMALL
USER_CHARGES

@<TRIPOS>ATOM
      1 C1          0.1560    1.6195    0.1183 C.3       1 <0>        -0.1622
      2 C2          0.1714    0.0912    0.0475 C.3       1 <0>         0.1176
      3 H1         -0.8506   -0.2791   -0.0334 H         1 <0>         0.0349
      4 C3          0.9617   -0.3479   -1.1582 C.ar      1 <0>        -0.0494
      5 C4          2.3428   -0.3760   -1.1063 C.ar      1 <0>        -0.0923
      6 C5          3.0681   -0.7791   -2.2118 C.ar      1 <0>        -0.0916
      7 C6          2.4117   -1.1543   -3.3701 C.ar      1 <0>        -0.1013
      8 C7          1.0297   -1.1259   -3.4216 C.ar      1 <0>        -0.0955
      9 C8          0.3051   -0.7278   -2.3139 C.ar      1 <0>        -0.1164
     10 Br1         3.4034   -1.7052   -4.8830 Br        1 <0>        -0.0740
     11 N1          0.7931   -0.4491    1.2638 N.3       1 <0>        -0.6206
     12 C9         -0.1906   -0.5721    2.3478 C.3       1 <0>        -0.4519
     13 H2         -1.1954   -0.4562    1.9415 H         1 <0>         0.0469
     14 C10        -0.0622   -1.9289    2.9911 C.ar      1 <0>        -0.0265
     15 C11         1.1792   -2.5190    3.1145 C.ar      1 <0>        -0.1010
     16 C12         1.3034   -3.7653    3.7045 C.ar      1 <0>        -0.1040
     17 C13         0.1866   -4.4267    4.1736 C.ar      1 <0>        -0.1476
     18 C14        -1.0692   -3.8421    4.0553 C.ar      1 <0>         0.1015
     19 C15        -1.1938   -2.5829    3.4650 C.ar      1 <0>         0.1245
     20 N2         -2.4419   -1.9789    3.3417 N.am      1 <0>        -0.6069
     21 H3         -2.5184   -1.1056    2.9265 H         1 <0>         0.4249
     22 C16        -3.5447   -2.6064    3.7983 C.2       1 <0>         0.5038
     23 O1         -4.6360   -2.0838    3.6922 O.2       1 <0>        -0.4948
     24 C17        -3.4109   -3.9488    4.4344 C.2       1 <0>         0.5128
     25 O2         -4.3922   -4.5305    4.8516 O.2       1 <0>        -0.5002
     26 N3         -2.1910   -4.5154    4.5309 N.am      1 <0>        -0.6247
     27 H4         -2.0936   -5.3885    4.9422 H         1 <0>         0.4136
     28 P1          0.1138    0.7227    3.5945 P.3       1 <0>         2.2006
     29 O3          1.6486    0.8048    3.8981 O.2       1 <0>        -1.1550
     30 O4         -0.3846    2.1030    3.0462 O.3       1 <0>        -1.1598
     31 O5         -0.6608    0.3730    4.9105 O.3       1 <0>        -1.1694
     32 H5          1.1779    1.9898    0.1992 H         1 <0>         0.0593
     33 H6         -0.3054    2.0204   -0.7842 H         1 <0>         0.0309
     34 H7         -0.4156    1.9371    0.9904 H         1 <0>         0.1275
     35 H8          2.8552   -0.0827   -0.2020 H         1 <0>         0.1505
     36 H9          4.1471   -0.8008   -2.1712 H         1 <0>         0.1300
     37 H10         0.5168   -1.4188   -4.3257 H         1 <0>         0.1251
     38 H11        -0.7741   -0.7095   -2.3527 H         1 <0>         0.1259
     39 H12         2.0570   -2.0069    2.7491 H         1 <0>         0.1440
     40 H13         2.2777   -4.2217    3.7977 H         1 <0>         0.1277
     41 H14         0.2883   -5.3990    4.6326 H         1 <0>         0.1271
     42 H15         1.2399   -1.3347    1.0788 H         1 <0>         0.3162
@<TRIPOS>BOND
     1    1    2 1
     2    1   32 1
     3    1   33 1
     4    1   34 1
     5    2    3 1
     6    2    4 1
     7    2   11 1
     8    4    9 ar
     9    4    5 ar
    10    5    6 ar
    11    5   35 1
    12    6    7 ar
    13    6   36 1
    14    7    8 ar
    15    7   10 1
    16    8    9 ar
    17    8   37 1
    18    9   38 1
    19   11   12 1
    20   11   42 1
    21   12   13 1
    22   12   14 1
    23   12   28 1
    24   14   19 ar
    25   14   15 ar
    26   15   16 ar
    27   15   39 1
    28   16   17 ar
    29   16   40 1
    30   17   18 ar
    31   17   41 1
    32   18   26 1
    33   18   19 ar
    34   19   20 1
    35   20   21 1
    36   20   22 am
    37   22   23 2
    38   22   24 1
    39   24   25 2
    40   24   26 am
    41   26   27 1
    42   28   29 2
    43   28   30 1
    44   28   31 1
@<TRIPOS>MOLECULE
ZINC13829431
   43    45     0     0     0
SMALL
USER_CHARGES

@<TRIPOS>ATOM
      1 C1          0.1314    1.5978    0.0935 C.3       1 <0>        -0.1483
      2 C2          0.1666    0.0691    0.0405 C.3       1 <0>         0.1126
      3 H1         -0.8504   -0.3153   -0.0376 H         1 <0>         0.0473
      4 C3          0.9645   -0.3737   -1.1589 C.ar      1 <0>        -0.0658
      5 C4          2.3458   -0.3835   -1.1046 C.ar      1 <0>        -0.0944
      6 C5          3.0779   -0.7900   -2.2042 C.ar      1 <0>        -0.0899
      7 C6          2.4283   -1.1871   -3.3591 C.ar      1 <0>        -0.0939
      8 C7          1.0461   -1.1771   -3.4129 C.ar      1 <0>        -0.0920
      9 C8          0.3147   -0.7754   -2.3110 C.ar      1 <0>        -0.1110
     10 Br1         3.4295   -1.7427   -4.8640 Br        1 <0>        -0.0591
     11 N1          0.7933   -0.4490    1.2639 N.3       1 <0>        -0.6405
     12 C9         -0.1906   -0.5721    2.3478 C.3       1 <0>        -0.4593
     13 H2         -1.1953   -0.4563    1.9414 H         1 <0>         0.0646
     14 C10        -0.0622   -1.9289    2.9911 C.ar      1 <0>        -0.0650
     15 C11         1.1792   -2.5190    3.1145 C.ar      1 <0>        -0.0787
     16 C12         1.3034   -3.7653    3.7045 C.ar      1 <0>        -0.1042
     17 C13         0.1866   -4.4267    4.1736 C.ar      1 <0>        -0.1247
     18 C14        -1.0692   -3.8421    4.0553 C.ar      1 <0>         0.1064
     19 C15        -1.1938   -2.5829    3.4650 C.ar      1 <0>         0.1313
     20 N2         -2.4419   -1.9789    3.3417 N.am      1 <0>        -0.6180
     21 H3         -2.5184   -1.1056    2.9265 H         1 <0>         0.4208
     22 C16        -3.5447   -2.6064    3.7983 C.2       1 <0>         0.5081
     23 O1         -4.6360   -2.0838    3.6922 O.2       1 <0>        -0.4794
     24 C17        -3.4109   -3.9488    4.4344 C.2       1 <0>         0.5115
     25 O2         -4.3922   -4.5305    4.8516 O.2       1 <0>        -0.4833
     26 N3         -2.1910   -4.5154    4.5309 N.am      1 <0>        -0.6285
     27 H4         -2.0936   -5.3885    4.9422 H         1 <0>         0.4190
     28 P1          0.1136    0.7227    3.5945 P.3       1 <0>         2.2675
     29 O3          1.4873    0.4840    4.2603 O.2       1 <0>        -1.0780
     30 O4          0.1063    2.1663    2.8818 O.3       1 <0>        -0.8947
     31 O5         -0.9951    0.6734    4.6694 O.3       1 <0>        -1.0906
     32 H5          1.1484    1.9821    0.1716 H         1 <0>         0.0686
     33 H6         -0.3335    1.9822   -0.8143 H         1 <0>         0.0492
     34 H7         -0.4456    1.9180    0.9610 H         1 <0>         0.0892
     35 H8          2.8529   -0.0732   -0.2030 H         1 <0>         0.1461
     36 H9          4.1571   -0.7973   -2.1618 H         1 <0>         0.1336
     37 H10         0.5385   -1.4870   -4.3144 H         1 <0>         0.1301
     38 H11        -0.7645   -0.7715   -2.3516 H         1 <0>         0.1275
     39 H12         2.0570   -2.0069    2.7491 H         1 <0>         0.1454
     40 H13         2.2777   -4.2217    3.7977 H         1 <0>         0.1356
     41 H14         0.2883   -5.3990    4.6326 H         1 <0>         0.1357
     42 H15         1.2517   -1.3309    1.0898 H         1 <0>         0.3397
     43 H16         0.2623    2.9044    3.4867 H         1 <0>         0.4095
@<TRIPOS>BOND
     1    1    2 1
     2    1   32 1
     3    1   33 1
     4    1   34 1
     5    2    3 1
     6    2    4 1
     7    2   11 1
     8    4    9 ar
     9    4    5 ar
    10    5    6 ar
    11    5   35 1
    12    6    7 ar
    13    6   36 1
    14    7    8 ar
    15    7   10 1
    16    8    9 ar
    17    8   37 1
    18    9   38 1
    19   11   12 1
    20   11   42 1
    21   12   13 1
    22   12   14 1
    23   12   28 1
    24   14   19 ar
    25   14   15 ar
    26   15   16 ar
    27   15   39 1
    28   16   17 ar
    29   16   40 1
    30   17   18 ar
    31   17   41 1
    32   18   26 1
    33   18   19 ar
    34   19   20 1
    35   20   21 1
    36   20   22 am
    37   22   23 2
    38   22   24 1
    39   24   25 2
    40   24   26 am
    41   26   27 1
    42   28   29 2
    43   28   30 1
    44   28   31 1
    45   30   43 1
@<TRIPOS>MOLECULE
ZINC13829433
   43    45     0     0     0
SMALL
USER_CHARGES

@<TRIPOS>ATOM
      1 C1          2.4622    0.9393    1.6978 C.3       1 <0>        -0.1319
      2 C2          1.2487    0.6754    0.8041 C.3       1 <0>         0.1190
      3 H1          0.4670    1.4009    1.0293 H         1 <0>         0.0579
      4 C3          1.6523    0.8045   -0.6421 C.ar      1 <0>        -0.0677
      5 C4          2.2965   -0.2418   -1.2757 C.ar      1 <0>        -0.0948
      6 C5          2.6664   -0.1240   -2.6022 C.ar      1 <0>        -0.0912
      7 C6          2.3921    1.0409   -3.2958 C.ar      1 <0>        -0.0919
      8 C7          1.7475    2.0876   -2.6613 C.ar      1 <0>        -0.0914
      9 C8          1.3732    1.9669   -1.3362 C.ar      1 <0>        -0.1028
     10 Br1         2.8985    1.2029   -5.1105 Br        1 <0>        -0.0593
     11 N1          0.7437   -0.6815    1.0523 N.3       1 <0>        -0.6565
     12 C9         -0.2039   -0.6935    2.1748 C.3       1 <0>        -0.4684
     13 H2         -0.1032    0.2299    2.7451 H         1 <0>         0.0867
     14 C10         0.0907   -1.8706    3.0685 C.ar      1 <0>        -0.0366
     15 C11         0.8585   -2.9172    2.5997 C.ar      1 <0>        -0.0675
     16 C12         1.1322   -4.0015    3.4159 C.ar      1 <0>        -0.1146
     17 C13         0.6393   -4.0437    4.7043 C.ar      1 <0>        -0.1291
     18 C14        -0.1349   -2.9951    5.1878 C.ar      1 <0>         0.1033
     19 C15        -0.4062   -1.8989    4.3666 C.ar      1 <0>         0.1281
     20 N2         -1.1751   -0.8368    4.8340 N.am      1 <0>        -0.6050
     21 C16        -1.6607   -0.8559    6.0919 C.2       1 <0>         0.5088
     22 C17        -1.3655   -2.0238    6.9714 C.2       1 <0>         0.5102
     23 N3         -0.6286   -3.0448    6.4885 N.am      1 <0>        -0.6293
     24 O1         -1.7934   -2.0598    8.1076 O.2       1 <0>        -0.4886
     25 O2         -2.3315    0.0688    6.5046 O.2       1 <0>        -0.4816
     26 P1         -1.9048   -0.8287    1.5328 P.3       1 <0>         2.2031
     27 O3         -2.0817   -2.1911    0.8260 O.2       1 <0>        -1.0616
     28 O4         -2.9072   -0.7219    2.7036 O.3       1 <0>        -1.0662
     29 O5         -2.1780    0.3603    0.4822 O.3       1 <0>        -0.8997
     30 H3          3.2085    0.1614    1.5362 H         1 <0>         0.0655
     31 H4          2.8907    1.9107    1.4512 H         1 <0>         0.0557
     32 H5          2.1520    0.9338    2.7427 H         1 <0>         0.0548
     33 H6          2.5110   -1.1512   -0.7340 H         1 <0>         0.1413
     34 H7          3.1700   -0.9413   -3.0971 H         1 <0>         0.1328
     35 H8          1.5331    2.9973   -3.2024 H         1 <0>         0.1317
     36 H9          0.8663    2.7825   -0.8420 H         1 <0>         0.1313
     37 H10         0.3238   -1.0689    0.2206 H         1 <0>         0.3476
     38 H11         1.2470   -2.8906    1.5924 H         1 <0>         0.1398
     39 H12         1.7333   -4.8175    3.0429 H         1 <0>         0.1296
     40 H13         0.8548   -4.8919    5.3372 H         1 <0>         0.1315
     41 H14        -3.0659    0.3507    0.0994 H         1 <0>         0.4169
     42 H15        -0.4318   -3.8092    7.0523 H         1 <0>         0.4167
     43 H16        -1.3615   -0.0819    4.2543 H         1 <0>         0.4234
@<TRIPOS>BOND
     1    1    2 1
     2    1   30 1
     3    1   31 1
     4    1   32 1
     5    2    3 1
     6    2    4 1
     7    2   11 1
     8    4    9 ar
     9    4    5 ar
    10    5    6 ar
    11    5   33 1
    12    6    7 ar
    13    6   34 1
    14    7    8 ar
    15    7   10 1
    16    8    9 ar
    17    8   35 1
    18    9   36 1
    19   11   12 1
    20   11   37 1
    21   12   13 1
    22   12   14 1
    23   12   26 1
    24   14   19 ar
    25   14   15 ar
    26   15   16 ar
    27   15   38 1
    28   16   17 ar
    29   16   39 1
    30   17   18 ar
    31   17   40 1
    32   18   23 1
    33   18   19 ar
    34   19   20 1
    35   20   21 am
    36   20   43 1
    37   21   22 1
    38   21   25 2
    39   22   23 am
    40   22   24 2
    41   23   42 1
    42   26   27 2
    43   26   28 1
    44   26   29 1
    45   29   41 1
@<TRIPOS>MOLECULE
ZINC00968311
   44    46     0     0     0
SMALL
USER_CHARGES
1-(1-phenylcyclohexyl)piperidine
@<TRIPOS>ATOM
      1 C1         -6.8504    0.6158   -1.3000 C.ar      1 <0>        -0.0983
      2 C2         -5.9618   -0.3997   -1.0001 C.ar      1 <0>        -0.0987
      3 C3         -4.6847   -0.0953   -0.5672 C.ar      1 <0>        -0.0916
      4 C4         -4.2963    1.2246   -0.4342 C.ar      1 <0>        -0.1122
      5 C5         -5.1866    2.2402   -0.7291 C.ar      1 <0>        -0.1651
      6 C6         -6.4619    1.9358   -1.1669 C.ar      1 <0>        -0.1010
      7 C7         -2.9042    1.5565    0.0381 C.3       1 <0>         0.1193
      8 C8         -1.8862    0.7425   -0.7631 C.3       1 <0>        -0.1361
      9 C9         -0.4729    1.0794   -0.2835 C.3       1 <0>        -0.1341
     10 C10        -0.3434    0.7376    1.2022 C.3       1 <0>        -0.1320
     11 C11        -1.3614    1.5516    2.0034 C.3       1 <0>        -0.1367
     12 C12        -2.7747    1.2147    1.5238 C.3       1 <0>        -0.1352
     13 C13        -3.4122    3.7968    0.8019 C.3       1 <0>        -0.0359
     14 C14        -3.0128    5.2678    0.6650 C.3       1 <0>        -0.1453
     15 C15        -3.2968    5.7378   -0.7643 C.3       1 <0>        -0.1398
     16 C16        -2.5281    4.8504   -1.7473 C.3       1 <0>        -0.1447
     17 C17        -2.9415    3.3915   -1.5404 C.3       1 <0>        -0.0394
     18 H1         -7.8482    0.3780   -1.6378 H         1 <0>         0.1358
     19 H2         -6.2654   -1.4310   -1.1036 H         1 <0>         0.1373
     20 H3         -3.9906   -0.8888   -0.3326 H         1 <0>         0.1331
     21 H4         -4.8845    3.2714   -0.6209 H         1 <0>         0.1421
     22 H5         -7.1563    2.7292   -1.4009 H         1 <0>         0.1351
     23 H6         -1.9784    0.9860   -1.8215 H         1 <0>         0.0898
     24 H7         -2.0755   -0.3209   -0.6171 H         1 <0>         0.1120
     25 H8         -0.2835    2.1429   -0.4295 H         1 <0>         0.0554
     26 H9          0.2524    0.4995   -0.8543 H         1 <0>         0.0955
     27 H10        -0.5328   -0.3259    1.3482 H         1 <0>         0.0810
     28 H11         0.6635    0.9776    1.5438 H         1 <0>         0.0819
     29 H12        -1.2692    1.3081    3.0618 H         1 <0>         0.0942
     30 H13        -1.1721    2.6150    1.8574 H         1 <0>         0.0570
     31 H14        -3.5000    1.7946    2.0946 H         1 <0>         0.0914
     32 H15        -2.9641    0.1512    1.6698 H         1 <0>         0.1109
     33 H16        -4.4780    3.6896    0.6004 H         1 <0>         0.1454
     34 H17        -3.1980    3.4551    1.8145 H         1 <0>         0.1336
     35 H18        -1.9499    5.3779    0.8798 H         1 <0>         0.0864
     36 H19        -3.5902    5.8691    1.3673 H         1 <0>         0.1130
     37 H20        -2.9737    6.7726   -0.8785 H         1 <0>         0.0959
     38 H21        -4.3653    5.6654   -0.9671 H         1 <0>         0.0810
     39 H22        -1.4576    4.9538   -1.5704 H         1 <0>         0.0851
     40 H23        -2.7597    5.1530   -2.7685 H         1 <0>         0.1123
     41 H24        -2.3855    2.7553   -2.2290 H         1 <0>         0.1276
     42 H25        -4.0096    3.2863   -1.7309 H         1 <0>         0.1542
     43 N1         -2.6198    2.9937   -0.1533 N.4       1 <0>        -0.3833
     44 H26        -1.6215    3.1617    0.0183 H         1 <0>         0.4232
@<TRIPOS>BOND
     1    1    6 ar
     2    1    2 ar
     3    1   18 1
     4    2    3 ar
     5    2   19 1
     6    3    4 ar
     7    3   20 1
     8    4    5 ar
     9    4    7 1
    10    5    6 ar
    11    5   21 1
    12    6   22 1
    13    7   12 1
    14    7    8 1
    15    7   43 1
    16    8    9 1
    17    8   23 1
    18    8   24 1
    19    9   10 1
    20    9   25 1
    21    9   26 1
    22   10   11 1
    23   10   27 1
    24   10   28 1
    25   11   12 1
    26   11   29 1
    27   11   30 1
    28   12   31 1
    29   12   32 1
    30   13   14 1
    31   13   33 1
    32   13   34 1
    33   13   43 1
    34   14   15 1
    35   14   35 1
    36   14   36 1
    37   15   16 1
    38   15   37 1
    39   15   38 1
    40   16   17 1
    41   16   39 1
    42   16   40 1
    43   17   41 1
    44   17   42 1
    45   17   43 1
    46   43   44 1
@<TRIPOS>MOLECULE
ZINC12428297
   18    19     0     0     0
SMALL
USER_CHARGES

@<TRIPOS>ATOM
      1 C1         -0.0168    1.3862    0.0097 C.ar      1 <0>        -0.1045
      2 C2          1.1691    2.0939    0.0021 C.ar      1 <0>        -0.0139
      3 C3          2.3815    1.4234   -0.0130 C.ar      1 <0>        -0.0845
      4 C4          2.4122    0.0428   -0.0206 C.ar      1 <0>        -0.0327
      5 C5          1.2234   -0.6800   -0.0132 C.ar      1 <0>         0.1328
      6 C6          0.0021   -0.0041    0.0020 C.ar      1 <0>         0.1454
      7 N1         -1.1978   -0.7098    0.0096 N.am      1 <0>        -0.6311
      8 C7         -1.1895   -2.0582    0.0023 C.2       1 <0>         0.5117
      9 C8          0.1151   -2.7807   -0.0140 C.2       1 <0>         0.5110
     10 O1          0.1439   -3.9950   -0.0211 O.2       1 <0>        -0.4536
     11 N2          1.2625   -2.0722   -0.0210 N.am      1 <0>        -0.6332
     12 H1          2.1161   -2.5327   -0.0315 H         1 <0>         0.4259
     13 O2         -2.2340   -2.6781    0.0093 O.2       1 <0>        -0.4544
     14 Cl1         3.9346   -0.7911   -0.0401 Cl        1 <0>        -0.0290
     15 Cl2         1.1406    3.8296    0.0111 Cl        1 <0>        -0.0357
     16 H2         -0.9595    1.9129    0.0260 H         1 <0>         0.1584
     17 H3          3.3056    1.9824   -0.0192 H         1 <0>         0.1589
     18 H4         -2.0412   -0.2308    0.0205 H         1 <0>         0.4285
@<TRIPOS>BOND
     1    1    6 ar
     2    1    2 ar
     3    1   16 1
     4    2    3 ar
     5    2   15 1
     6    3    4 ar
     7    3   17 1
     8    4    5 ar
     9    4   14 1
    10    5   11 1
    11    5    6 ar
    12    6    7 1
    13    7    8 am
    14    7   18 1
    15    8    9 1
    16    8   13 2
    17    9   10 2
    18    9   11 am
    19   11   12 1
@<TRIPOS>MOLECULE
ZINC12428297
   17    18     0     0     0
SMALL
USER_CHARGES

@<TRIPOS>ATOM
      1 C1         -0.0168    1.3862    0.0097 C.ar      1 <0>        -0.1094
      2 C2          1.1683    2.0925    0.0021 C.ar      1 <0>        -0.0647
      3 C3          2.3861    1.4248   -0.0135 C.ar      1 <0>        -0.0944
      4 C4          2.4275    0.0495   -0.0218 C.ar      1 <0>        -0.0347
      5 C5          1.2320   -0.6859   -0.0139 C.ar      1 <0>         0.1832
      6 C6          0.0021   -0.0041    0.0020 C.ar      1 <0>         0.0626
      7 N1         -1.1839   -0.7152    0.0091 N.am      1 <0>        -0.6297
      8 C7         -1.1390   -2.0653    0.0010 C.2       1 <0>         0.4750
      9 C8          0.1705   -2.7392   -0.0151 C.2       1 <0>         0.4190
     10 O1          0.2347   -4.0928   -0.0239 O.3       1 <0>        -0.6202
     11 N2          1.2703   -2.0340   -0.0224 N.2       1 <0>        -0.5943
     12 O2         -2.1676   -2.7165    0.0073 O.2       1 <0>        -0.5221
     13 Cl1         3.9554   -0.7745   -0.0425 Cl        1 <0>        -0.0534
     14 Cl2         1.1372    3.8282    0.0118 Cl        1 <0>        -0.0836
     15 H1         -0.9593    1.9133    0.0260 H         1 <0>         0.1297
     16 H2          3.3070    1.9890   -0.0197 H         1 <0>         0.1353
     17 H3         -2.0357   -0.2512    0.0200 H         1 <0>         0.4016
@<TRIPOS>BOND
     1    1    6 ar
     2    1    2 ar
     3    1   15 1
     4    2    3 ar
     5    2   14 1
     6    3    4 ar
     7    3   16 1
     8    4    5 ar
     9    4   13 1
    10    5   11 1
    11    5    6 ar
    12    6    7 1
    13    7    8 am
    14    7   17 1
    15    8    9 1
    16    8   12 2
    17    9   10 1
    18    9   11 2
@<TRIPOS>MOLECULE
ZINC18182210
   18    19     0     0     0
SMALL
USER_CHARGES

@<TRIPOS>ATOM
      1 C1         -0.0166    1.3754    0.0096 C.ar      1 <0>        -0.1036
      2 C2          1.1701    2.0892    0.0021 C.ar      1 <0>        -0.1036
      3 C3          2.3799    1.4261   -0.0130 C.ar      1 <0>        -0.1181
      4 C4          2.4115    0.0358   -0.0208 C.ar      1 <0>         0.1158
      5 C5          1.2153   -0.6836   -0.0137 C.ar      1 <0>         0.1157
      6 C6          0.0021   -0.0041    0.0020 C.ar      1 <0>        -0.1181
      7 N1          1.2259   -2.0756   -0.0218 N.am      1 <0>        -0.6341
      8 C7          2.3977   -2.7428   -0.0357 C.2       1 <0>         0.5079
      9 C8          3.6759   -1.9741   -0.0428 C.2       1 <0>         0.5080
     10 N2          3.6359   -0.6262   -0.0361 N.am      1 <0>        -0.6341
     11 O1          4.7418   -2.5562   -0.0549 O.2       1 <0>        -0.4670
     12 O2          2.4122   -3.9573   -0.0420 O.2       1 <0>        -0.4670
     13 H1         -0.9602    1.9006    0.0260 H         1 <0>         0.1365
     14 H2          1.1485    3.1690    0.0078 H         1 <0>         0.1365
     15 H3          3.3028    1.9869   -0.0192 H         1 <0>         0.1394
     16 H4         -0.9259   -0.5565    0.0083 H         1 <0>         0.1394
     17 H5          4.4616   -0.1171   -0.0415 H         1 <0>         0.4232
     18 H6          0.3892   -2.5664   -0.0171 H         1 <0>         0.4232
@<TRIPOS>BOND
     1    1    6 ar
     2    1    2 ar
     3    1   13 1
     4    2    3 ar
     5    2   14 1
     6    3    4 ar
     7    3   15 1
     8    4   10 1
     9    4    5 ar
    10    5    6 ar
    11    5    7 1
    12    6   16 1
    13    7    8 am
    14    7   18 1
    15    8    9 1
    16    8   12 2
    17    9   10 am
    18    9   11 2
    19   10   17 1
@<TRIPOS>MOLECULE
ZINC03805040
   20    20     0     0     0
SMALL
USER_CHARGES
3-amino-1-hydroxy-4-methyl-pyrrolidin-2-one
@<TRIPOS>ATOM
      1 C1         -0.5861    3.6042    0.3176 C.3       1 <0>        -0.1841
      2 C2         -0.8086    3.0730   -1.0999 C.3       1 <0>        -0.1119
      3 H1         -0.0665    3.4783   -1.7877 H         1 <0>         0.1453
      4 C3         -2.2414    3.3821   -1.5876 C.3       1 <0>         0.1191
      5 N1         -3.0376    2.1999   -1.2380 N.am      1 <0>        -0.4550
      6 C4         -2.2513    1.1416   -0.9758 C.2       1 <0>         0.4769
      7 O1         -2.6509    0.0384   -0.6692 O.2       1 <0>        -0.4980
      8 C5         -0.7955    1.5269   -1.1198 C.3       1 <0>         0.0103
      9 H2         -0.3936    1.1609   -2.0646 H         1 <0>         0.1879
     10 O2         -4.4524    2.1769   -1.1838 O.3       1 <0>        -0.2855
     11 H3          0.3787    3.2578    0.6882 H         1 <0>         0.0717
     12 H4         -0.5999    4.6940    0.3035 H         1 <0>         0.1063
     13 H5         -1.3786    3.2393    0.9709 H         1 <0>         0.0737
     14 H6         -2.6313    4.2635   -1.0783 H         1 <0>         0.1158
     15 H7         -2.2474    3.5370   -2.6665 H         1 <0>         0.1081
     16 H8          0.0021   -0.0041    0.0020 H         1 <0>         0.4488
     17 H9          0.9253    1.3792    0.0006 H         1 <0>         0.4481
     18 H10        -4.8227    1.3184   -0.9370 H         1 <0>         0.4100
     19 N2         -0.0252    1.0139    0.0269 N.4       1 <0>        -0.6294
     20 H11        -0.4761    1.3157    0.8986 H         1 <0>         0.4419
@<TRIPOS>BOND
     1    1    2 1
     2    1   11 1
     3    1   12 1
     4    1   13 1
     5    2    3 1
     6    2    8 1
     7    2    4 1
     8    4    5 1
     9    4   14 1
    10    4   15 1
    11    5    6 am
    12    5   10 1
    13    6    7 2
    14    6    8 1
    15    8    9 1
    16    8   19 1
    17   10   18 1
    18   16   19 1
    19   17   19 1
    20   19   20 1
@<TRIPOS>MOLECULE
ZINC18187630
   18    19     0     0     0
SMALL
USER_CHARGES

@<TRIPOS>ATOM
      1 C1         -0.0166    1.3763    0.0096 C.ar      1 <0>        -0.0987
      2 C2          1.1776    2.0888    0.0020 C.ar      1 <0>         0.1367
      3 C3          2.3933    1.4029   -0.0137 C.ar      1 <0>         0.1367
      4 C4          2.4012    0.0123   -0.0216 C.ar      1 <0>        -0.0987
      5 C5          1.2101   -0.6856   -0.0136 C.ar      1 <0>        -0.0201
      6 C6          0.0021   -0.0041    0.0020 C.ar      1 <0>        -0.0201
      7 Cl1        -1.4910   -0.8897    0.0120 Cl        1 <0>        -0.0282
      8 Cl2         1.2243   -2.4215   -0.0241 Cl        1 <0>        -0.0282
      9 N1          3.5991    2.0989   -0.0219 N.am      1 <0>        -0.6322
     10 H1          4.4387    1.6131   -0.0335 H         1 <0>         0.4272
     11 C7          3.6016    3.4473   -0.0143 C.2       1 <0>         0.5107
     12 O1          4.6511    4.0590   -0.0219 O.2       1 <0>        -0.4559
     13 C8          2.3028    4.1801    0.0029 C.2       1 <0>         0.5108
     14 O2          2.2837    5.3946    0.0095 O.2       1 <0>        -0.4559
     15 N2          1.1499    3.4808    0.0097 N.am      1 <0>        -0.6323
     16 H2          0.3000    3.9482    0.0203 H         1 <0>         0.4272
     17 H3         -0.9593    1.9031    0.0259 H         1 <0>         0.1605
     18 H4          3.3397   -0.5220   -0.0345 H         1 <0>         0.1605
@<TRIPOS>BOND
     1    1    6 ar
     2    1    2 ar
     3    1   17 1
     4    2   15 1
     5    2    3 ar
     6    3    4 ar
     7    3    9 1
     8    4    5 ar
     9    4   18 1
    10    5    6 ar
    11    5    8 1
    12    6    7 1
    13    9   10 1
    14    9   11 am
    15   11   12 2
    16   11   13 1
    17   13   14 2
    18   13   15 am
    19   15   16 1
@<TRIPOS>MOLECULE
ZINC18187630
   18    19     0     0     0
SMALL
USER_CHARGES

@<TRIPOS>ATOM
      1 C1         -0.0163    1.3496    0.0095 C.ar      1 <0>        -0.1720
      2 C2          1.2042    2.0706    0.0017 C.ar      1 <0>         0.3977
      3 N1          1.2018    3.3887    0.0092 N.am      1 <0>        -0.4834
      4 C3          2.3685    4.0638    0.0017 C.2       1 <0>         0.4770
      5 O1          2.3724    5.2780    0.0090 O.2       1 <0>        -0.2305
      6 C4          3.6585    3.3064   -0.0153 C.2       1 <0>         0.4771
      7 O2          4.7169    3.9015   -0.0219 O.2       1 <0>        -0.2305
      8 N2          3.6374    1.9587   -0.0227 N.am      1 <0>        -0.4835
      9 C5          2.4852    1.3184   -0.0146 C.ar      1 <0>         0.3977
     10 C6          2.4506   -0.0986   -0.0219 C.ar      1 <0>        -0.1721
     11 C7          1.2596   -0.7424   -0.0140 C.ar      1 <0>         0.1260
     12 C8          0.0021   -0.0041    0.0020 C.ar      1 <0>         0.1258
     13 Cl1        -1.4985   -0.8768    0.0122 Cl        1 <0>         0.1611
     14 Cl2         1.2289   -2.4781   -0.0229 Cl        1 <0>         0.1612
     15 H1         -0.9578    1.8784    0.0258 H         1 <0>         0.2402
     16 H2          3.3713   -0.6630   -0.0341 H         1 <0>         0.2402
     17 H3          0.3612    3.8725    0.0199 H         1 <0>         0.4840
     18 H4          4.4696    1.4604   -0.0338 H         1 <0>         0.4840
@<TRIPOS>BOND
     1    1   12 ar
     2    1    2 ar
     3    1   15 1
     4    2    9 ar
     5    2    3 2
     6    3    4 am
     7    3   17 1
     8    4    5 2
     9    4    6 1
    10    6    7 2
    11    6    8 am
    12    8    9 2
    13    8   18 1
    14    9   10 ar
    15   10   11 ar
    16   10   16 1
    17   11   12 ar
    18   11   14 1
    19   12   13 1
@<TRIPOS>MOLECULE
ZINC00895342
   14    13     0     0     0
SMALL
USER_CHARGES

@<TRIPOS>ATOM
      1 C1         -0.0187    1.5258    0.0104 C.3       1 <0>         0.0671
      2 C2          0.0021   -0.0041    0.0020 C.3       1 <0>        -0.0448
      3 H1          0.5883   -0.3548   -0.8473 H         1 <0>         0.1396
      4 C3         -1.4075   -0.5249   -0.1112 C.2       1 <0>         0.4902
      5 O1         -2.0253   -0.3903   -1.1536 O.co2     1 <0>        -0.6310
      6 O2         -1.9301   -1.0810    0.8397 O.co2     1 <0>        -0.6669
      7 N1          0.6059   -0.4925    1.2489 N.4       1 <0>        -0.6097
      8 O3          1.3220    2.0204    0.0003 O.3       1 <0>        -0.5876
      9 H2         -0.5459    1.8868   -0.8726 H         1 <0>         0.0945
     10 H3         -0.5289    1.8773    0.9072 H         1 <0>         0.0667
     11 H4          0.6196   -1.5013    1.2434 H         1 <0>         0.4319
     12 H5          1.5497   -0.1437    1.3247 H         1 <0>         0.4219
     13 H6          1.3852    2.9853    0.0049 H         1 <0>         0.3984
     14 H7          0.0633   -0.1678    2.0352 H         1 <0>         0.4299
@<TRIPOS>BOND
     1    1    2 1
     2    1    8 1
     3    1    9 1
     4    1   10 1
     5    2    3 1
     6    2    4 1
     7    2    7 1
     8    4    5 2
     9    4    6 1
    10    7   11 1
    11    7   12 1
    12    7   14 1
    13    8   13 1
@<TRIPOS>MOLECULE
ZINC13911229
   13    13     0     0     0
SMALL
USER_CHARGES

@<TRIPOS>ATOM
      1 C1         -0.0180    1.4782    0.0102 C.3       1 <0>         0.0177
      2 C2          1.4396    1.8837   -0.0016 C.2       1 <0>         0.4714
      3 O1          1.8725    2.9799    0.2844 O.2       1 <0>        -0.5193
      4 N1          2.1765    0.8207   -0.3831 N.am      1 <0>        -0.5085
      5 C3          1.2924   -0.3200   -0.6519 C.3       1 <0>         0.2781
      6 N2          0.0021   -0.0041    0.0020 N.3       1 <0>        -0.6391
      7 O2          3.5871    0.8071   -0.5065 O.3       1 <0>        -0.3077
      8 H1         -0.5071    1.8462    0.9121 H         1 <0>         0.1197
      9 H2         -0.5242    1.8558   -0.8782 H         1 <0>         0.1297
     10 H3          1.1493   -0.4386   -1.7259 H         1 <0>         0.1062
     11 H4          1.7152   -1.2303   -0.2268 H         1 <0>         0.0959
     12 H5         -0.0267   -0.3713    0.9414 H         1 <0>         0.3557
     13 H6          4.0090    1.6495   -0.2888 H         1 <0>         0.4001
@<TRIPOS>BOND
     1    1    6 1
     2    1    2 1
     3    1    8 1
     4    1    9 1
     5    2    3 2
     6    2    4 am
     7    4    5 1
     8    4    7 1
     9    5    6 1
    10    5   10 1
    11    5   11 1
    12    6   12 1
    13    7   13 1
@<TRIPOS>MOLECULE
ZINC00597480
   39    41     0     0     0
SMALL
USER_CHARGES

@<TRIPOS>ATOM
      1 C1          2.9508    1.4480   -4.4636 C.ar      1 <0>        -0.1446
      2 C2          2.3304    0.2755   -4.0732 C.ar      1 <0>        -0.1014
      3 C3          2.7909   -0.4171   -2.9706 C.ar      1 <0>        -0.1219
      4 C4          3.8780    0.0652   -2.2537 C.ar      1 <0>         0.1755
      5 C5          4.4988    1.2431   -2.6484 C.ar      1 <0>        -0.1512
      6 C6          4.0335    1.9310   -3.7519 C.ar      1 <0>        -0.1008
      7 N1          4.3467   -0.6339   -1.1357 N.am      1 <0>        -0.6888
      8 C7          4.2744   -1.9794   -1.1033 C.2       1 <0>         0.7092
      9 O1          3.8900   -2.5913   -2.0811 O.2       1 <0>        -0.5693
     10 N2          4.6283   -2.6465    0.0130 N.am      1 <0>        -0.7254
     11 C8          4.6531   -4.1113    0.0141 C.3       1 <0>         0.2186
     12 H1          3.8105   -4.4857   -0.5672 H         1 <0>         0.1023
     13 C9          5.9576   -4.5943   -0.6195 C.3       1 <0>        -0.1274
     14 C10         7.1221   -4.2457    0.3167 C.3       1 <0>         0.0811
     15 H2          7.1258   -3.1745    0.5183 H         1 <0>         0.0669
     16 N3          6.9277   -4.9873    1.5700 N.pl3     1 <0>        -0.6979
     17 C11         5.6533   -5.0188    2.1468 C.ar      1 <0>         0.2736
     18 C12         4.5398   -4.6092    1.4309 C.ar      1 <0>        -0.1807
     19 C13         3.2896   -4.6555    2.0271 C.ar      1 <0>         0.0449
     20 C14         3.1532   -5.1042    3.3278 C.ar      1 <0>        -0.1842
     21 C15         4.2660   -5.5110    4.0425 C.ar      1 <0>         0.0366
     22 C16         5.5136   -5.4689    3.4547 C.ar      1 <0>        -0.1953
     23 Cl1         4.0925   -6.0727    5.6759 Cl        1 <0>        -0.0674
     24 Cl2         1.8885   -4.1471    1.1370 Cl        1 <0>        -0.0573
     25 C17         8.4271   -4.6497   -0.3197 C.2       1 <0>         0.4954
     26 O2          9.0308   -3.8605   -1.0262 O.co2     1 <0>        -0.6831
     27 O3          8.8791   -5.7657   -0.1280 O.co2     1 <0>        -0.6835
     28 H3          2.5916    1.9854   -5.3289 H         1 <0>         0.1192
     29 H4          1.4847   -0.0990   -4.6309 H         1 <0>         0.1221
     30 H5          2.3057   -1.3327   -2.6659 H         1 <0>         0.1360
     31 H6          5.3443    1.6209   -2.0927 H         1 <0>         0.1242
     32 H7          4.5159    2.8471   -4.0593 H         1 <0>         0.1230
     33 H8          4.7236   -0.1502   -0.3842 H         1 <0>         0.4059
     34 H9          4.8666   -2.1568    0.8157 H         1 <0>         0.3952
     35 H10         5.9156   -5.6738   -0.7639 H         1 <0>         0.0793
     36 H11         6.1014   -4.1007   -1.5806 H         1 <0>         0.0854
     37 H12         7.6706   -5.4478    1.9906 H         1 <0>         0.4117
     38 H13         2.1762   -5.1376    3.7867 H         1 <0>         0.1368
     39 H14         6.3827   -5.7859    4.0120 H         1 <0>         0.1375
@<TRIPOS>BOND
     1    1    6 ar
     2    1    2 ar
     3    1   28 1
     4    2    3 ar
     5    2   29 1
     6    3    4 ar
     7    3   30 1
     8    4    5 ar
     9    4    7 1
    10    5    6 ar
    11    5   31 1
    12    6   32 1
    13    7    8 am
    14    7   33 1
    15    8    9 2
    16    8   10 am
    17   10   11 1
    18   10   34 1
    19   11   12 1
    20   11   18 1
    21   11   13 1
    22   13   14 1
    23   13   35 1
    24   13   36 1
    25   14   15 1
    26   14   16 1
    27   14   25 1
    28   16   17 1
    29   16   37 1
    30   17   22 ar
    31   17   18 ar
    32   18   19 ar
    33   19   20 ar
    34   19   24 1
    35   20   21 ar
    36   20   38 1
    37   21   22 ar
    38   21   23 1
    39   22   39 1
    40   25   26 2
    41   25   27 1
@<TRIPOS>MOLECULE
ZINC13761193
   21    22     0     0     0
SMALL
USER_CHARGES
6-chloro-7-methyl-1,4-dihydroquinoxaline-2,3-dione
@<TRIPOS>ATOM
      1 C1         -2.5619    3.8628    0.0464 C.3       1 <0>        -0.1224
      2 C2         -1.2424    3.1351    0.0299 C.ar      1 <0>        -0.0571
      3 C3         -0.0625    3.8508    0.0224 C.ar      1 <0>        -0.1089
      4 C4          1.1568    3.1830    0.0077 C.ar      1 <0>         0.1285
      5 C5          1.1819    1.7870    0.0004 C.ar      1 <0>         0.1239
      6 C6         -0.0126    1.0758    0.0080 C.ar      1 <0>        -0.1057
      7 C7         -1.2180    1.7498    0.0173 C.ar      1 <0>        -0.0270
      8 Cl1        -2.7076    0.8583    0.0196 Cl        1 <0>        -0.0479
      9 N1          2.3928    1.1006   -0.0149 N.am      1 <0>        -0.6326
     10 H1          2.3997    0.1306   -0.0205 H         1 <0>         0.4250
     11 C8          3.5564    1.7821   -0.0223 C.2       1 <0>         0.5096
     12 O1          4.6154    1.1876   -0.0360 O.2       1 <0>        -0.4620
     13 C9          3.5298    3.2733   -0.0140 C.2       1 <0>         0.5093
     14 O2          4.5670    3.9054   -0.0201 O.2       1 <0>        -0.4617
     15 N2          2.3426    3.9127    0.0007 N.am      1 <0>        -0.6333
     16 H2          2.3147    4.8823    0.0066 H         1 <0>         0.4250
     17 H3         -2.8899    4.0438   -0.9772 H         1 <0>         0.0819
     18 H4         -3.3049    3.2562    0.5641 H         1 <0>         0.0787
     19 H5         -2.4454    4.8148    0.5642 H         1 <0>         0.0760
     20 H6         -0.0863    4.9306    0.0284 H         1 <0>         0.1498
     21 H7          0.0021   -0.0041    0.0020 H         1 <0>         0.1508
@<TRIPOS>BOND
     1    1    2 1
     2    1   17 1
     3    1   18 1
     4    1   19 1
     5    2    7 ar
     6    2    3 ar
     7    3    4 ar
     8    3   20 1
     9    4   15 1
    10    4    5 ar
    11    5    6 ar
    12    5    9 1
    13    6    7 ar
    14    6   21 1
    15    7    8 1
    16    9   10 1
    17    9   11 am
    18   11   12 2
    19   11   13 1
    20   13   14 2
    21   13   15 am
    22   15   16 1
@<TRIPOS>MOLECULE
ZINC00901012
   18    17     0     0     0
SMALL
USER_CHARGES

@<TRIPOS>ATOM
      1 C1         -0.0178    1.4648    0.0101 C.3       1 <0>        -0.0319
      2 N1          0.0021   -0.0041    0.0020 N.4       1 <0>        -0.4795
      3 C2         -1.3761   -0.5125    0.0124 C.3       1 <0>        -0.0204
      4 H1         -1.9129   -0.0898    0.8617 H         1 <0>         0.1241
      5 C3         -1.3560   -2.0379    0.1298 C.3       1 <0>        -0.1946
      6 C4         -0.7758   -2.4315    1.4637 C.2       1 <0>         0.4882
      7 O1         -0.4120   -1.5717    2.2479 O.co2     1 <0>        -0.7070
      8 O2         -0.6701   -3.6098    1.7588 O.co2     1 <0>        -0.6759
      9 C5         -2.0674   -0.1162   -1.2666 C.2       1 <0>         0.4931
     10 O3         -1.4221    0.0172   -2.2924 O.co2     1 <0>        -0.6851
     11 O4         -3.2722    0.0711   -1.2756 O.co2     1 <0>        -0.6551
     12 H2          1.0047    1.8421    0.0024 H         1 <0>         0.1043
     13 H3         -0.5450    1.8259   -0.8730 H         1 <0>         0.1169
     14 H4         -0.5280    1.8163    0.9069 H         1 <0>         0.1075
     15 H5          0.4744   -0.3295   -0.8281 H         1 <0>         0.4152
     16 H6         -2.3729   -2.4220    0.0483 H         1 <0>         0.0994
     17 H7         -0.7446   -2.4558   -0.6700 H         1 <0>         0.0772
     18 H8          0.4901   -0.3383    0.8195 H         1 <0>         0.4235
@<TRIPOS>BOND
     1    1    2 1
     2    1   12 1
     3    1   13 1
     4    1   14 1
     5    2    3 1
     6    2   15 1
     7    2   18 1
     8    3    4 1
     9    3    5 1
    10    3    9 1
    11    5    6 1
    12    5   16 1
    13    5   17 1
    14    6    7 2
    15    6    8 1
    16    9   10 2
    17    9   11 1
@<TRIPOS>MOLECULE
ZINC12410487
   24    25     0     0     0
SMALL
USER_CHARGES

@<TRIPOS>ATOM
      1 C1         -0.0184    1.5028    0.0103 C.3       1 <0>        -0.1167
      2 C2          0.0021   -0.0041    0.0020 C.ar      1 <0>        -0.0637
      3 C3          0.0057   -0.6873   -1.2026 C.ar      1 <0>        -0.1072
      4 C4          0.0243   -2.0668   -1.2191 C.ar      1 <0>        -0.0781
      5 C5          0.0396   -2.7770   -0.0235 C.ar      1 <0>         0.1076
      6 C6          0.0355   -2.0883    1.1906 C.ar      1 <0>         0.1266
      7 C7          0.0228   -0.6977    1.1945 C.ar      1 <0>        -0.1267
      8 N1          0.0507   -2.7811    2.3979 N.am      1 <0>        -0.6336
      9 C8          0.0694   -4.1295    2.4036 C.2       1 <0>         0.5082
     10 C9          0.0738   -4.8654    1.1062 C.2       1 <0>         0.5075
     11 N2          0.0584   -4.1687   -0.0483 N.am      1 <0>        -0.6326
     12 O1          0.0910   -6.0797    1.0898 O.2       1 <0>        -0.4684
     13 O2          0.0831   -4.7384    3.4544 O.2       1 <0>        -0.4673
     14 C10         0.0277   -2.8043   -2.5333 C.3       1 <0>        -0.1203
     15 H1          1.0042    1.8801    0.0026 H         1 <0>         0.0759
     16 H2         -0.5455    1.8639   -0.8728 H         1 <0>         0.0718
     17 H3         -0.5286    1.8543    0.9071 H         1 <0>         0.0702
     18 H4         -0.0065   -0.1383   -2.1325 H         1 <0>         0.1359
     19 H5          0.0247   -0.1605    2.1314 H         1 <0>         0.1389
     20 H6          1.0560   -2.9681   -2.8553 H         1 <0>         0.0806
     21 H7         -0.4725   -3.7651   -2.4120 H         1 <0>         0.0650
     22 H8         -0.4981   -2.2131   -3.2830 H         1 <0>         0.0817
     23 H9          0.0480   -2.2933    3.2363 H         1 <0>         0.4230
     24 H10         0.0608   -4.6380   -0.8972 H         1 <0>         0.4215
@<TRIPOS>BOND
     1    1    2 1
     2    1   15 1
     3    1   16 1
     4    1   17 1
     5    2    7 ar
     6    2    3 ar
     7    3    4 ar
     8    3   18 1
     9    4    5 ar
    10    4   14 1
    11    5   11 1
    12    5    6 ar
    13    6    7 ar
    14    6    8 1
    15    7   19 1
    16    8    9 am
    17    8   23 1
    18    9   10 1
    19    9   13 2
    20   10   11 am
    21   10   12 2
    22   11   24 1
    23   14   20 1
    24   14   21 1
    25   14   22 1
@<TRIPOS>MOLECULE
ZINC19203138
   20    21     0     0     0
SMALL
USER_CHARGES

@<TRIPOS>ATOM
      1 C1         -0.0165    1.3620    0.0095 C.ar      1 <0>        -0.1785
      2 C2          1.1699    2.0846    0.0021 C.ar      1 <0>        -0.0599
      3 C3          2.3864    1.4397   -0.0130 C.ar      1 <0>        -0.1824
      4 C4          2.4300    0.0473   -0.0209 C.ar      1 <0>         0.2034
      5 C5          1.2241   -0.6791   -0.0133 C.ar      1 <0>        -0.2104
      6 C6          0.0021   -0.0041    0.0020 C.ar      1 <0>        -0.0269
      7 C7          1.2867   -2.1494   -0.0219 C.2       1 <0>         0.4148
      8 O1          0.2704   -2.8226   -0.0162 O.2       1 <0>        -0.5179
      9 C8          2.5720   -2.7600   -0.0375 C.2       1 <0>        -0.2931
     10 C9          3.6874   -1.9879   -0.0440 C.2       1 <0>         0.1460
     11 N1          3.6292   -0.6236   -0.0364 N.pl3     1 <0>        -0.5870
     12 H1          4.4553   -0.1151   -0.0419 H         1 <0>         0.4232
     13 C10         5.0141   -2.6474   -0.0602 C.2       1 <0>         0.5230
     14 O2          5.0900   -3.8672   -0.0676 O.co2     1 <0>        -0.6482
     15 O3          6.0324   -1.9717   -0.0663 O.co2     1 <0>        -0.6740
     16 H2         -0.9615    1.8846    0.0259 H         1 <0>         0.1234
     17 H3          1.1378    3.1641    0.0078 H         1 <0>         0.1260
     18 H4          3.3029    2.0110   -0.0190 H         1 <0>         0.1308
     19 H5         -0.9243   -0.5592    0.0083 H         1 <0>         0.1330
     20 H6          2.6593   -3.8364   -0.0439 H         1 <0>         0.1546
@<TRIPOS>BOND
     1    1    6 ar
     2    1    2 ar
     3    1   16 1
     4    2    3 ar
     5    2   17 1
     6    3    4 ar
     7    3   18 1
     8    4   11 1
     9    4    5 ar
    10    5    6 ar
    11    5    7 1
    12    6   19 1
    13    7    8 2
    14    7    9 1
    15    9   10 2
    16    9   20 1
    17   10   11 1
    18   10   13 1
    19   11   12 1
    20   13   14 2
    21   13   15 1
@<TRIPOS>MOLECULE
ZINC13489845
   33    35     0     0     0
SMALL
USER_CHARGES

@<TRIPOS>ATOM
      1 C1         -0.0428    1.3480    0.0142 C.ar      1 <0>        -0.1063
      2 C2          1.1416    2.0613    0.0194 C.ar      1 <0>        -0.1121
      3 C3          2.3455    1.3880    0.0007 C.ar      1 <0>        -0.1096
      4 C4          2.3766    0.0001   -0.0195 C.ar      1 <0>        -0.1117
      5 C5          1.1982   -0.7118   -0.0149 C.ar      1 <0>        -0.0759
      6 C6         -0.0132   -0.0307   -0.0038 C.ar      1 <0>        -0.1150
      7 C7          1.1531   -2.2170   -0.0053 C.3       1 <0>        -0.1003
      8 C8          2.4751   -2.8042   -0.4972 C.3       1 <0>         0.1024
      9 N1          3.5680   -2.1086    0.2022 N.pl3     1 <0>        -0.5714
     10 C9          3.7257   -0.6730   -0.0540 C.3       1 <0>         0.1495
     11 C10         4.4177   -2.7863    1.0719 C.ar      1 <0>         0.3450
     12 C11         4.1904   -4.1261    1.3957 C.ar      1 <0>        -0.2310
     13 C12         5.0520   -4.7648    2.2598 C.ar      1 <0>         0.1803
     14 N2          6.0847   -4.1285    2.7827 N.ar      1 <0>        -0.5401
     15 C13         6.3368   -2.8579    2.5030 C.ar      1 <0>         0.4801
     16 C14         5.5177   -2.1478    1.6357 C.ar      1 <0>        -0.2962
     17 N3          7.4361   -2.2314    3.0793 N.pl3     1 <0>        -0.8299
     18 H1         -0.9887    1.8690    0.0288 H         1 <0>         0.1298
     19 H2          1.1243    3.1410    0.0377 H         1 <0>         0.1305
     20 H3          3.2709    1.9447    0.0014 H         1 <0>         0.1268
     21 H4         -0.9395   -0.5860   -0.0091 H         1 <0>         0.1273
     22 H5          0.9629   -2.5635    1.0105 H         1 <0>         0.0858
     23 H6          0.3465   -2.5556   -0.6556 H         1 <0>         0.0995
     24 H7          2.5120   -3.8698   -0.2712 H         1 <0>         0.1016
     25 H8          2.5691   -2.6511   -1.5723 H         1 <0>         0.0966
     26 H9          4.1789   -0.5271   -1.0345 H         1 <0>         0.0979
     27 H10         4.3684   -0.2366    0.7106 H         1 <0>         0.1010
     28 H11         3.3486   -4.6548    0.9735 H         1 <0>         0.1752
     29 H12         4.8806   -5.8004    2.5137 H         1 <0>         0.2050
     30 H13         5.7286   -1.1138    1.4058 H         1 <0>         0.1700
     31 H14         8.0139   -2.7242    3.6828 H         1 <0>         0.4195
     32 H15         7.6251   -1.3016    2.8779 H         1 <0>         0.4367
     33 H16         6.6745   -4.6042    3.3883 H         1 <0>         0.4390
@<TRIPOS>BOND
     1    1    6 ar
     2    1    2 ar
     3    1   18 1
     4    2    3 ar
     5    2   19 1
     6    3    4 ar
     7    3   20 1
     8    4   10 1
     9    4    5 ar
    10    5    6 ar
    11    5    7 1
    12    6   21 1
    13    7    8 1
    14    7   22 1
    15    7   23 1
    16    8    9 1
    17    8   24 1
    18    8   25 1
    19    9   10 1
    20    9   11 1
    21   10   26 1
    22   10   27 1
    23   11   16 ar
    24   11   12 ar
    25   12   13 ar
    26   12   28 1
    27   13   14 ar
    28   13   29 1
    29   14   15 ar
    30   14   33 1
    31   15   16 ar
    32   15   17 1
    33   16   30 1
    34   17   31 1
    35   17   32 1
@<TRIPOS>MOLECULE
ZINC02557959
   18    19     0     0     0
SMALL
USER_CHARGES
4,6-dichloro-1H-indole-2-carboxylic acid
@<TRIPOS>ATOM
      1 C1         -0.0620    6.4333    0.0363 C.ar      1 <0>        -0.1049
      2 C2          0.6731    7.5996    0.0352 C.ar      1 <0>        -0.0202
      3 C3          2.0624    7.5612    0.0222 C.ar      1 <0>        -0.1358
      4 C4          2.7245    6.3668    0.0099 C.ar      1 <0>         0.0245
      5 C5          1.9987    5.1671    0.0107 C.ar      1 <0>        -0.0954
      6 C6          0.5902    5.2041    0.0244 C.ar      1 <0>         0.1010
      7 N1          0.1445    3.9034    0.0156 N.pl3     1 <0>        -0.5537
      8 H1         -0.7845    3.6245    0.0181 H         1 <0>         0.4269
      9 C7          1.2390    3.0584    0.0067 C.2       1 <0>         0.0829
     10 C8          2.3765    3.8035   -0.0002 C.2       1 <0>        -0.1714
     11 C9          1.1821    1.5914   -0.0007 C.2       1 <0>         0.5090
     12 O1          2.2106    0.9431   -0.0140 O.co2     1 <0>        -0.6042
     13 Cl1         4.4602    6.3340   -0.0075 Cl        1 <0>        -0.0647
     14 Cl2        -0.1444    9.1310    0.0507 Cl        1 <0>        -0.0708
     15 H2         -1.1412    6.4736    0.0461 H         1 <0>         0.1340
     16 H3          2.6233    8.4841    0.0215 H         1 <0>         0.1380
     17 H4          3.3871    3.4228   -0.0116 H         1 <0>         0.1530
     18 O2         -0.0110    0.9628    0.0073 O.co2     1 <0>        -0.7482
@<TRIPOS>BOND
     1    1    6 ar
     2    1    2 ar
     3    1   15 1
     4    2    3 ar
     5    2   14 1
     6    3    4 ar
     7    3   16 1
     8    4    5 ar
     9    4   13 1
    10    5   10 1
    11    5    6 ar
    12    6    7 1
    13    7    8 1
    14    7    9 1
    15    9   10 2
    16    9   11 1
    17   10   17 1
    18   11   12 2
    19   11   18 1
@<TRIPOS>MOLECULE
ZINC19632758
   29    28     0     0     0
SMALL
USER_CHARGES

@<TRIPOS>ATOM
      1 C1         -0.0187    1.5258    0.0104 C.3       1 <0>        -0.1166
      2 C2          0.0021   -0.0041    0.0020 C.3       1 <0>        -0.1324
      3 C3         -1.4333   -0.5336    0.0129 C.3       1 <0>        -0.1263
      4 C4         -1.4126   -2.0635    0.0045 C.3       1 <0>        -0.0493
      5 H1         -0.8263   -2.4142   -0.8449 H         1 <0>         0.1336
      6 C5         -2.8221   -2.5844   -0.1087 C.2       1 <0>         0.4915
      7 O1         -3.4399   -2.4497   -1.1512 O.co2     1 <0>        -0.6389
      8 O2         -3.3448   -3.1404    0.8422 O.co2     1 <0>        -0.6788
      9 N1         -0.8087   -2.5519    1.2514 N.4       1 <0>        -0.6130
     10 C6          1.4167    2.0553   -0.0004 C.3       1 <0>        -0.0935
     11 C7          1.3960    3.5852    0.0080 C.3       1 <0>        -0.7309
     12 P1          3.1062    4.2162   -0.0050 P.3       1 <0>         2.2581
     13 O3          3.8899    3.6042    1.1776 O.2       1 <0>        -1.0989
     14 O4          3.7898    3.8240   -1.3338 O.3       1 <0>        -1.0984
     15 O5          3.0877    5.8199    0.1361 O.3       1 <0>        -0.9057
     16 H2         -0.5459    1.8868   -0.8726 H         1 <0>         0.0615
     17 H3         -0.5289    1.8773    0.9072 H         1 <0>         0.0567
     18 H4          0.5123   -0.3556   -0.8948 H         1 <0>         0.0764
     19 H5          0.5293   -0.3651    0.8851 H         1 <0>         0.0551
     20 H6         -1.9435   -0.1821    0.9097 H         1 <0>         0.0781
     21 H7         -1.9605   -0.1726   -0.8702 H         1 <0>         0.1075
     22 H8         -1.3514   -2.2272    2.0376 H         1 <0>         0.4301
     23 H9         -0.7950   -3.5608    1.2458 H         1 <0>         0.4289
     24 H10         1.9439    1.6943    0.8826 H         1 <0>         0.0705
     25 H11         1.9269    1.7038   -0.8972 H         1 <0>         0.0703
     26 H12         0.8688    3.9463   -0.8751 H         1 <0>         0.0695
     27 H13         0.8858    3.9367    0.9048 H         1 <0>         0.0664
     28 H14         3.9658    6.2249    0.1366 H         1 <0>         0.4121
     29 H15         0.1351   -2.2031    1.3272 H         1 <0>         0.4163
@<TRIPOS>BOND
     1    1    2 1
     2    1   10 1
     3    1   16 1
     4    1   17 1
     5    2    3 1
     6    2   18 1
     7    2   19 1
     8    3    4 1
     9    3   20 1
    10    3   21 1
    11    4    5 1
    12    4    6 1
    13    4    9 1
    14    6    7 2
    15    6    8 1
    16    9   22 1
    17    9   23 1
    18    9   29 1
    19   10   11 1
    20   10   24 1
    21   10   25 1
    22   11   12 1
    23   11   26 1
    24   11   27 1
    25   12   13 2
    26   12   14 1
    27   12   15 1
    28   15   28 1
@<TRIPOS>MOLECULE
ZINC13677443
   22    24     0     0     0
SMALL
USER_CHARGES

@<TRIPOS>ATOM
      1 C1         -0.0166    1.3752    0.0096 C.ar      1 <0>        -0.0835
      2 C2          1.1700    2.0892    0.0021 C.ar      1 <0>        -0.1228
      3 C3          2.3796    1.4260   -0.0130 C.ar      1 <0>        -0.0719
      4 C4          2.4107    0.0360   -0.0208 C.ar      1 <0>         0.1014
      5 C5          1.2154   -0.6839   -0.0133 C.ar      1 <0>         0.1557
      6 C6          0.0021   -0.0041    0.0020 C.ar      1 <0>        -0.1366
      7 N1          1.2251   -2.0759   -0.0214 N.am      1 <0>        -0.6410
      8 C7          2.3946   -2.7473   -0.0362 C.2       1 <0>         0.6081
      9 C8          3.6620   -1.9939   -0.0437 C.2       1 <0>         0.1206
     10 N2          3.6352   -0.6299   -0.0366 N.pl3     1 <0>        -0.2437
     11 N3          4.8529   -0.2086   -0.0461 N.2       1 <0>        -0.2535
     12 C9          5.6661   -1.2493   -0.0596 C.2       1 <0>         0.1670
     13 N4          4.9248   -2.3644   -0.0577 N.2       1 <0>        -0.3928
     14 C10         7.1419   -1.1926   -0.0741 C.2       1 <0>         0.5761
     15 O1          7.7123   -0.1110   -0.0743 O.co2     1 <0>        -0.6545
     16 O2          7.7934   -2.2274   -0.0860 O.co2     1 <0>        -0.6463
     17 O3          2.4038   -3.9636   -0.0429 O.2       1 <0>        -0.4803
     18 H1         -0.9603    1.9002    0.0260 H         1 <0>         0.1380
     19 H2          1.1484    3.1690    0.0078 H         1 <0>         0.1392
     20 H3          3.3027    1.9866   -0.0192 H         1 <0>         0.1503
     21 H4         -0.9260   -0.5564    0.0083 H         1 <0>         0.1431
     22 H5          0.3874   -2.5648   -0.0160 H         1 <0>         0.4273
@<TRIPOS>BOND
     1    1    6 ar
     2    1    2 ar
     3    1   18 1
     4    2    3 ar
     5    2   19 1
     6    3    4 ar
     7    3   20 1
     8    4   10 1
     9    4    5 ar
    10    5    6 ar
    11    5    7 1
    12    6   21 1
    13    7    8 am
    14    7   22 1
    15    8    9 1
    16    8   17 2
    17    9   13 2
    18    9   10 1
    19   10   11 1
    20   11   12 2
    21   12   13 1
    22   12   14 1
    23   14   15 2
    24   14   16 1
@<TRIPOS>MOLECULE
ZINC13448023
   15    15     0     0     0
SMALL
USER_CHARGES
2,5-dihydro-1H-pyrrole-3-carboxylic acid
@<TRIPOS>ATOM
      1 C1         -0.0184    1.5072    0.0103 C.3       1 <0>         0.0209
      2 C2          0.0021   -0.0041    0.0020 C.2       1 <0>        -0.1725
      3 C3          1.2065   -0.4213   -0.3826 C.2       1 <0>        -0.1391
      4 C4          2.0808    0.7800   -0.6600 C.3       1 <0>         0.0273
      5 C5          1.6196   -1.8252   -0.5164 C.2       1 <0>         0.4915
      6 O1          0.8324   -2.7167   -0.2664 O.co2     1 <0>        -0.6012
      7 H1         -0.5277    1.8824   -0.8773 H         1 <0>         0.1386
      8 H2         -0.5107    1.8728    0.9115 H         1 <0>         0.1389
      9 H3         -0.8276   -0.6432    0.2655 H         1 <0>         0.1735
     10 H4          3.0725    0.6315   -0.2327 H         1 <0>         0.1491
     11 H5          2.1552    0.9525   -1.7337 H         1 <0>         0.1432
     12 N1          1.3863    1.8844   -0.0165 N.4       1 <0>        -0.5048
     13 H6          1.7383    2.0204    0.9384 H         1 <0>         0.4335
     14 H7          1.5140    2.7494   -0.5547 H         1 <0>         0.4352
     15 O2          2.8716   -2.1242   -0.9166 O.co2     1 <0>        -0.7343
@<TRIPOS>BOND
     1    1    2 1
     2    1    7 1
     3    1    8 1
     4    1   12 1
     5    2    3 2
     6    2    9 1
     7    3    4 1
     8    3    5 1
     9    4   10 1
    10    4   11 1
    11    4   12 1
    12    5    6 2
    13    5   15 1
    14   12   13 1
    15   12   14 1
@<TRIPOS>MOLECULE
ZINC00004763
   26    27     0     0     0
SMALL
USER_CHARGES

@<TRIPOS>ATOM
      1 C1         -0.0168    1.3874    0.0097 C.ar      1 <0>        -0.1123
      2 C2          1.1696    2.0895    0.0021 C.ar      1 <0>        -0.0235
      3 C3          2.3883    1.4211   -0.0136 C.ar      1 <0>        -0.1492
      4 C4          2.4325    0.0564   -0.0218 C.ar      1 <0>         0.0306
      5 C5          1.2388   -0.6801   -0.0139 C.ar      1 <0>        -0.0923
      6 C6          0.0021   -0.0041    0.0020 C.ar      1 <0>         0.0948
      7 N1         -0.9883   -0.9571    0.0059 N.pl3     1 <0>        -0.5590
      8 H1         -1.9421   -0.7808    0.0154 H         1 <0>         0.4191
      9 C7         -0.4002   -2.2096   -0.0067 C.2       1 <0>         0.0424
     10 C8          0.9535   -2.0650   -0.0189 C.2       1 <0>        -0.1168
     11 C9          1.9663   -3.1809   -0.0360 C.3       1 <0>        -0.0268
     12 C10         2.3242   -3.5668    1.4007 C.3       1 <0>        -0.1578
     13 C11         3.3369   -4.6826    1.3836 C.2       1 <0>         0.4989
     14 O1          3.7355   -5.1279    0.3209 O.co2     1 <0>        -0.7011
     15 O2          3.7577   -5.1401    2.4325 O.co2     1 <0>        -0.7247
     16 C12        -1.1190   -3.4864   -0.0069 C.2       1 <0>         0.5408
     17 O3         -2.3433   -3.4997    0.0044 O.co2     1 <0>        -0.7017
     18 O4         -0.4953   -4.5400   -0.0183 O.co2     1 <0>        -0.6351
     19 Cl1         3.9618   -0.7649   -0.0425 Cl        1 <0>        -0.0477
     20 Cl2         1.1412    3.8252    0.0117 Cl        1 <0>        -0.0862
     21 H2         -0.9585    1.9160    0.0260 H         1 <0>         0.1268
     22 H3          3.3086    1.9864   -0.0197 H         1 <0>         0.1327
     23 H4          1.5461   -4.0451   -0.5504 H         1 <0>         0.0914
     24 H5          2.8640   -2.8488   -0.5573 H         1 <0>         0.0602
     25 H6          2.7444   -2.7026    1.9151 H         1 <0>         0.0412
     26 H7          1.4264   -3.8989    1.9220 H         1 <0>         0.0553
@<TRIPOS>BOND
     1    1    6 ar
     2    1    2 ar
     3    1   21 1
     4    2    3 ar
     5    2   20 1
     6    3    4 ar
     7    3   22 1
     8    4    5 ar
     9    4   19 1
    10    5   10 1
    11    5    6 ar
    12    6    7 1
    13    7    8 1
    14    7    9 1
    15    9   10 2
    16    9   16 1
    17   10   11 1
    18   11   12 1
    19   11   23 1
    20   11   24 1
    21   12   13 1
    22   12   25 1
    23   12   26 1
    24   13   14 2
    25   13   15 1
    26   16   17 2
    27   16   18 1
@<TRIPOS>MOLECULE
ZINC00005910
   28    30     0     0     0
SMALL
USER_CHARGES

@<TRIPOS>ATOM
      1 C1         -0.0167    1.3792    0.0096 C.ar      1 <0>        -0.1543
      2 C2          1.1685    2.0926    0.0021 C.ar      1 <0>        -0.1287
      3 C3          2.3774    1.4274   -0.0129 C.ar      1 <0>        -0.1086
      4 C4          2.4027    0.0332   -0.0206 C.ar      1 <0>         0.0863
      5 C5          1.2047   -0.6805   -0.0130 C.ar      1 <0>        -0.1157
      6 C6          0.0021   -0.0041    0.0020 C.ar      1 <0>        -0.1284
      7 C7          3.6974   -0.6871   -0.0373 C.2       1 <0>        -0.4447
      8 C8          4.0593   -1.4749   -1.1578 C.2       1 <0>         0.4213
      9 C9          5.3583   -2.1696   -1.1227 C.ar      1 <0>        -0.1857
     10 C10         5.7816   -2.9626   -2.1902 C.ar      1 <0>        -0.0219
     11 C11         6.9921   -3.5940   -2.1280 C.ar      1 <0>        -0.1718
     12 C12         7.8041   -3.4523   -1.0100 C.ar      1 <0>         0.0149
     13 C13         7.4036   -2.6729    0.0553 C.ar      1 <0>        -0.1809
     14 C14         6.1747   -2.0218    0.0112 C.ar      1 <0>         0.2225
     15 N1          5.7534   -1.2367    1.0645 N.pl3     1 <0>        -0.6310
     16 C15         4.5617   -0.5890    1.0394 C.2       1 <0>         0.4990
     17 O1          4.2060    0.1693    2.0978 O.3       1 <0>        -0.6758
     18 Cl1         9.3375   -4.2641   -0.9527 Cl        1 <0>        -0.0807
     19 O2          3.3180   -1.5753   -2.1221 O.2       1 <0>        -0.5564
     20 H1         -0.9604    1.9042    0.0260 H         1 <0>         0.1057
     21 H2          1.1476    3.1724    0.0077 H         1 <0>         0.1068
     22 H3          3.3021    1.9854   -0.0191 H         1 <0>         0.1081
     23 H4          1.2181   -1.7604   -0.0193 H         1 <0>         0.1081
     24 H5         -0.9264   -0.5557    0.0079 H         1 <0>         0.1070
     25 H6          5.1547   -3.0772   -3.0622 H         1 <0>         0.1401
     26 H7          7.3195   -4.2080   -2.9540 H         1 <0>         0.1297
     27 H8          8.0414   -2.5687    0.9206 H         1 <0>         0.1340
     28 H9          6.3258   -1.1427    1.8420 H         1 <0>         0.4012
@<TRIPOS>BOND
     1    1    6 ar
     2    1    2 ar
     3    1   20 1
     4    2    3 ar
     5    2   21 1
     6    3    4 ar
     7    3   22 1
     8    4    5 ar
     9    4    7 1
    10    5    6 ar
    11    5   23 1
    12    6   24 1
    13    7   16 2
    14    7    8 1
    15    8    9 1
    16    8   19 2
    17    9   14 ar
    18    9   10 ar
    19   10   11 ar
    20   10   25 1
    21   11   12 ar
    22   11   26 1
    23   12   13 ar
    24   12   18 1
    25   13   14 ar
    26   13   27 1
    27   14   15 1
    28   15   16 1
    29   15   28 1
    30   16   17 1
@<TRIPOS>MOLECULE
ZINC05117372
   39    42     0     0     0
SMALL
USER_CHARGES

@<TRIPOS>ATOM
      1 C1          3.9158    1.3884   -3.6185 C.ar      1 <0>        -0.1638
      2 C2          3.9455    2.0881   -2.4263 C.ar      1 <0>        -0.0882
      3 C3          3.8351    1.4141   -1.2255 C.ar      1 <0>        -0.1552
      4 C4          3.6938    0.0338   -1.2166 C.ar      1 <0>         0.1312
      5 C5          3.6638   -0.6659   -2.4145 C.ar      1 <0>        -0.1897
      6 C6          3.7751    0.0129   -3.6124 C.ar      1 <0>        -0.0822
      7 O1          3.5855   -0.6317   -0.0368 O.3       1 <0>        -0.2593
      8 C7          3.4586   -1.9840   -0.0764 C.ar      1 <0>         0.0660
      9 C8          2.1974   -2.5613   -0.1441 C.ar      1 <0>        -0.1543
     10 C9          2.0634   -3.9363   -0.1846 C.ar      1 <0>        -0.1146
     11 C10         3.1827   -4.7440   -0.1585 C.ar      1 <0>        -0.1025
     12 C11         4.4528   -4.1727   -0.0911 C.ar      1 <0>         0.0944
     13 C12         4.5875   -2.7863   -0.0551 C.ar      1 <0>        -0.1136
     14 C13         5.6564   -5.0376   -0.0630 C.2       1 <0>        -0.4698
     15 C14         6.5296   -5.0772    1.1239 C.2       1 <0>         0.5300
     16 N1          7.3537   -6.1211    1.3050 N.2       1 <0>        -0.5438
     17 C15         7.6444   -6.9478    0.3236 C.2       1 <0>         0.2743
     18 C16         8.3856   -8.1079    0.5980 C.2       1 <0>        -0.1292
     19 C17         8.5005   -9.0895   -0.3354 C.2       1 <0>         0.0289
     20 C18         7.7418   -9.0090   -1.5811 C.2       1 <0>        -0.1720
     21 C19         7.1317   -7.8746   -1.9286 C.2       1 <0>        -0.0416
     22 C20         7.2206   -6.6504   -1.0817 C.3       1 <0>        -0.1074
     23 H1          8.0091   -6.0351   -1.5150 H         1 <0>         0.1350
     24 C21         5.9785   -5.8182   -1.1301 C.2       1 <0>         0.3213
     25 O2          5.1885   -5.8378   -2.2219 O.3       1 <0>        -0.6492
     26 Cl1         9.5512  -10.4409   -0.0467 Cl        1 <0>        -0.0623
     27 O3          6.5036   -4.1678    1.9354 O.2       1 <0>        -0.5167
     28 H2          3.9981    1.9177   -4.5563 H         1 <0>         0.1198
     29 H3          4.0555    3.1625   -2.4338 H         1 <0>         0.1255
     30 H4          3.8591    1.9610   -0.2946 H         1 <0>         0.1284
     31 H5          3.5543   -1.7403   -2.4102 H         1 <0>         0.1335
     32 H6          3.7518   -0.5312   -4.5450 H         1 <0>         0.1230
     33 H7          1.3186   -1.9339   -0.1648 H         1 <0>         0.1169
     34 H8          1.0802   -4.3802   -0.2365 H         1 <0>         0.1186
     35 H9          3.0746   -5.8181   -0.1900 H         1 <0>         0.1167
     36 H10         5.5692   -2.3386   -0.0070 H         1 <0>         0.1193
     37 H11         8.8684   -8.2213    1.5575 H         1 <0>         0.1482
     38 H12         7.6746   -9.8734   -2.2251 H         1 <0>         0.1376
     39 H13         6.5603   -7.8421   -2.8445 H         1 <0>         0.1466
@<TRIPOS>BOND
     1    1    6 ar
     2    1    2 ar
     3    1   28 1
     4    2    3 ar
     5    2   29 1
     6    3    4 ar
     7    3   30 1
     8    4    5 ar
     9    4    7 1
    10    5    6 ar
    11    5   31 1
    12    6   32 1
    13    7    8 1
    14    8   13 ar
    15    8    9 ar
    16    9   10 ar
    17    9   33 1
    18   10   11 ar
    19   10   34 1
    20   11   12 ar
    21   11   35 1
    22   12   13 ar
    23   12   14 1
    24   13   36 1
    25   14   24 2
    26   14   15 1
    27   15   16 1
    28   15   27 2
    29   16   17 2
    30   17   22 1
    31   17   18 1
    32   18   19 2
    33   18   37 1
    34   19   20 1
    35   19   26 1
    36   20   21 2
    37   20   38 1
    38   21   22 1
    39   21   39 1
    40   22   23 1
    41   22   24 1
    42   24   25 1
@<TRIPOS>MOLECULE
ZINC15924493
   29    31     0     0     0
SMALL
USER_CHARGES

@<TRIPOS>ATOM
      1 C1         -0.0167    1.3781    0.0096 C.ar      1 <0>        -0.1074
      2 C2          1.1709    2.0855    0.0021 C.ar      1 <0>        -0.1156
      3 C3          2.3773    1.4107   -0.0130 C.ar      1 <0>        -0.0930
      4 C4          2.3960    0.0285   -0.0201 C.ar      1 <0>        -0.0834
      5 C5          1.2084   -0.6789   -0.0117 C.ar      1 <0>        -0.1111
      6 C6          0.0021   -0.0041    0.0020 C.ar      1 <0>        -0.1148
      7 C7          3.7112   -0.7071   -0.0376 C.3       1 <0>        -0.1059
      8 H1          4.5315    0.0106   -0.0426 H         1 <0>         0.1450
      9 C8          3.7901   -1.5781   -1.2753 C.2       1 <0>         0.4126
     10 O1          4.4066   -1.2291   -2.2600 O.2       1 <0>        -0.4218
     11 C9          3.0831   -2.8681   -1.2250 C.ar      1 <0>        -0.2110
     12 C10         2.6054   -3.4837   -2.3808 C.ar      1 <0>        -0.0234
     13 C11         1.9412   -4.6885   -2.2832 C.ar      1 <0>        -0.1525
     14 C12         1.7491   -5.2826   -1.0453 C.ar      1 <0>        -0.0504
     15 C13         2.2204   -4.6842    0.1063 C.ar      1 <0>        -0.1654
     16 C14         2.8956   -3.4743    0.0313 C.ar      1 <0>         0.2029
     17 N1          3.3936   -2.8626    1.1724 N.am      1 <0>        -0.6582
     18 C15         3.8153   -1.5852    1.1823 C.2       1 <0>         0.5383
     19 O2          4.2930   -1.1265    2.1982 O.2       1 <0>        -0.4957
     20 H2         -0.9591    1.9053    0.0259 H         1 <0>         0.1280
     21 H3          1.1563    3.1654    0.0076 H         1 <0>         0.1304
     22 H4          3.3051    1.9634   -0.0196 H         1 <0>         0.1305
     23 H5          1.2231   -1.7588   -0.0176 H         1 <0>         0.1237
     24 H6         -0.9258   -0.5567    0.0082 H         1 <0>         0.1279
     25 H7          2.7538   -3.0206   -3.3452 H         1 <0>         0.1401
     26 H8          1.5689   -5.1711   -3.1748 H         1 <0>         0.1363
     27 H9          1.2243   -6.2244   -0.9810 H         1 <0>         0.1369
     28 H10         2.0637   -5.1573    1.0645 H         1 <0>         0.1387
     29 H11         3.4397   -3.3748    1.9949 H         1 <0>         0.4184
@<TRIPOS>BOND
     1    1    6 ar
     2    1    2 ar
     3    1   20 1
     4    2    3 ar
     5    2   21 1
     6    3    4 ar
     7    3   22 1
     8    4    5 ar
     9    4    7 1
    10    5    6 ar
    11    5   23 1
    12    6   24 1
    13    7    8 1
    14    7   18 1
    15    7    9 1
    16    9   10 2
    17    9   11 1
    18   11   16 ar
    19   11   12 ar
    20   12   13 ar
    21   12   25 1
    22   13   14 ar
    23   13   26 1
    24   14   15 ar
    25   14   27 1
    26   15   16 ar
    27   15   28 1
    28   16   17 1
    29   17   18 am
    30   17   29 1
    31   18   19 2
@<TRIPOS>MOLECULE
ZINC15924493
   28    30     0     0     0
SMALL
USER_CHARGES
(3S)-3-phenyl-1H-quinoline-2,4-dione
@<TRIPOS>ATOM
      1 C1         -0.0559    4.2672    0.0251 C.ar      1 <0>        -0.1524
      2 C2          1.1505    3.5924    0.0104 C.ar      1 <0>        -0.1336
      3 C3          1.1693    2.2102    0.0028 C.ar      1 <0>        -0.0986
      4 C4         -0.0184    1.5028    0.0103 C.ar      1 <0>         0.0421
      5 C5         -1.2248    2.1776    0.0197 C.ar      1 <0>        -0.1556
      6 C6         -1.2435    3.5598    0.0318 C.ar      1 <0>        -0.1300
      7 C7          0.0021   -0.0041    0.0020 C.2       1 <0>        -0.5178
      8 C8         -0.7101   -0.5289    1.2326 C.2       1 <0>         0.4242
      9 O1         -0.0974   -0.9053    2.2095 O.2       1 <0>        -0.4961
     10 C9         -2.1809   -0.5605    1.1851 C.ar      1 <0>        -0.2129
     11 C10        -2.9505   -0.4679    2.3436 C.ar      1 <0>        -0.0462
     12 C11        -4.3264   -0.4849    2.2476 C.ar      1 <0>        -0.1797
     13 C12        -4.9395   -0.5932    1.0088 C.ar      1 <0>        -0.0784
     14 C13        -4.1879   -0.6898   -0.1454 C.ar      1 <0>        -0.1929
     15 C14        -2.8023   -0.6790   -0.0722 C.ar      1 <0>         0.2222
     16 N1         -2.0262   -0.7855   -1.2171 N.pl3     1 <0>        -0.6937
     17 C15        -0.7124   -0.5125   -1.2231 C.2       1 <0>         0.5373
     18 O2         -0.0814   -0.6795   -2.2452 O.3       1 <0>        -0.5626
     19 H1         -0.0705    5.3471    0.0318 H         1 <0>         0.1064
     20 H2          2.0784    4.1450    0.0052 H         1 <0>         0.1099
     21 H3          2.1118    1.6830   -0.0087 H         1 <0>         0.1256
     22 H4         -2.1527    1.6249    0.0211 H         1 <0>         0.1058
     23 H5         -2.1860    4.0870    0.0436 H         1 <0>         0.1037
     24 H6         -2.4733   -0.3839    3.3088 H         1 <0>         0.1239
     25 H7         -4.9286   -0.4132    3.1412 H         1 <0>         0.1171
     26 H8         -6.0177   -0.6016    0.9459 H         1 <0>         0.1174
     27 H9         -4.6780   -0.7740   -1.1042 H         1 <0>         0.1199
     28 H10        -2.4849   -1.1037   -2.1649 H         1 <0>         0.3950
@<TRIPOS>BOND
     1    1    6 ar
     2    1    2 ar
     3    1   19 1
     4    2    3 ar
     5    2   20 1
     6    3    4 ar
     7    3   21 1
     8    4    5 ar
     9    4    7 1
    10    5    6 ar
    11    5   22 1
    12    6   23 1
    13    7   17 2
    14    7    8 1
    15    8    9 2
    16    8   10 1
    17   10   15 ar
    18   10   11 ar
    19   11   12 ar
    20   11   24 1
    21   12   13 ar
    22   12   25 1
    23   13   14 ar
    24   13   26 1
    25   14   15 ar
    26   14   27 1
    27   15   16 1
    28   16   17 1
    29   16   28 1
    30   17   18 1
@<TRIPOS>MOLECULE
ZINC13743982
   18    19     0     0     0
SMALL
USER_CHARGES
5,7-dibromo-1,4-dihydroquinoxaline-2,3-dione
@<TRIPOS>ATOM
      1 C1         -0.0167    1.3767    0.0096 C.ar      1 <0>        -0.0734
      2 C2          0.0021   -0.0041    0.0020 C.ar      1 <0>        -0.0795
      3 C3          1.2082   -0.6852   -0.0132 C.ar      1 <0>        -0.0441
      4 C4          2.4001    0.0119   -0.0214 C.ar      1 <0>        -0.0989
      5 C5          2.3930    1.4030   -0.0138 C.ar      1 <0>         0.1624
      6 C6          1.1773    2.0891    0.0020 C.ar      1 <0>         0.1328
      7 N1          1.1496    3.4808    0.0098 N.am      1 <0>        -0.6312
      8 H1          0.2998    3.9482    0.0207 H         1 <0>         0.4285
      9 C7          2.3025    4.1801    0.0020 C.2       1 <0>         0.5113
     10 O1          2.2834    5.3946    0.0084 O.2       1 <0>        -0.4540
     11 C8          3.6014    3.4474   -0.0149 C.2       1 <0>         0.5112
     12 O2          4.6508    4.0591   -0.0225 O.2       1 <0>        -0.4504
     13 N2          3.5990    2.0990   -0.0221 N.am      1 <0>        -0.6351
     14 H2          4.4385    1.6132   -0.0328 H         1 <0>         0.4259
     15 Br1         4.0427   -0.9248   -0.0421 Br        1 <0>        -0.0067
     16 Br2        -1.6245   -0.9685    0.0118 Br        1 <0>        -0.0144
     17 H3         -0.9594    1.9035    0.0169 H         1 <0>         0.1580
     18 H4          1.2164   -1.7651   -0.0191 H         1 <0>         0.1574
@<TRIPOS>BOND
     1    1    6 ar
     2    1    2 ar
     3    1   17 1
     4    2    3 ar
     5    2   16 1
     6    3    4 ar
     7    3   18 1
     8    4    5 ar
     9    4   15 1
    10    5   13 1
    11    5    6 ar
    12    6    7 1
    13    7    8 1
    14    7    9 am
    15    9   10 2
    16    9   11 1
    17   11   12 2
    18   11   13 am
    19   13   14 1
@<TRIPOS>MOLECULE
ZINC13731055
   42    45     0     0     0
SMALL
USER_CHARGES

@<TRIPOS>ATOM
      1 C1          0.7189    1.5197    2.0445 C.ar      1 <0>        -0.0888
      2 C2          1.9431    1.2814    2.6406 C.ar      1 <0>        -0.1085
      3 C3          2.9113    0.5607    1.9670 C.ar      1 <0>        -0.1007
      4 C4          2.6552    0.0778    0.6973 C.ar      1 <0>        -0.1262
      5 C5          1.4307    0.3153    0.1014 C.ar      1 <0>        -0.1041
      6 C6          0.4629    1.0372    0.7746 C.ar      1 <0>        -0.1091
      7 C7          3.7112   -0.7071   -0.0376 C.3       1 <0>         0.0887
      8 C8          5.1283   -0.2942    0.4320 C.3       1 <0>        -0.1003
      9 C9          6.0435   -0.6701   -0.7516 C.3       1 <0>        -0.1659
     10 H1          7.0410   -0.2313   -0.7737 H         1 <0>         0.1365
     11 C10         5.7955   -2.0019   -1.4627 C.3       1 <0>        -0.1703
     12 C11         5.1523   -0.6948   -2.0058 C.3       1 <0>        -0.1687
     13 H2          5.4968   -0.2824   -2.9541 H         1 <0>         0.1388
     14 C12         3.7266   -0.3331   -1.5406 C.3       1 <0>        -0.1081
     15 N1          3.5005   -2.1503    0.1376 N.4       1 <0>        -0.3734
     16 C13         2.7389   -2.3860    1.3701 C.3       1 <0>        -0.0093
     17 C14         2.5864   -3.8911    1.6000 C.3       1 <0>        -0.1454
     18 C15         1.8436   -4.5107    0.4127 C.3       1 <0>        -0.1382
     19 C16         2.6081   -4.1949   -0.8761 C.3       1 <0>        -0.1443
     20 C17         2.7598   -2.6786   -1.0142 C.3       1 <0>        -0.0239
     21 H3         -0.0392    2.0789    2.5726 H         1 <0>         0.1357
     22 H4          2.1432    1.6587    3.6326 H         1 <0>         0.1363
     23 H5          3.8680    0.3751    2.4325 H         1 <0>         0.1314
     24 H6          1.2307   -0.0617   -0.8907 H         1 <0>         0.1275
     25 H7         -0.4936    1.2231    0.3089 H         1 <0>         0.1357
     26 H8          5.1701    0.7785    0.6209 H         1 <0>         0.1227
     27 H9          5.4115   -0.8511    1.3251 H         1 <0>         0.0918
     28 H10         6.6196   -2.4268   -2.0358 H         1 <0>         0.1269
     29 H11         5.1477   -2.7241   -0.9658 H         1 <0>         0.0745
     30 H12         2.9870   -0.9184   -2.0869 H         1 <0>         0.1016
     31 H13         3.5421    0.7333   -1.6702 H         1 <0>         0.1199
     32 H14         3.2672   -1.9418    2.2137 H         1 <0>         0.1254
     33 H15         1.7526   -1.9309    1.2799 H         1 <0>         0.1307
     34 H16         3.5722   -4.3472    1.6907 H         1 <0>         0.0852
     35 H17         2.0192   -4.0640    2.5146 H         1 <0>         0.1119
     36 H18         1.7821   -5.5909    0.5447 H         1 <0>         0.0948
     37 H19         0.8390   -4.0919    0.3526 H         1 <0>         0.0817
     38 H20         3.5944   -4.6573   -0.8368 H         1 <0>         0.0863
     39 H21         2.0563   -4.5849   -1.7314 H         1 <0>         0.1134
     40 H22         1.7730   -2.2172   -1.0537 H         1 <0>         0.1282
     41 H23         3.3035   -2.4503   -1.9310 H         1 <0>         0.1402
     42 H24         4.3941   -2.6142    0.2030 H         1 <0>         0.4192
@<TRIPOS>BOND
     1    1    6 ar
     2    1    2 ar
     3    1   21 1
     4    2    3 ar
     5    2   22 1
     6    3    4 ar
     7    3   23 1
     8    4    5 ar
     9    4    7 1
    10    5    6 ar
    11    5   24 1
    12    6   25 1
    13    7   14 1
    14    7    8 1
    15    7   15 1
    16    8    9 1
    17    8   26 1
    18    8   27 1
    19    9   10 1
    20    9   12 1
    21    9   11 1
    22   11   12 1
    23   11   28 1
    24   11   29 1
    25   12   13 1
    26   12   14 1
    27   14   30 1
    28   14   31 1
    29   15   20 1
    30   15   16 1
    31   15   42 1
    32   16   17 1
    33   16   32 1
    34   16   33 1
    35   17   18 1
    36   17   34 1
    37   17   35 1
    38   18   19 1
    39   18   36 1
    40   18   37 1
    41   19   20 1
    42   19   38 1
    43   19   39 1
    44   20   40 1
    45   20   41 1
@<TRIPOS>MOLECULE
ZINC13642335
   45    48     0     0     0
SMALL
USER_CHARGES

@<TRIPOS>ATOM
      1 C1          0.0042    1.3974   -0.0653 C.ar      1 <0>        -0.1159
      2 C2          1.1699    2.0869   -0.3785 C.ar      1 <0>        -0.1165
      3 C3          2.3768    1.4479   -0.3932 C.ar      1 <0>        -0.1021
      4 C4          2.4423    0.0862   -0.0898 C.ar      1 <0>        -0.0426
      5 C5          1.2592   -0.6183    0.2297 C.ar      1 <0>        -0.0439
      6 C6          0.0362    0.0673    0.2354 C.ar      1 <0>        -0.1062
      7 C7          1.3213   -1.9973    0.5365 C.ar      1 <0>        -0.1102
      8 C8          2.4920   -2.6660    0.5324 C.ar      1 <0>        -0.0919
      9 C9          3.7108   -2.0181    0.2211 C.ar      1 <0>        -0.0575
     10 C10         3.7155   -0.6394   -0.0939 C.ar      1 <0>        -0.0203
     11 C11         4.9178    0.0036   -0.4023 C.ar      1 <0>        -0.1130
     12 C12         6.0865   -0.6961   -0.3989 C.ar      1 <0>        -0.0812
     13 C13         6.0992   -2.0641   -0.0880 C.ar      1 <0>        -0.1189
     14 C14         4.9187   -2.7255    0.2209 C.ar      1 <0>        -0.0423
     15 C15         7.3775   -2.8059   -0.0906 C.2       1 <0>         0.5600
     16 O1          7.4220   -3.9386   -0.5297 O.2       1 <0>        -0.5289
     17 N1          8.4938   -2.2266    0.3938 N.am      1 <0>        -0.5871
     18 C16         8.4381   -0.9113    1.0496 C.3       1 <0>         0.0523
     19 C17         9.1480   -1.0120    2.4038 C.3       1 <0>         0.0406
     20 N2         10.5004   -1.5503    2.2053 N.3       1 <0>        -0.6539
     21 C18        10.4565   -2.9157    1.6653 C.3       1 <0>         0.0190
     22 H1          9.8757   -3.5523    2.3327 H         1 <0>         0.0950
     23 C19         9.7992   -2.8957    0.2862 C.3       1 <0>         0.1291
     24 H2          9.6589   -3.9177   -0.0660 H         1 <0>         0.1400
     25 C20        10.6774   -2.1401   -0.6776 C.2       1 <0>         0.4825
     26 O2         10.4318   -0.9870   -0.9420 O.2       1 <0>        -0.5305
     27 O3         11.7325   -2.7481   -1.2423 O.3       1 <0>        -0.4716
     28 C21        11.8585   -3.4558    1.5489 C.2       1 <0>         0.5056
     29 O4         12.8069   -2.7671    1.8848 O.co2     1 <0>        -0.6717
     30 O5         12.0445   -4.5814    1.1189 O.co2     1 <0>        -0.6794
     31 H3         -0.9392    1.9231   -0.0555 H         1 <0>         0.1235
     32 H4          1.1205    3.1399   -0.6133 H         1 <0>         0.1248
     33 H5          3.2763    1.9929   -0.6386 H         1 <0>         0.1291
     34 H6         -0.8772   -0.4559    0.4769 H         1 <0>         0.1277
     35 H7          0.4115   -2.5261    0.7795 H         1 <0>         0.1278
     36 H8          2.4997   -3.7189    0.7723 H         1 <0>         0.1302
     37 H9          4.9201    1.0562   -0.6439 H         1 <0>         0.1340
     38 H10         7.0119   -0.1932   -0.6381 H         1 <0>         0.1378
     39 H11         4.9321   -3.7786    0.4597 H         1 <0>         0.1402
     40 H12         8.9399   -0.1703    0.4273 H         1 <0>         0.0896
     41 H13         7.3983   -0.6219    1.2019 H         1 <0>         0.0925
     42 H14         9.2133   -0.0219    2.8549 H         1 <0>         0.0860
     43 H15         8.5855   -1.6752    3.0610 H         1 <0>         0.0737
     44 H16        11.0473   -0.9443    1.6123 H         1 <0>         0.3460
     45 H17        12.2352   -2.1838   -1.8455 H         1 <0>         0.3987
@<TRIPOS>BOND
     1    1    6 ar
     2    1    2 ar
     3    1   31 1
     4    2    3 ar
     5    2   32 1
     6    3    4 ar
     7    3   33 1
     8    4   10 ar
     9    4    5 ar
    10    5    6 ar
    11    5    7 ar
    12    6   34 1
    13    7    8 ar
    14    7   35 1
    15    8    9 ar
    16    8   36 1
    17    9   14 ar
    18    9   10 ar
    19   10   11 ar
    20   11   12 ar
    21   11   37 1
    22   12   13 ar
    23   12   38 1
    24   13   14 ar
    25   13   15 1
    26   14   39 1
    27   15   16 2
    28   15   17 am
    29   17   23 1
    30   17   18 1
    31   18   19 1
    32   18   40 1
    33   18   41 1
    34   19   20 1
    35   19   42 1
    36   19   43 1
    37   20   21 1
    38   20   44 1
    39   21   22 1
    40   21   23 1
    41   21   28 1
    42   23   24 1
    43   23   25 1
    44   25   26 2
    45   25   27 1
    46   27   45 1
    47   28   29 2
    48   28   30 1
@<TRIPOS>MOLECULE
ZINC28768623
   27    27     0     0     0
SMALL
USER_CHARGES
(2S,4R)-4-(phosphonomethyl)piperidine-2-carboxylic acid
@<TRIPOS>ATOM
      1 C1         -1.3745   -2.5417   -1.5677 C.3       1 <0>        -0.1674
      2 C2         -1.4183   -4.0649   -1.7090 C.3       1 <0>         0.0024
      3 N1         -2.7510   -4.5544   -1.3342 N.4       1 <0>        -0.5170
      4 C3         -3.0574   -4.2401    0.0671 C.3       1 <0>        -0.0095
      5 H1         -2.2856   -4.7142    0.6913 H         1 <0>         0.1270
      6 C4         -3.0626   -2.7222    0.2615 C.3       1 <0>        -0.1168
      7 C5         -1.6905   -2.1591   -0.1191 C.3       1 <0>        -0.0753
      8 H2         -0.9216   -2.5732    0.5497 H         1 <0>         0.0782
      9 C6         -1.7082   -0.6351    0.0149 C.3       1 <0>        -0.7309
     10 P1          0.0021   -0.0041    0.0020 P.3       1 <0>         2.2817
     11 O1          0.6948   -0.4814   -1.2156 O.2       1 <0>        -1.0838
     12 O2         -0.0198    1.6058    0.0109 O.3       1 <0>        -1.1192
     13 O3          0.7807   -0.5374    1.3064 O.3       1 <0>        -0.9391
     14 C7         -4.4124   -4.7964    0.4218 C.2       1 <0>         0.4598
     15 O4         -5.2035   -5.0629   -0.4516 O.co2     1 <0>        -0.6242
     16 O5         -4.7403   -4.9958    1.7081 O.co2     1 <0>        -0.7122
     17 H3         -2.1197   -2.0880   -2.2377 H         1 <0>         0.0765
     18 H4         -0.3717   -2.1757   -1.8332 H         1 <0>         0.1550
     19 H5         -1.2061   -4.3426   -2.7520 H         1 <0>         0.1238
     20 H6         -0.6633   -4.5163   -1.0486 H         1 <0>         0.1187
     21 H7         -3.5093   -4.0797   -1.9742 H         1 <0>         0.4435
     22 H8         -3.8358   -2.2731   -0.3792 H         1 <0>         0.0761
     23 H9         -3.2777   -2.4881    1.3146 H         1 <0>         0.0998
     24 H10        -2.2661   -0.1995   -0.8271 H         1 <0>         0.0895
     25 H11        -2.1950   -0.3558    0.9610 H         1 <0>         0.0777
     26 H12         1.8317   -0.2583    1.4720 H         1 <0>         0.4463
     27 H13        -2.7912   -5.6457   -1.4659 H         1 <0>         0.4396
@<TRIPOS>BOND
     1    1    7 1
     2    1    2 1
     3    1   17 1
     4    1   18 1
     5    2    3 1
     6    2   19 1
     7    2   20 1
     8    3    4 1
     9    3   21 1
    10    3   27 1
    11    4    5 1
    12    4    6 1
    13    4   14 1
    14    6    7 1
    15    6   22 1
    16    6   23 1
    17    7    8 1
    18    7    9 1
    19    9   10 1
    20    9   24 1
    21    9   25 1
    22   10   11 2
    23   10   12 1
    24   10   13 1
    25   13   26 1
    26   14   15 2
    27   14   16 1
@<TRIPOS>MOLECULE
ZINC17014699
   20    21     0     0     0
SMALL
USER_CHARGES

@<TRIPOS>ATOM
      1 C1         -0.0166    1.3746    0.0096 C.ar      1 <0>        -0.1514
      2 C2          1.1730    2.0868    0.0021 C.ar      1 <0>        -0.0461
      3 C3          2.3871    1.4329   -0.0113 C.ar      1 <0>        -0.1644
      4 C4          2.4310    0.0417   -0.0176 C.ar      1 <0>         0.2091
      5 C5          1.2232   -0.6755   -0.0135 C.ar      1 <0>        -0.2013
      6 C6          0.0021   -0.0041    0.0020 C.ar      1 <0>        -0.0195
      7 C7          1.2775   -2.1549   -0.0307 C.2       1 <0>         0.4660
      8 O1          0.3572   -2.8494    0.3560 O.2       1 <0>        -0.4003
      9 C8          2.5541   -2.7284   -0.5609 C.2       1 <0>         0.0217
     10 N1          2.5930   -3.8522   -1.2215 N.2       1 <0>        -0.1917
     11 O2          3.8292   -4.3492   -1.7009 O.3       1 <0>        -0.3497
     12 C9          3.7767   -1.9256   -0.2817 C.2       1 <0>         0.5450
     13 O3          4.8727   -2.4516   -0.2851 O.2       1 <0>        -0.4687
     14 N2          3.6529   -0.6097   -0.0264 N.am      1 <0>        -0.6497
     15 H1         -0.9597    1.9007    0.0259 H         1 <0>         0.1392
     16 H2          1.1486    3.1665    0.0063 H         1 <0>         0.1387
     17 H3          3.3054    2.0012   -0.0172 H         1 <0>         0.1404
     18 H4         -0.9238   -0.5601    0.0077 H         1 <0>         0.1446
     19 H5          3.7577   -5.1872   -2.1781 H         1 <0>         0.4165
     20 H6          4.4542   -0.0957    0.1596 H         1 <0>         0.4214
@<TRIPOS>BOND
     1    1    6 ar
     2    1    2 ar
     3    1   15 1
     4    2    3 ar
     5    2   16 1
     6    3    4 ar
     7    3   17 1
     8    4   14 1
     9    4    5 ar
    10    5    6 ar
    11    5    7 1
    12    6   18 1
    13    7    8 2
    14    7    9 1
    15    9   10 2
    16    9   12 1
    17   10   11 1
    18   11   19 1
    19   12   13 2
    20   12   14 am
    21   14   20 1
@<TRIPOS>MOLECULE
ZINC17014699
   19    20     0     0     0
SMALL
USER_CHARGES

@<TRIPOS>ATOM
      1 C1         -0.0166    1.3748    0.0096 C.ar      1 <0>        -0.2123
      2 C2          1.1722    2.0909    0.0021 C.ar      1 <0>        -0.0599
      3 C3          2.3876    1.4447   -0.0111 C.ar      1 <0>        -0.1696
      4 C4          2.4367    0.0449   -0.0168 C.ar      1 <0>         0.2610
      5 C5          1.2223   -0.6749   -0.0130 C.ar      1 <0>        -0.2903
      6 C6          0.0021   -0.0041    0.0020 C.ar      1 <0>        -0.0215
      7 C7          1.2851   -2.1517   -0.0304 C.2       1 <0>         0.4211
      8 O1          0.3655   -2.8576    0.3391 O.2       1 <0>        -0.4462
      9 C8          2.5799   -2.7028   -0.5434 C.2       1 <0>         0.0316
     10 N1          2.6519   -3.8349   -1.1918 N.2       1 <0>        -0.2245
     11 O2          1.4778   -4.5891   -1.4321 O.3       1 <0>        -0.3997
     12 C9          3.7750   -1.8689   -0.2622 C.2       1 <0>         0.5079
     13 O3          5.0063   -2.4280   -0.2521 O.3       1 <0>        -0.6243
     14 N2          3.6318   -0.5916   -0.0243 N.2       1 <0>        -0.6420
     15 H1         -0.9604    1.8997    0.0260 H         1 <0>         0.1135
     16 H2          1.1433    3.1705    0.0063 H         1 <0>         0.1152
     17 H3          3.3035    2.0171   -0.0166 H         1 <0>         0.1253
     18 H4         -0.9237   -0.5601    0.0084 H         1 <0>         0.1155
     19 H5          1.6308   -5.4108   -1.9184 H         1 <0>         0.3993
@<TRIPOS>BOND
     1    1    6 ar
     2    1    2 ar
     3    1   15 1
     4    2    3 ar
     5    2   16 1
     6    3    4 ar
     7    3   17 1
     8    4   14 1
     9    4    5 ar
    10    5    6 ar
    11    5    7 1
    12    6   18 1
    13    7    8 2
    14    7    9 1
    15    9   10 2
    16    9   12 1
    17   10   11 1
    18   11   19 1
    19   12   13 1
    20   12   14 2
@<TRIPOS>MOLECULE
ZINC17014699
   19    20     0     0     0
SMALL
USER_CHARGES

@<TRIPOS>ATOM
      1 C1         -0.0166    1.3748    0.0096 C.ar      1 <0>        -0.2151
      2 C2          1.1722    2.0909    0.0021 C.ar      1 <0>        -0.0580
      3 C3          2.3876    1.4447   -0.0111 C.ar      1 <0>        -0.1718
      4 C4          2.4367    0.0449   -0.0168 C.ar      1 <0>         0.2672
      5 C5          1.2223   -0.6749   -0.0130 C.ar      1 <0>        -0.2905
      6 C6          0.0021   -0.0041    0.0020 C.ar      1 <0>        -0.0175
      7 C7          1.2851   -2.1517   -0.0304 C.2       1 <0>         0.4714
      8 O1          0.3655   -2.8576    0.3391 O.2       1 <0>        -0.4521
      9 C8          2.5799   -2.7028   -0.5434 C.2       1 <0>         0.0192
     10 N1          2.6519   -3.8349   -1.1918 N.2       1 <0>        -0.2461
     11 O2          3.9041   -4.3076   -1.6541 O.3       1 <0>        -0.3584
     12 C9          3.7750   -1.8689   -0.2622 C.2       1 <0>         0.4660
     13 O3          5.0063   -2.4280   -0.2521 O.3       1 <0>        -0.6178
     14 N2          3.6318   -0.5916   -0.0243 N.2       1 <0>        -0.6560
     15 H1         -0.9604    1.8997    0.0260 H         1 <0>         0.1140
     16 H2          1.1433    3.1705    0.0063 H         1 <0>         0.1146
     17 H3          3.3035    2.0171   -0.0166 H         1 <0>         0.1240
     18 H4         -0.9237   -0.5601    0.0084 H         1 <0>         0.1173
     19 H5          3.8571   -5.1525   -2.1221 H         1 <0>         0.3896
@<TRIPOS>BOND
     1    1    6 ar
     2    1    2 ar
     3    1   15 1
     4    2    3 ar
     5    2   16 1
     6    3    4 ar
     7    3   17 1
     8    4   14 1
     9    4    5 ar
    10    5    6 ar
    11    5    7 1
    12    6   18 1
    13    7    8 2
    14    7    9 1
    15    9   10 2
    16    9   12 1
    17   10   11 1
    18   11   19 1
    19   12   13 1
    20   12   14 2
@<TRIPOS>MOLECULE
ZINC17014699
   19    20     0     0     0
SMALL
USER_CHARGES

@<TRIPOS>ATOM
      1 C1         -0.0166    1.3746    0.0096 C.ar      1 <0>        -0.1660
      2 C2          1.1730    2.0868    0.0021 C.ar      1 <0>        -0.0695
      3 C3          2.3871    1.4329   -0.0113 C.ar      1 <0>        -0.1783
      4 C4          2.4310    0.0417   -0.0176 C.ar      1 <0>         0.2138
      5 C5          1.2232   -0.6755   -0.0135 C.ar      1 <0>        -0.1895
      6 C6          0.0021   -0.0041    0.0020 C.ar      1 <0>        -0.0352
      7 C7          1.2775   -2.1549   -0.0307 C.2       1 <0>         0.4243
      8 O1          0.3569   -2.8494    0.3553 O.2       1 <0>        -0.4387
      9 C8          2.5541   -2.7284   -0.5609 C.2       1 <0>        -0.2007
     10 N1          2.5930   -3.8522   -1.2215 N.2       1 <0>        -0.2038
     11 O2          1.3990   -4.5753   -1.4593 O.3       1 <0>        -0.4841
     12 C9          3.7767   -1.9256   -0.2817 C.2       1 <0>         0.5908
     13 O3          4.8727   -2.4516   -0.2851 O.2       1 <0>        -0.5242
     14 N2          3.6529   -0.6097   -0.0264 N.am      1 <0>        -0.6596
     15 H1         -0.9597    1.9007    0.0259 H         1 <0>         0.1259
     16 H2          1.1486    3.1665    0.0063 H         1 <0>         0.1257
     17 H3          3.3054    2.0012   -0.0172 H         1 <0>         0.1288
     18 H4         -0.9238   -0.5601    0.0077 H         1 <0>         0.1343
     19 H5          4.4542   -0.0957    0.1596 H         1 <0>         0.4058
@<TRIPOS>BOND
     1    1    6 ar
     2    1    2 ar
     3    1   15 1
     4    2    3 ar
     5    2   16 1
     6    3    4 ar
     7    3   17 1
     8    4   14 1
     9    4    5 ar
    10    5    6 ar
    11    5    7 1
    12    6   18 1
    13    7    8 2
    14    7    9 1
    15    9   10 2
    16    9   12 1
    17   10   11 1
    18   12   13 2
    19   12   14 am
    20   14   19 1
@<TRIPOS>MOLECULE
ZINC17014699
   19    20     0     0     0
SMALL
USER_CHARGES
(3Z)-3-hydroxyimino-1H-quinoline-2,4-dione
@<TRIPOS>ATOM
      1 C1         -0.0167    1.3824    0.0096 C.ar      1 <0>        -0.1752
      2 C2          0.0021   -0.0041    0.0020 C.ar      1 <0>        -0.0626
      3 C3          1.1962   -0.6937   -0.0153 C.ar      1 <0>        -0.1851
      4 C4          2.4030   -0.0003   -0.0247 C.ar      1 <0>         0.2359
      5 C5          2.3790    1.4042   -0.0130 C.ar      1 <0>        -0.2002
      6 C6          1.1662    2.0906    0.0022 C.ar      1 <0>        -0.0294
      7 C7          3.6665    2.1350   -0.0148 C.2       1 <0>         0.4619
      8 O1          3.7659    3.2874   -0.3903 O.2       1 <0>        -0.4661
      9 C8          4.8359    1.3443    0.4823 C.2       1 <0>        -0.2009
     10 N1          5.8267    1.8944    1.1277 N.2       1 <0>        -0.2087
     11 O2          6.9087    1.0985    1.5758 O.3       1 <0>        -0.4777
     12 C9          4.7890   -0.1146    0.1879 C.2       1 <0>         0.5494
     13 O3          5.8120   -0.7707    0.1623 O.2       1 <0>        -0.4947
     14 N2          3.5990   -0.6978   -0.0489 N.am      1 <0>        -0.6793
     15 H1         -0.9599    1.9085    0.0170 H         1 <0>         0.1254
     16 H2         -0.9295   -0.5504    0.0094 H         1 <0>         0.1249
     17 H3          1.1949   -1.7736   -0.0219 H         1 <0>         0.1287
     18 H4          1.1531    3.1705    0.0084 H         1 <0>         0.1333
     19 H5          3.6028   -1.7756   -0.2687 H         1 <0>         0.4203
@<TRIPOS>BOND
     1    1    6 ar
     2    1    2 ar
     3    1   15 1
     4    2    3 ar
     5    2   16 1
     6    3    4 ar
     7    3   17 1
     8    4   14 1
     9    4    5 ar
    10    5    6 ar
    11    5    7 1
    12    6   18 1
    13    7    8 2
    14    7    9 1
    15    9   10 2
    16    9   12 1
    17   10   11 1
    18   12   13 2
    19   12   14 am
    20   14   19 1
@<TRIPOS>MOLECULE
ZINC02567709
   47    49     0     0     0
SMALL
USER_CHARGES
1-(4-methyl-1-phenyl-cyclohexyl)piperidine
@<TRIPOS>ATOM
      1 C1         -0.9036   -0.3045   -1.2423 C.3       1 <0>        -0.1574
      2 C2         -0.8822    1.1818   -0.8799 C.3       1 <0>        -0.0993
      3 C3         -1.0800    2.0183   -2.1456 C.3       1 <0>        -0.1323
      4 C4          0.0468    1.7186   -3.1363 C.3       1 <0>        -0.1375
      5 C5          1.3929    2.0688   -2.4988 C.3       1 <0>         0.1200
      6 C6          1.5907    1.2323   -1.2330 C.3       1 <0>        -0.1385
      7 C7          0.4638    1.5319   -0.2424 C.3       1 <0>        -0.1298
      8 C8          2.5028    1.7736   -3.4745 C.ar      1 <0>        -0.1114
      9 C9          3.1872    2.8122   -4.0776 C.ar      1 <0>        -0.1650
     10 C10         4.2085    2.5415   -4.9690 C.ar      1 <0>        -0.1008
     11 C11         4.5384    1.2321   -5.2652 C.ar      1 <0>        -0.0984
     12 C12         3.8504    0.1936   -4.6661 C.ar      1 <0>        -0.0985
     13 C13         2.8326    0.4643   -3.7707 C.ar      1 <0>        -0.0919
     14 C14         0.9503    4.3185   -3.2756 C.3       1 <0>        -0.0359
     15 C15         0.8464    5.7794   -2.8320 C.3       1 <0>        -0.1452
     16 C16         2.2189    6.2614   -2.3538 C.3       1 <0>        -0.1397
     17 C17         2.6998    5.3584   -1.2147 C.3       1 <0>        -0.1447
     18 C18         2.7500    3.9096   -1.7052 C.3       1 <0>        -0.0394
     19 H1         -0.7627   -0.9004   -0.3406 H         1 <0>         0.0649
     20 H2         -1.8625   -0.5540   -1.6965 H         1 <0>         0.0650
     21 H3         -0.1008   -0.5180   -1.9481 H         1 <0>         0.0582
     22 H4         -1.6850    1.3953   -0.1742 H         1 <0>         0.0891
     23 H5         -2.0390    1.7688   -2.5998 H         1 <0>         0.0944
     24 H6         -1.0648    3.0771   -1.8874 H         1 <0>         0.0575
     25 H7         -0.0941    2.3145   -4.0380 H         1 <0>         0.0912
     26 H8          0.0316    0.6597   -3.3945 H         1 <0>         0.1136
     27 H9          2.5496    1.4818   -0.7789 H         1 <0>         0.0896
     28 H10         1.5754    0.1734   -1.4912 H         1 <0>         0.1146
     29 H11         0.4791    2.5908    0.0158 H         1 <0>         0.0558
     30 H12         0.6048    0.9360    0.6593 H         1 <0>         0.0957
     31 H13         2.9265    3.8352   -3.8495 H         1 <0>         0.1422
     32 H14         4.7457    3.3529   -5.4373 H         1 <0>         0.1351
     33 H15         5.3333    1.0206   -5.9650 H         1 <0>         0.1357
     34 H16         4.1079   -0.8294   -4.8978 H         1 <0>         0.1373
     35 H17         2.2949   -0.3471   -3.3029 H         1 <0>         0.1323
     36 H18         1.6591    4.2387   -4.0998 H         1 <0>         0.1453
     37 H19        -0.0284    3.9679   -3.6032 H         1 <0>         0.1337
     38 H20         0.1275    5.8620   -2.0169 H         1 <0>         0.0863
     39 H21         0.5174    6.3926   -3.6710 H         1 <0>         0.1129
     40 H22         2.1402    7.2881   -1.9964 H         1 <0>         0.0958
     41 H23         2.9296    6.2166   -3.1791 H         1 <0>         0.0810
     42 H24         2.0100    5.4343   -0.3741 H         1 <0>         0.0850
     43 H25         3.6953    5.6703   -0.8986 H         1 <0>         0.1122
     44 H26         3.0784    3.2621   -0.8922 H         1 <0>         0.1275
     45 H27         3.4503    3.8320   -2.5368 H         1 <0>         0.1541
     46 N1          1.3941    3.4990   -2.1281 N.4       1 <0>        -0.3832
     47 H28         0.7441    3.6412   -1.3461 H         1 <0>         0.4231
@<TRIPOS>BOND
     1    1    2 1
     2    1   19 1
     3    1   20 1
     4    1   21 1
     5    2    7 1
     6    2    3 1
     7    2   22 1
     8    3    4 1
     9    3   23 1
    10    3   24 1
    11    4    5 1
    12    4   25 1
    13    4   26 1
    14    5    6 1
    15    5    8 1
    16    5   46 1
    17    6    7 1
    18    6   27 1
    19    6   28 1
    20    7   29 1
    21    7   30 1
    22    8   13 ar
    23    8    9 ar
    24    9   10 ar
    25    9   31 1
    26   10   11 ar
    27   10   32 1
    28   11   12 ar
    29   11   33 1
    30   12   13 ar
    31   12   34 1
    32   13   35 1
    33   14   15 1
    34   14   36 1
    35   14   37 1
    36   14   46 1
    37   15   16 1
    38   15   38 1
    39   15   39 1
    40   16   17 1
    41   16   40 1
    42   16   41 1
    43   17   18 1
    44   17   42 1
    45   17   43 1
    46   18   44 1
    47   18   45 1
    48   18   46 1
    49   46   47 1
@<TRIPOS>MOLECULE
ZINC13642369
   45    48     0     0     0
SMALL
USER_CHARGES

@<TRIPOS>ATOM
      1 C1          1.8952    0.2071    6.1843 C.ar      1 <0>        -0.1160
      2 C2          3.0757    0.9177    6.0014 C.ar      1 <0>        -0.1167
      3 C3          4.0749    0.4213    5.2137 C.ar      1 <0>        -0.1021
      4 C4          3.9104   -0.8147    4.5846 C.ar      1 <0>        -0.0428
      5 C5          2.7115   -1.5406    4.7685 C.ar      1 <0>        -0.0438
      6 C6          1.7051   -1.0025    5.5831 C.ar      1 <0>        -0.1061
      7 C7          2.5406   -2.7919    4.1324 C.ar      1 <0>        -0.1103
      8 C8          3.5015   -3.3173    3.3461 C.ar      1 <0>        -0.0916
      9 C9          4.7238   -2.6405    3.1221 C.ar      1 <0>        -0.0568
     10 C10         4.9558   -1.3850    3.7306 C.ar      1 <0>        -0.0215
     11 C11         6.1620   -0.7136    3.5111 C.ar      1 <0>        -0.1119
     12 C12         7.1160   -1.2675    2.7120 C.ar      1 <0>        -0.1114
     13 C13         6.9018   -2.5123    2.1015 C.ar      1 <0>        -0.1167
     14 C14         5.7124   -3.1985    2.3031 C.ar      1 <0>        -0.0372
     15 C15         7.9489   -3.0961    1.2371 C.2       1 <0>         0.5503
     16 O1          8.0360   -4.3028    1.1183 O.2       1 <0>        -0.5128
     17 N1          8.8072   -2.2906    0.5805 N.am      1 <0>        -0.5941
     18 C16         8.7620   -0.8317    0.7617 C.3       1 <0>         0.0703
     19 C17         8.7050   -0.1712   -0.6199 C.3       1 <0>         0.0354
     20 N2          9.8212   -0.6611   -1.4397 N.3       1 <0>        -0.6590
     21 C18         9.7154   -2.1074   -1.6745 C.3       1 <0>         0.0200
     22 H1          8.7573   -2.3305   -2.1438 H         1 <0>         0.0486
     23 C19         9.8178   -2.8477   -0.3314 C.3       1 <0>         0.1793
     24 H2         10.8117   -2.7064    0.0932 H         1 <0>         0.1049
     25 C20         9.5563   -4.3171   -0.5401 C.2       1 <0>         0.5184
     26 O2          8.5088   -4.6823   -1.0189 O.2       1 <0>        -0.5086
     27 O3         10.4871   -5.2202   -0.1940 O.3       1 <0>        -0.5034
     28 C21        10.8347   -2.5532   -2.5796 C.2       1 <0>         0.4983
     29 O4         11.7463   -1.7879   -2.8442 O.co2     1 <0>        -0.6692
     30 O5         10.8289   -3.6791   -3.0473 O.co2     1 <0>        -0.6828
     31 H3          1.1195    0.6163    6.8146 H         1 <0>         0.1234
     32 H4          3.2042    1.8736    6.4874 H         1 <0>         0.1249
     33 H5          4.9879    0.9819    5.0778 H         1 <0>         0.1294
     34 H6          0.7828   -1.5438    5.7340 H         1 <0>         0.1276
     35 H7          1.6209   -3.3385    4.2799 H         1 <0>         0.1279
     36 H8          3.3349   -4.2758    2.8772 H         1 <0>         0.1304
     37 H9          6.3377    0.2456    3.9753 H         1 <0>         0.1353
     38 H10         8.0457   -0.7434    2.5466 H         1 <0>         0.1631
     39 H11         5.5507   -4.1565    1.8315 H         1 <0>         0.1419
     40 H12         7.8746   -0.5611    1.3338 H         1 <0>         0.1259
     41 H13         9.6564   -0.5004    1.2893 H         1 <0>         0.0856
     42 H14         7.7610   -0.4214   -1.1040 H         1 <0>         0.0303
     43 H15         8.7822    0.9104   -0.5094 H         1 <0>         0.0868
     44 H16         9.8781   -0.1565   -2.3116 H         1 <0>         0.3558
     45 H17        10.2292   -6.1363   -0.3653 H         1 <0>         0.4011
@<TRIPOS>BOND
     1    1    6 ar
     2    1    2 ar
     3    1   31 1
     4    2    3 ar
     5    2   32 1
     6    3    4 ar
     7    3   33 1
     8    4   10 ar
     9    4    5 ar
    10    5    6 ar
    11    5    7 ar
    12    6   34 1
    13    7    8 ar
    14    7   35 1
    15    8    9 ar
    16    8   36 1
    17    9   14 ar
    18    9   10 ar
    19   10   11 ar
    20   11   12 ar
    21   11   37 1
    22   12   13 ar
    23   12   38 1
    24   13   14 ar
    25   13   15 1
    26   14   39 1
    27   15   16 2
    28   15   17 am
    29   17   23 1
    30   17   18 1
    31   18   19 1
    32   18   40 1
    33   18   41 1
    34   19   20 1
    35   19   42 1
    36   19   43 1
    37   20   21 1
    38   20   44 1
    39   21   22 1
    40   21   23 1
    41   21   28 1
    42   23   24 1
    43   23   25 1
    44   25   26 2
    45   25   27 1
    46   27   45 1
    47   28   29 2
    48   28   30 1
@<TRIPOS>MOLECULE
ZINC22033348
   32    32     0     0     0
SMALL
USER_CHARGES

@<TRIPOS>ATOM
      1 C1         -0.0178    1.4646    0.0101 C.3       1 <0>        -0.0020
      2 C2          1.4177    1.9945   -0.0008 C.3       1 <0>         0.0198
      3 N1          2.1318    1.4905    1.1809 N.3       1 <0>        -0.5385
      4 C3          2.1384    0.0209    1.1994 C.3       1 <0>         0.0499
      5 C4          0.6969   -0.4926    1.2004 C.3       1 <0>        -0.0402
      6 H1          0.1830   -0.1311    2.0910 H         1 <0>         0.1380
      7 N2          0.0021   -0.0041    0.0020 N.4       1 <0>        -0.4854
      8 C5          0.7006   -1.9996    1.1995 C.2       1 <0>         0.4915
      9 O1          0.7030   -2.6099    2.2550 O.co2     1 <0>        -0.6375
     10 O2          0.7011   -2.6086    0.1432 O.co2     1 <0>        -0.6728
     11 C6          3.4995    2.0239    1.2366 C.3       1 <0>         0.0598
     12 C7          3.4483    3.5366    1.4599 C.3       1 <0>        -0.0878
     13 C8          4.8727    4.0921    1.5180 C.3       1 <0>        -0.7296
     14 P1          4.8117    5.8945    1.7841 P.3       1 <0>         2.2588
     15 O3          3.9400    6.5476    0.6884 O.2       1 <0>        -1.0979
     16 O4          4.2010    6.1898    3.1722 O.3       1 <0>        -1.0962
     17 O5          6.3027    6.4980    1.7143 O.3       1 <0>        -0.9060
     18 H2         -0.5281    1.8161    0.9069 H         1 <0>         0.1335
     19 H3         -0.5451    1.8257   -0.8730 H         1 <0>         0.1295
     20 H4          1.9241    1.6544   -0.9041 H         1 <0>         0.0538
     21 H5          1.4034    3.0842    0.0203 H         1 <0>         0.1261
     22 H6          2.6566   -0.3516    0.3158 H         1 <0>         0.0531
     23 H7          2.6498   -0.3292    2.0960 H         1 <0>         0.1143
     24 H8         -0.9446   -0.3530   -0.0034 H         1 <0>         0.4239
     25 H9          4.0397    1.5534    2.0581 H         1 <0>         0.0785
     26 H10         4.0105    1.8123    0.2973 H         1 <0>         0.0348
     27 H11         2.9080    4.0071    0.6384 H         1 <0>         0.0717
     28 H12         2.9373    3.7481    2.3992 H         1 <0>         0.0818
     29 H13         5.4130    3.6216    2.3395 H         1 <0>         0.0721
     30 H14         5.3837    3.8805    0.5787 H         1 <0>         0.0665
     31 H15         6.3463    7.4548    1.8476 H         1 <0>         0.4126
     32 H16         0.4846   -0.3292   -0.8223 H         1 <0>         0.4236
@<TRIPOS>BOND
     1    1    7 1
     2    1    2 1
     3    1   18 1
     4    1   19 1
     5    2    3 1
     6    2   20 1
     7    2   21 1
     8    3    4 1
     9    3   11 1
    10    4    5 1
    11    4   22 1
    12    4   23 1
    13    5    6 1
    14    5    7 1
    15    5    8 1
    16    7   24 1
    17    7   32 1
    18    8    9 2
    19    8   10 1
    20   11   12 1
    21   11   25 1
    22   11   26 1
    23   12   13 1
    24   12   27 1
    25   12   28 1
    26   13   14 1
    27   13   29 1
    28   13   30 1
    29   14   15 2
    30   14   16 1
    31   14   17 1
    32   17   31 1
@<TRIPOS>MOLECULE
ZINC22033348
   31    31     0     0     0
SMALL
USER_CHARGES

@<TRIPOS>ATOM
      1 C1         -0.0178    1.4646    0.0101 C.3       1 <0>        -0.0011
      2 C2          1.4177    1.9945   -0.0008 C.3       1 <0>         0.0195
      3 N1          2.1318    1.4905    1.1809 N.3       1 <0>        -0.5376
      4 C3          2.1384    0.0209    1.1994 C.3       1 <0>         0.0487
      5 C4          0.6969   -0.4926    1.2004 C.3       1 <0>        -0.0393
      6 H1          0.1830   -0.1311    2.0910 H         1 <0>         0.1370
      7 N2          0.0021   -0.0041    0.0020 N.4       1 <0>        -0.4842
      8 C5          0.7006   -1.9996    1.1995 C.2       1 <0>         0.4938
      9 O1          0.7030   -2.6099    2.2550 O.co2     1 <0>        -0.6413
     10 O2          0.7011   -2.6086    0.1432 O.co2     1 <0>        -0.6768
     11 C6          3.4995    2.0239    1.2366 C.3       1 <0>         0.0592
     12 C7          3.4483    3.5366    1.4599 C.3       1 <0>        -0.0801
     13 C8          4.8727    4.0921    1.5180 C.3       1 <0>        -0.7273
     14 P1          4.8117    5.8945    1.7841 P.3       1 <0>         2.2124
     15 O3          3.9277    6.5568    0.6730 O.2       1 <0>        -1.1828
     16 O4          4.1924    6.1939    3.1916 O.3       1 <0>        -1.1815
     17 O5          6.2625    6.4818    1.7162 O.3       1 <0>        -1.1868
     18 H2         -0.5281    1.8161    0.9069 H         1 <0>         0.1328
     19 H3         -0.5451    1.8257   -0.8730 H         1 <0>         0.1274
     20 H4          1.9241    1.6544   -0.9041 H         1 <0>         0.0515
     21 H5          1.4034    3.0842    0.0203 H         1 <0>         0.1298
     22 H6          2.6566   -0.3516    0.3158 H         1 <0>         0.0496
     23 H7          2.6498   -0.3292    2.0960 H         1 <0>         0.1120
     24 H8         -0.9446   -0.3530   -0.0034 H         1 <0>         0.4198
     25 H9          4.0397    1.5534    2.0581 H         1 <0>         0.0736
     26 H10         4.0105    1.8123    0.2973 H         1 <0>         0.0302
     27 H11         2.9080    4.0071    0.6384 H         1 <0>         0.0611
     28 H12         2.9373    3.7481    2.3992 H         1 <0>         0.0701
     29 H13         5.4130    3.6216    2.3395 H         1 <0>         0.0460
     30 H14         5.3837    3.8805    0.5787 H         1 <0>         0.0421
     31 H15         0.4846   -0.3292   -0.8223 H         1 <0>         0.4224
@<TRIPOS>BOND
     1    1    7 1
     2    1    2 1
     3    1   18 1
     4    1   19 1
     5    2    3 1
     6    2   20 1
     7    2   21 1
     8    3    4 1
     9    3   11 1
    10    4    5 1
    11    4   22 1
    12    4   23 1
    13    5    6 1
    14    5    7 1
    15    5    8 1
    16    7   24 1
    17    7   31 1
    18    8    9 2
    19    8   10 1
    20   11   12 1
    21   11   25 1
    22   11   26 1
    23   12   13 1
    24   12   27 1
    25   12   28 1
    26   13   14 1
    27   13   29 1
    28   13   30 1
    29   14   15 2
    30   14   16 1
    31   14   17 1
@<TRIPOS>MOLECULE
ZINC13489844
   34    36     0     0     0
SMALL
USER_CHARGES
2-(2-methyl-4-pyridyl)-3,4-dihydro-1H-isoquinoline
@<TRIPOS>ATOM
      1 C1         -4.2009    1.6778   -2.5678 C.3       1 <0>        -0.1520
      2 C2         -2.7680    2.0857   -2.3411 C.ar      1 <0>         0.2000
      3 C3         -2.0744    1.5677   -1.2675 C.ar      1 <0>        -0.1680
      4 C4         -0.7507    1.9568   -1.0646 C.ar      1 <0>         0.2512
      5 C5         -0.1786    2.8505   -1.9701 C.ar      1 <0>        -0.2002
      6 C6         -0.9386    3.3173   -3.0214 C.ar      1 <0>         0.1720
      7 N1         -0.0178    1.4621    0.0101 N.pl3     1 <0>        -0.4671
      8 C7          1.3555    1.9907   -0.0002 C.3       1 <0>         0.0333
      9 C8          1.9891    1.7224    1.3651 C.3       1 <0>        -0.0806
     10 C9          1.8074    0.2741    1.7407 C.ar      1 <0>        -0.0741
     11 C10         2.5980   -0.2512    2.7517 C.ar      1 <0>        -0.1145
     12 C11         2.4578   -1.5705    3.1325 C.ar      1 <0>        -0.1046
     13 C12         1.5244   -2.3726    2.5024 C.ar      1 <0>        -0.1138
     14 C13         0.7387   -1.8514    1.4945 C.ar      1 <0>        -0.1073
     15 C14         0.8791   -0.5259    1.1098 C.ar      1 <0>        -0.1024
     16 C15         0.0021   -0.0041    0.0020 C.3       1 <0>         0.1018
     17 H1         -4.2305    0.7911   -3.2009 H         1 <0>         0.1151
     18 H2         -4.6715    1.4562   -1.6099 H         1 <0>         0.1144
     19 H3         -4.7372    2.4912   -3.0565 H         1 <0>         0.0981
     20 H4         -2.5511    0.8740   -0.5907 H         1 <0>         0.1842
     21 H5          0.8454    3.1718   -1.8495 H         1 <0>         0.1873
     22 H6         -0.5039    4.0095   -3.7274 H         1 <0>         0.1975
     23 H7          1.9344    1.4910   -0.7769 H         1 <0>         0.0763
     24 H8          1.3334    3.0639   -0.1892 H         1 <0>         0.1025
     25 H9          1.5126    2.3533    2.1155 H         1 <0>         0.0931
     26 H10         3.0532    1.9539    1.3204 H         1 <0>         0.0977
     27 H11         3.3271    0.3754    3.2439 H         1 <0>         0.1284
     28 H12         3.0757   -1.9752    3.9204 H         1 <0>         0.1302
     29 H13         1.4102   -3.4049    2.7985 H         1 <0>         0.1304
     30 H14         0.0103   -2.4790    1.0026 H         1 <0>         0.1262
     31 H15        -1.0123   -0.3783    0.1398 H         1 <0>         0.1065
     32 H16         0.3873   -0.3533   -0.9560 H         1 <0>         0.0777
     33 N2         -2.2335    2.9582   -3.2384 N.ar      1 <0>        -0.5121
     34 H17        -2.7742    3.3236   -4.0310 H         1 <0>         0.4731
@<TRIPOS>BOND
     1    1    2 1
     2    1   17 1
     3    1   18 1
     4    1   19 1
     5    2    3 ar
     6    2   33 ar
     7    3    4 ar
     8    3   20 1
     9    4    5 ar
    10    4    7 1
    11    5    6 ar
    12    5   21 1
    13    6   22 1
    14    6   33 ar
    15    7   16 1
    16    7    8 1
    17    8    9 1
    18    8   23 1
    19    8   24 1
    20    9   10 1
    21    9   25 1
    22    9   26 1
    23   10   15 ar
    24   10   11 ar
    25   11   12 ar
    26   11   27 1
    27   12   13 ar
    28   12   28 1
    29   13   14 ar
    30   13   29 1
    31   14   15 ar
    32   14   30 1
    33   15   16 1
    34   16   31 1
    35   16   32 1
    36   33   34 1
@<TRIPOS>MOLECULE
ZINC38347206
   50    51     0     0     0
SMALL
USER_CHARGES

@<TRIPOS>ATOM
      1 C1          1.0527   -2.4116    0.3940 C.3       1 <0>        -0.6701
      2 S1          0.2070   -0.8454    0.0436 S.o2      1 <0>         2.6075
      3 O1         -1.1569   -1.0862   -0.2744 O.2       1 <0>        -0.9479
      4 O2          0.5635    0.1308    1.0127 O.2       1 <0>        -0.9468
      5 N1          0.8811   -0.3045   -1.3689 N.pl3     1 <0>        -1.0650
      6 C2          2.2405    0.0243   -1.4145 C.ar      1 <0>         0.0936
      7 C3          2.6894    1.2050   -0.8375 C.ar      1 <0>        -0.0592
      8 C4          4.0313    1.5285   -0.8825 C.ar      1 <0>        -0.1331
      9 C5          4.9305    0.6745   -1.5038 C.ar      1 <0>         0.1280
     10 C6          4.4830   -0.5047   -2.0807 C.ar      1 <0>        -0.2030
     11 C7          3.1422   -0.8326   -2.0316 C.ar      1 <0>        -0.0774
     12 O3          6.2518    0.9939   -1.5476 O.3       1 <0>        -0.2992
     13 C8          7.1214    0.0687   -2.2033 C.3       1 <0>         0.0278
     14 C9          8.5573    0.5945   -2.1523 C.3       1 <0>         0.0851
     15 H1          8.5919    1.5983   -2.5756 H         1 <0>         0.1370
     16 C10         9.4685   -0.3315   -2.9605 C.3       1 <0>        -0.0419
     17 N2         10.8472    0.1734   -2.9115 N.4       1 <0>        -0.5037
     18 C11        11.7221   -0.7157   -3.6874 C.3       1 <0>        -0.0079
     19 C12        13.1580   -0.1899   -3.6364 C.3       1 <0>        -0.1014
     20 C13        14.0555   -1.1020   -4.4325 C.ar      1 <0>        -0.0940
     21 C14        14.6675   -2.1784   -3.8172 C.ar      1 <0>        -0.0928
     22 C15        15.4912   -3.0153   -4.5459 C.ar      1 <0>        -0.0928
     23 C16        15.7034   -2.7766   -5.8920 C.ar      1 <0>        -0.0217
     24 C17        15.0903   -1.6991   -6.5082 C.ar      1 <0>        -0.0312
     25 C18        14.2619   -0.8653   -5.7783 C.ar      1 <0>        -0.0900
     26 Cl1        15.3560   -1.3978   -8.1971 Cl        1 <0>        -0.0292
     27 Cl2        16.7384   -3.8272   -6.8078 Cl        1 <0>        -0.0269
     28 O4          9.0020    0.6344   -0.7948 O.3       1 <0>        -0.5428
     29 H2          0.9202   -3.0921   -0.4472 H         1 <0>         0.1300
     30 H3          2.1156   -2.2244    0.5460 H         1 <0>         0.1260
     31 H4          0.6302   -2.8593    1.2935 H         1 <0>         0.1344
     32 H5          0.3337   -0.2155   -2.1647 H         1 <0>         0.4270
     33 H6          1.9894    1.8702   -0.3540 H         1 <0>         0.1492
     34 H7          4.3806    2.4468   -0.4341 H         1 <0>         0.1422
     35 H8          5.1838   -1.1689   -2.5646 H         1 <0>         0.1306
     36 H9          2.7946   -1.7531   -2.4767 H         1 <0>         0.1362
     37 H10         7.0701   -0.8971   -1.7006 H         1 <0>         0.0781
     38 H11         6.8131   -0.0458   -3.2425 H         1 <0>         0.0834
     39 H12         9.4340   -1.3353   -2.5371 H         1 <0>         0.1405
     40 H13         9.1293   -0.3619   -3.9959 H         1 <0>         0.1479
     41 H14        10.8792    1.1026   -3.3034 H         1 <0>         0.4322
     42 H15        11.6875   -1.7195   -3.2641 H         1 <0>         0.1361
     43 H16        11.3829   -0.7462   -4.7229 H         1 <0>         0.1363
     44 H17        13.1926    0.8139   -4.0598 H         1 <0>         0.1025
     45 H18        13.4972   -0.1594   -2.6010 H         1 <0>         0.1038
     46 H19        14.5020   -2.3650   -2.7664 H         1 <0>         0.1419
     47 H20        15.9694   -3.8555   -4.0645 H         1 <0>         0.1507
     48 H21        13.7801   -0.0269   -6.2593 H         1 <0>         0.1452
     49 H22         8.9975   -0.2262   -0.3540 H         1 <0>         0.3903
     50 H23        11.1612    0.2016   -1.9530 H         1 <0>         0.4345
@<TRIPOS>BOND
     1    1    2 1
     2    1   29 1
     3    1   30 1
     4    1   31 1
     5    2    3 2
     6    2    4 2
     7    2    5 1
     8    5    6 1
     9    5   32 1
    10    6   11 ar
    11    6    7 ar
    12    7    8 ar
    13    7   33 1
    14    8    9 ar
    15    8   34 1
    16    9   10 ar
    17    9   12 1
    18   10   11 ar
    19   10   35 1
    20   11   36 1
    21   12   13 1
    22   13   14 1
    23   13   37 1
    24   13   38 1
    25   14   15 1
    26   14   16 1
    27   14   28 1
    28   16   17 1
    29   16   39 1
    30   16   40 1
    31   17   18 1
    32   17   41 1
    33   17   50 1
    34   18   19 1
    35   18   42 1
    36   18   43 1
    37   19   20 1
    38   19   44 1
    39   19   45 1
    40   20   25 ar
    41   20   21 ar
    42   21   22 ar
    43   21   46 1
    44   22   23 ar
    45   22   47 1
    46   23   24 ar
    47   23   27 1
    48   24   25 ar
    49   24   26 1
    50   25   48 1
    51   28   49 1
@<TRIPOS>MOLECULE
ZINC38450402
   50    51     0     0     0
SMALL
USER_CHARGES

@<TRIPOS>ATOM
      1 C1          1.0527   -2.4116    0.3940 C.3       1 <0>        -0.6701
      2 S1          0.2070   -0.8454    0.0436 S.o2      1 <0>         2.6076
      3 O1         -1.1569   -1.0862   -0.2744 O.2       1 <0>        -0.9478
      4 O2          0.5635    0.1308    1.0127 O.2       1 <0>        -0.9469
      5 N1          0.8811   -0.3045   -1.3689 N.pl3     1 <0>        -1.0650
      6 C2          2.2405    0.0243   -1.4145 C.ar      1 <0>         0.0936
      7 C3          2.6894    1.2050   -0.8375 C.ar      1 <0>        -0.0591
      8 C4          4.0313    1.5285   -0.8825 C.ar      1 <0>        -0.1332
      9 C5          4.9305    0.6745   -1.5038 C.ar      1 <0>         0.1280
     10 C6          4.4830   -0.5047   -2.0807 C.ar      1 <0>        -0.2030
     11 C7          3.1422   -0.8326   -2.0316 C.ar      1 <0>        -0.0774
     12 O3          6.2518    0.9939   -1.5476 O.3       1 <0>        -0.2992
     13 C8          7.1214    0.0687   -2.2033 C.3       1 <0>         0.0277
     14 C9          8.5573    0.5945   -2.1523 C.3       1 <0>         0.0854
     15 H1          8.8350    0.7932   -1.1171 H         1 <0>         0.1360
     16 C10         9.5048   -0.4517   -2.7426 C.3       1 <0>        -0.0419
     17 N2         10.8935    0.0009   -2.5852 N.4       1 <0>        -0.5042
     18 C11        11.8032   -1.0036   -3.1520 C.3       1 <0>        -0.0079
     19 C12        13.2495   -0.5322   -2.9880 C.3       1 <0>        -0.1015
     20 C13        14.1828   -1.5627   -3.5694 C.ar      1 <0>        -0.0940
     21 C14        14.6641   -2.5860   -2.7739 C.ar      1 <0>        -0.0928
     22 C15        15.5204   -3.5315   -3.3058 C.ar      1 <0>        -0.0928
     23 C16        15.8961   -3.4545   -4.6351 C.ar      1 <0>        -0.0217
     24 C17        15.4138   -2.4301   -5.4317 C.ar      1 <0>        -0.0312
     25 C18        14.5526   -1.4875   -4.8989 C.ar      1 <0>        -0.0900
     26 Cl1        15.8847   -2.3318   -7.0997 Cl        1 <0>        -0.0292
     27 Cl2        16.9721   -4.6415   -5.3036 Cl        1 <0>        -0.0269
     28 O4          8.6495    1.8023   -2.9104 O.3       1 <0>        -0.5423
     29 H2          0.9202   -3.0921   -0.4472 H         1 <0>         0.1301
     30 H3          2.1156   -2.2244    0.5460 H         1 <0>         0.1260
     31 H4          0.6302   -2.8593    1.2935 H         1 <0>         0.1343
     32 H5          0.3337   -0.2155   -2.1647 H         1 <0>         0.4270
     33 H6          1.9894    1.8702   -0.3540 H         1 <0>         0.1492
     34 H7          4.3806    2.4468   -0.4341 H         1 <0>         0.1422
     35 H8          5.1838   -1.1689   -2.5646 H         1 <0>         0.1307
     36 H9          2.7946   -1.7531   -2.4767 H         1 <0>         0.1362
     37 H10         7.0701   -0.8971   -1.7006 H         1 <0>         0.0829
     38 H11         6.8131   -0.0458   -3.2425 H         1 <0>         0.0786
     39 H12         9.3702   -1.3993   -2.2210 H         1 <0>         0.1472
     40 H13         9.2841   -0.5854   -3.8017 H         1 <0>         0.1411
     41 H14        11.0181    0.8781   -3.0680 H         1 <0>         0.4351
     42 H15        11.6686   -1.9512   -2.6304 H         1 <0>         0.1367
     43 H16        11.5825   -1.1373   -4.2110 H         1 <0>         0.1357
     44 H17        13.3841    0.4154   -3.5096 H         1 <0>         0.1025
     45 H18        13.4702   -0.3985   -1.9289 H         1 <0>         0.1038
     46 H19        14.3710   -2.6464   -1.7362 H         1 <0>         0.1419
     47 H20        15.8965   -4.3302   -2.6837 H         1 <0>         0.1507
     48 H21        14.1728   -0.6904   -5.5209 H         1 <0>         0.1451
     49 H22         8.4161    1.7000   -3.8432 H         1 <0>         0.3910
     50 H23        11.0978    0.1246   -1.6048 H         1 <0>         0.4317
@<TRIPOS>BOND
     1    1    2 1
     2    1   29 1
     3    1   30 1
     4    1   31 1
     5    2    3 2
     6    2    4 2
     7    2    5 1
     8    5    6 1
     9    5   32 1
    10    6   11 ar
    11    6    7 ar
    12    7    8 ar
    13    7   33 1
    14    8    9 ar
    15    8   34 1
    16    9   10 ar
    17    9   12 1
    18   10   11 ar
    19   10   35 1
    20   11   36 1
    21   12   13 1
    22   13   14 1
    23   13   37 1
    24   13   38 1
    25   14   15 1
    26   14   16 1
    27   14   28 1
    28   16   17 1
    29   16   39 1
    30   16   40 1
    31   17   18 1
    32   17   41 1
    33   17   50 1
    34   18   19 1
    35   18   42 1
    36   18   43 1
    37   19   20 1
    38   19   44 1
    39   19   45 1
    40   20   25 ar
    41   20   21 ar
    42   21   22 ar
    43   21   46 1
    44   22   23 ar
    45   22   47 1
    46   23   24 ar
    47   23   27 1
    48   24   25 ar
    49   24   26 1
    50   25   48 1
    51   28   49 1
@<TRIPOS>MOLECULE
ZINC00014669
   52    54     0     0     0
SMALL
USER_CHARGES

@<TRIPOS>ATOM
      1 C1         -0.0187    1.5258    0.0104 C.3       1 <0>        -0.1955
      2 C2          0.0021   -0.0041    0.0020 C.3       1 <0>        -0.0083
      3 H1         -1.0205   -0.3814    0.0098 H         1 <0>         0.1468
      4 C3          0.7182   -0.4975   -1.2568 C.3       1 <0>         0.1400
      5 H2          0.8116   -1.5829   -1.2198 H         1 <0>         0.1310
      6 C4         -0.0771   -0.1029   -2.4745 C.ar      1 <0>        -0.1512
      7 C5          0.0941    1.1497   -3.0345 C.ar      1 <0>        -0.0890
      8 C6         -0.6341    1.5140   -4.1505 C.ar      1 <0>        -0.1398
      9 C7         -1.5374    0.6217   -4.7096 C.ar      1 <0>         0.1316
     10 C8         -1.7070   -0.6346   -4.1460 C.ar      1 <0>        -0.1402
     11 C9         -0.9726   -0.9960   -3.0331 C.ar      1 <0>        -0.0838
     12 O1         -2.2553    0.9780   -5.8071 O.3       1 <0>        -0.4970
     13 O2          2.0188    0.0904   -1.3262 O.3       1 <0>        -0.5453
     14 N1          0.7126   -0.4907    1.1921 N.4       1 <0>        -0.3761
     15 C10         0.7394   -1.9582    1.1781 C.3       1 <0>        -0.0130
     16 C11         1.5480   -2.4687    2.3727 C.3       1 <0>        -0.1408
     17 C12         0.8958   -1.9809    3.6696 C.3       1 <0>        -0.0939
     18 C13         0.8055   -0.4524    3.6405 C.3       1 <0>        -0.1446
     19 C14         0.0245   -0.0166    2.3989 C.3       1 <0>        -0.0111
     20 C15         1.7430   -2.4207    4.8653 C.3       1 <0>        -0.0745
     21 C16         1.0387   -2.0476    6.1443 C.ar      1 <0>        -0.0945
     22 C17         1.2668   -0.8138    6.7244 C.ar      1 <0>        -0.1215
     23 C18         0.6208   -0.4716    7.8976 C.ar      1 <0>        -0.1162
     24 C19        -0.2537   -1.3631    8.4905 C.ar      1 <0>        -0.1164
     25 C20        -0.4825   -2.5965    7.9099 C.ar      1 <0>        -0.1138
     26 C21         0.1602   -2.9370    6.7344 C.ar      1 <0>        -0.1161
     27 H3          1.0039    1.9031    0.0027 H         1 <0>         0.0830
     28 H4         -0.5459    1.8868   -0.8726 H         1 <0>         0.1122
     29 H5         -0.5289    1.8773    0.9072 H         1 <0>         0.0916
     30 H6          0.7975    1.8439   -2.5989 H         1 <0>         0.1273
     31 H7         -0.5005    2.4927   -4.5871 H         1 <0>         0.1383
     32 H8         -2.4096   -1.3309   -4.5794 H         1 <0>         0.1385
     33 H9         -1.1011   -1.9755   -2.5967 H         1 <0>         0.1312
     34 H10        -1.8251    0.7616   -6.6457 H         1 <0>         0.4023
     35 H11         2.0123    1.0567   -1.3619 H         1 <0>         0.3863
     36 H12        -0.2795   -2.3404    1.2397 H         1 <0>         0.1288
     37 H13         1.2010   -2.3039    0.2532 H         1 <0>         0.1321
     38 H14         1.5652   -3.5585    2.3616 H         1 <0>         0.1138
     39 H15         2.5673   -2.0873    2.3121 H         1 <0>         0.0906
     40 H16        -0.1053   -2.4035    3.7555 H         1 <0>         0.0907
     41 H17         0.2921   -0.1010    4.5354 H         1 <0>         0.1157
     42 H18         1.8094   -0.0291    3.6061 H         1 <0>         0.0886
     43 H19        -0.0418    1.0711    2.3751 H         1 <0>         0.1320
     44 H20        -0.9792   -0.4402    2.4344 H         1 <0>         0.1280
     45 H21         1.8865   -3.5007    4.8312 H         1 <0>         0.0833
     46 H22         2.7124   -1.9239    4.8261 H         1 <0>         0.0787
     47 H23         1.9500   -0.1173    6.2612 H         1 <0>         0.1195
     48 H24         0.7995    0.4921    8.3512 H         1 <0>         0.1244
     49 H25        -0.7579   -1.0960    9.4075 H         1 <0>         0.1252
     50 H26        -1.1655   -3.2931    8.3733 H         1 <0>         0.1252
     51 H27        -0.0214   -3.8992    6.2788 H         1 <0>         0.1215
     52 H28         1.6582   -0.1389    1.1853 H         1 <0>         0.4240
@<TRIPOS>BOND
     1    1    2 1
     2    1   27 1
     3    1   28 1
     4    1   29 1
     5    2    3 1
     6    2    4 1
     7    2   14 1
     8    4    5 1
     9    4    6 1
    10    4   13 1
    11    6   11 ar
    12    6    7 ar
    13    7    8 ar
    14    7   30 1
    15    8    9 ar
    16    8   31 1
    17    9   10 ar
    18    9   12 1
    19   10   11 ar
    20   10   32 1
    21   11   33 1
    22   12   34 1
    23   13   35 1
    24   14   19 1
    25   14   15 1
    26   14   52 1
    27   15   16 1
    28   15   36 1
    29   15   37 1
    30   16   17 1
    31   16   38 1
    32   16   39 1
    33   17   18 1
    34   17   20 1
    35   17   40 1
    36   18   19 1
    37   18   41 1
    38   18   42 1
    39   19   43 1
    40   19   44 1
    41   20   21 1
    42   20   45 1
    43   20   46 1
    44   21   26 ar
    45   21   22 ar
    46   22   23 ar
    47   22   47 1
    48   23   24 ar
    49   23   48 1
    50   24   25 ar
    51   24   49 1
    52   25   26 ar
    53   25   50 1
    54   26   51 1
@<TRIPOS>MOLECULE
ZINC19796130
   20    21     0     0     0
SMALL
USER_CHARGES

@<TRIPOS>ATOM
      1 C1         -0.0168    1.3873    0.0097 C.ar      1 <0>        -0.1736
      2 C2          1.1692    2.0908    0.0021 C.ar      1 <0>         0.0367
      3 C3          2.3892    1.4254   -0.0135 C.ar      1 <0>        -0.1663
      4 C4          2.4321    0.0486   -0.0218 C.ar      1 <0>         0.0638
      5 C5          1.2385   -0.6785   -0.0139 C.ar      1 <0>        -0.2058
      6 C6          0.0021   -0.0041    0.0020 C.ar      1 <0>         0.2316
      7 N1         -1.1676   -0.7266    0.0088 N.pl3     1 <0>        -0.5818
      8 H1         -2.0149   -0.2546    0.0194 H         1 <0>         0.4278
      9 C7         -1.1664   -2.0925    0.0006 C.2       1 <0>         0.1417
     10 C8         -0.0188   -2.8151   -0.0138 C.2       1 <0>        -0.2806
     11 C9          1.2392   -2.1492   -0.0222 C.2       1 <0>         0.4127
     12 O1          2.2837   -2.7778   -0.0360 O.2       1 <0>        -0.4868
     13 C10        -2.4631   -2.8092    0.0081 C.2       1 <0>         0.5240
     14 O2         -2.4860   -4.0311    0.0010 O.co2     1 <0>        -0.6455
     15 O3         -3.5098   -2.1784    0.0215 O.co2     1 <0>        -0.6718
     16 Cl1         3.9586   -0.7779   -0.0425 Cl        1 <0>        -0.0235
     17 Cl2         1.1379    3.8265    0.0117 Cl        1 <0>        -0.0561
     18 H2         -0.9588    1.9154    0.0260 H         1 <0>         0.1482
     19 H3          3.3091    1.9912   -0.0196 H         1 <0>         0.1458
     20 H4         -0.0593   -3.8944   -0.0192 H         1 <0>         0.1596
@<TRIPOS>BOND
     1    1    6 ar
     2    1    2 ar
     3    1   18 1
     4    2    3 ar
     5    2   17 1
     6    3    4 ar
     7    3   19 1
     8    4    5 ar
     9    4   16 1
    10    5   11 1
    11    5    6 ar
    12    6    7 1
    13    7    8 1
    14    7    9 1
    15    9   10 2
    16    9   13 1
    17   10   11 1
    18   10   20 1
    19   11   12 2
    20   13   14 2
    21   13   15 1
