@<TRIPOS>MOLECULE
ZINC13588699
   16    16     0     0     0
SMALL
USER_CHARGES
(4R)-4-methyl-4,5-dihydrooxazol-2-amine
@<TRIPOS>ATOM
      1 C1          2.7713    0.6258   -1.4002 C.3       1 <0>        -0.1839
      2 C2          2.1705    0.8053   -0.0046 C.3       1 <0>         0.0829
      3 H1          3.0156    1.0301    0.6627 H         1 <0>         0.1487
      4 C3          1.3236   -0.4274    0.3956 C.3       1 <0>         0.0367
      5 O1          0.0021   -0.0041    0.0020 O.3       1 <0>        -0.2745
      6 C4         -0.0162    1.3436    0.0094 C.cat     1 <0>         0.6610
      7 N1          1.1633    1.8841    0.0011 N.pl3     1 <0>        -0.6609
      8 N2         -1.1770    2.0775    0.0191 N.pl3     1 <0>        -0.7969
      9 H2          3.5173   -0.1823   -1.3771 H         1 <0>         0.1017
     10 H3          3.2550    1.5625   -1.7144 H         1 <0>         0.0844
     11 H4          1.9736    0.3682   -2.1124 H         1 <0>         0.0712
     12 H5          1.6802   -1.3112   -0.1537 H         1 <0>         0.1574
     13 H6          1.4211   -0.6038    1.4770 H         1 <0>         0.1277
     14 H7         -1.1328    3.1766    0.0248 H         1 <0>         0.4761
     15 H8         -2.1510    1.5662    0.0211 H         1 <0>         0.4799
     16 H9          1.2665    2.9793   -0.0006 H         1 <0>         0.4886
@<TRIPOS>BOND
     1    1    2 1
     2    1    9 1
     3    1   10 1
     4    1   11 1
     5    2    3 1
     6    2    7 1
     7    2    4 1
     8    4    5 1
     9    4   12 1
    10    4   13 1
    11    5    6 1
    12    6    7 2
    13    6    8 1
    14    7   16 1
    15    8   14 1
    16    8   15 1
@<TRIPOS>MOLECULE
ZINC13588700
   16    16     0     0     0
SMALL
USER_CHARGES
(4S)-4-methyl-4,5-dihydrooxazol-2-amine
@<TRIPOS>ATOM
      1 C1         -0.0127    1.0858    0.0080 C.3       1 <0>        -0.1839
      2 C2         -0.7288    1.5792    1.2668 C.3       1 <0>         0.0829
      3 H1         -1.7624    1.2102    1.1921 H         1 <0>         0.1487
      4 C3          0.0347    1.1475    2.5426 C.3       1 <0>         0.0367
      5 O1          0.8423    2.3147    2.7991 O.3       1 <0>        -0.2744
      6 C4          0.2224    3.3733    2.2406 C.cat     1 <0>         0.6608
      7 N1         -0.6762    3.0513    1.3606 N.pl3     1 <0>        -0.6611
      8 N2          0.5150    4.6737    2.5716 N.pl3     1 <0>        -0.7967
      9 H2         -0.0663   -0.0119   -0.0379 H         1 <0>         0.1016
     10 H3          1.0409    1.4005    0.0384 H         1 <0>         0.0712
     11 H4         -0.4978    1.5141   -0.8815 H         1 <0>         0.0843
     12 H5         -0.6856    0.9305    3.3452 H         1 <0>         0.1277
     13 H6          0.6271    0.2458    2.3280 H         1 <0>         0.1574
     14 H7         -0.0229    5.4998    2.0835 H         1 <0>         0.4762
     15 H8          1.2872    4.8891    3.3248 H         1 <0>         0.4799
     16 H9         -1.2400    3.8375    0.8372 H         1 <0>         0.4887
@<TRIPOS>BOND
     1    1    2 1
     2    1    9 1
     3    1   10 1
     4    1   11 1
     5    2    3 1
     6    2    7 1
     7    2    4 1
     8    4    5 1
     9    4   12 1
    10    4   13 1
    11    5    6 1
    12    6    7 2
    13    6    8 1
    14    7   16 1
    15    8   14 1
    16    8   15 1
@<TRIPOS>MOLECULE
ZINC13588712
   22    22     0     0     0
SMALL
USER_CHARGES
(4S,5S)-4-ethyl-5-methyl-4,5-dihydrooxazol-2-amine
@<TRIPOS>ATOM
      1 C1         -2.4296    5.7222   -0.5201 C.3       1 <0>        -0.1631
      2 C2         -3.0074    4.3931   -1.0104 C.3       1 <0>        -0.1413
      3 C3         -2.7255    3.3018    0.0243 C.3       1 <0>         0.0968
      4 H1         -3.0424    3.7157    0.9929 H         1 <0>         0.1401
      5 C4         -3.4036    1.9695   -0.3784 C.3       1 <0>         0.0682
      6 H2         -3.6579    1.8598   -1.4430 H         1 <0>         0.1397
      7 O1         -2.4031    1.0098    0.0194 O.3       1 <0>        -0.2808
      8 C5         -1.2097    1.6363    0.0167 C.cat     1 <0>         0.6623
      9 N1         -1.2969    2.9307    0.0292 N.pl3     1 <0>        -0.6594
     10 N2         -0.0111    0.9658    0.0074 N.pl3     1 <0>        -0.7983
     11 C6         -4.7057    1.7593    0.3971 C.3       1 <0>        -0.1701
     12 H3         -2.6323    6.5068   -1.2640 H         1 <0>         0.0773
     13 H4         -1.3432    5.6206   -0.3810 H         1 <0>         0.0540
     14 H5         -2.8980    5.9947    0.4372 H         1 <0>         0.0680
     15 H6         -4.0938    4.4947   -1.1495 H         1 <0>         0.1053
     16 H7         -2.5391    4.1205   -1.9677 H         1 <0>         0.0830
     17 H8          0.9340    1.5287    0.0056 H         1 <0>         0.4751
     18 H9          0.0038   -0.1341    0.0018 H         1 <0>         0.4793
     19 H10        -5.1648    0.8075    0.0916 H         1 <0>         0.0923
     20 H11        -5.3983    2.5863    0.1817 H         1 <0>         0.1051
     21 H12        -4.4901    1.7330    1.4754 H         1 <0>         0.0801
     22 H13        -0.3834    3.5434    0.0409 H         1 <0>         0.4865
@<TRIPOS>BOND
     1    1    2 1
     2    1   12 1
     3    1   13 1
     4    1   14 1
     5    2    3 1
     6    2   15 1
     7    2   16 1
     8    3    4 1
     9    3    9 1
    10    3    5 1
    11    5    6 1
    12    5    7 1
    13    5   11 1
    14    7    8 1
    15    8    9 2
    16    8   10 1
    17    9   22 1
    18   10   17 1
    19   10   18 1
    20   11   19 1
    21   11   20 1
    22   11   21 1
@<TRIPOS>MOLECULE
ZINC13588693
   16    16     0     0     0
SMALL
USER_CHARGES
(5R)-5-methyl-4,5-dihydrooxazol-2-amine
@<TRIPOS>ATOM
      1 C1          1.4088    1.6516   -0.0025 C.3       1 <0>        -0.1925
      2 C2         -0.0127    1.0858    0.0080 C.3       1 <0>         0.0568
      3 H1          0.0913   -0.0082    0.0565 H         1 <0>         0.1680
      4 C3         -0.8393    1.6372   -1.1793 C.3       1 <0>         0.0625
      5 N1         -1.5275    2.7892   -0.5647 N.pl3     1 <0>        -0.6591
      6 C4         -1.4315    2.6838    0.7249 C.cat     1 <0>         0.6598
      7 O1         -0.7615    1.5875    1.1341 O.3       1 <0>        -0.2790
      8 N2         -1.9630    3.6050    1.5939 N.pl3     1 <0>        -0.7971
      9 H2          1.9556    1.2531   -0.8698 H         1 <0>         0.1052
     10 H3          1.9265    1.3596    0.9231 H         1 <0>         0.0918
     11 H4          1.3662    2.7488   -0.0683 H         1 <0>         0.0671
     12 H5         -0.1609    1.9257   -1.9957 H         1 <0>         0.1399
     13 H6         -1.5324    0.8608   -1.5355 H         1 <0>         0.1300
     14 H7         -1.8516    3.4654    2.6793 H         1 <0>         0.4800
     15 H8         -2.5001    4.4824    1.2045 H         1 <0>         0.4756
     16 H9         -2.0598    3.6433   -1.0086 H         1 <0>         0.4911
@<TRIPOS>BOND
     1    1    2 1
     2    1    9 1
     3    1   10 1
     4    1   11 1
     5    2    3 1
     6    2    7 1
     7    2    4 1
     8    4    5 1
     9    4   12 1
    10    4   13 1
    11    5    6 2
    12    5   16 1
    13    6    7 1
    14    6    8 1
    15    8   14 1
    16    8   15 1
@<TRIPOS>MOLECULE
ZINC13588694
   16    16     0     0     0
SMALL
USER_CHARGES
(5S)-5-methyl-4,5-dihydrooxazol-2-amine
@<TRIPOS>ATOM
      1 C1          3.4720    0.4055   -0.4146 C.3       1 <0>        -0.1714
      2 C2          2.1664    0.5010    0.3775 C.3       1 <0>         0.0556
      3 H1          2.4412    0.4004    1.4379 H         1 <0>         0.1379
      4 C3          1.3784    1.7785   -0.0016 C.3       1 <0>         0.0627
      5 N1         -0.0155    1.2932    0.0092 N.pl3     1 <0>        -0.6608
      6 C4          0.0021   -0.0041    0.0020 C.cat     1 <0>         0.6623
      7 O1          1.2420   -0.5320   -0.0213 O.3       1 <0>        -0.2820
      8 N2         -1.1383   -0.7693    0.0168 N.pl3     1 <0>        -0.7971
      9 H2          4.1566    1.2033   -0.0907 H         1 <0>         0.1062
     10 H3          3.2588    0.5186   -1.4878 H         1 <0>         0.0787
     11 H4          3.9392   -0.5740   -0.2347 H         1 <0>         0.0919
     12 H5          1.5680    2.5619    0.7470 H         1 <0>         0.1398
     13 H6          1.7047    2.1305   -0.9914 H         1 <0>         0.1299
     14 H7         -1.0644   -1.8668    0.0097 H         1 <0>         0.4800
     15 H8         -2.1256   -0.2847    0.0357 H         1 <0>         0.4758
     16 H9         -0.9755    1.8302    0.0214 H         1 <0>         0.4905
@<TRIPOS>BOND
     1    1    2 1
     2    1    9 1
     3    1   10 1
     4    1   11 1
     5    2    3 1
     6    2    7 1
     7    2    4 1
     8    4    5 1
     9    4   12 1
    10    4   13 1
    11    5    6 2
    12    5   16 1
    13    6    7 1
    14    6    8 1
    15    8   14 1
    16    8   15 1
@<TRIPOS>MOLECULE
ZINC13588695
   19    19     0     0     0
SMALL
USER_CHARGES
(5R)-5-ethyl-4,5-dihydrooxazol-2-amine
@<TRIPOS>ATOM
      1 C1         -0.0187    1.5258    0.0104 C.3       1 <0>        -0.1636
      2 C2          0.0021   -0.0041    0.0020 C.3       1 <0>        -0.1341
      3 C3          0.7182   -0.4975   -1.2568 C.3       1 <0>         0.0564
      4 H1          0.2447    0.0206   -2.1038 H         1 <0>         0.1379
      5 C4          0.7226   -2.0442   -1.3237 C.3       1 <0>         0.0636
      6 N1          2.0681   -2.3231   -1.8646 N.pl3     1 <0>        -0.6609
      7 C5          2.7842   -1.2464   -1.7581 C.cat     1 <0>         0.6617
      8 O1          2.1305   -0.2108   -1.1953 O.3       1 <0>        -0.2790
      9 N2          4.0887   -1.1689   -2.1806 N.pl3     1 <0>        -0.7972
     10 H2         -0.5336    1.8805    0.9154 H         1 <0>         0.0755
     11 H3         -0.5508    1.8901   -0.8808 H         1 <0>         0.0649
     12 H4          1.0133    1.9066    0.0026 H         1 <0>         0.0634
     13 H5          0.5342   -0.3684    0.8932 H         1 <0>         0.0862
     14 H6         -1.0299   -0.3849    0.0099 H         1 <0>         0.1091
     15 H7          0.5695   -2.4553   -0.3149 H         1 <0>         0.1299
     16 H8         -0.0874   -2.3849   -1.9853 H         1 <0>         0.1400
     17 H9          4.6492   -0.2294   -2.0656 H         1 <0>         0.4799
     18 H10         4.5730   -2.0463   -2.6340 H         1 <0>         0.4757
     19 H11         2.5043   -3.2325   -2.3036 H         1 <0>         0.4905
@<TRIPOS>BOND
     1    1    2 1
     2    1   10 1
     3    1   11 1
     4    1   12 1
     5    2    3 1
     6    2   13 1
     7    2   14 1
     8    3    4 1
     9    3    8 1
    10    3    5 1
    11    5    6 1
    12    5   15 1
    13    5   16 1
    14    6    7 2
    15    6   19 1
    16    7    8 1
    17    7    9 1
    18    9   17 1
    19    9   18 1
@<TRIPOS>MOLECULE
ZINC13588696
   19    19     0     0     0
SMALL
USER_CHARGES
(5S)-5-ethyl-4,5-dihydrooxazol-2-amine
@<TRIPOS>ATOM
      1 C1         -1.5459    1.1954    3.5714 C.3       1 <0>        -0.1639
      2 C2         -0.8596    0.5860    2.3473 C.3       1 <0>        -0.1342
      3 C3         -0.8106    1.6214    1.2219 C.3       1 <0>         0.0567
      4 H1         -0.4346    2.5504    1.6753 H         1 <0>         0.1381
      5 C4         -0.0127    1.0858    0.0080 C.3       1 <0>         0.0632
      6 N1         -0.7953    1.6087   -1.1290 N.pl3     1 <0>        -0.6607
      7 C5         -1.9511    1.9980   -0.6865 C.cat     1 <0>         0.6618
      8 O1         -2.1164    1.8164    0.6388 O.3       1 <0>        -0.2796
      9 N2         -2.9177    2.5450   -1.4944 N.pl3     1 <0>        -0.7972
     10 H2         -1.5811    0.4510    4.3805 H         1 <0>         0.0756
     11 H3         -2.5699    1.4968    3.3055 H         1 <0>         0.0634
     12 H4         -0.9801    2.0766    3.9082 H         1 <0>         0.0651
     13 H5          0.1644    0.2847    2.6132 H         1 <0>         0.1089
     14 H6         -1.4253   -0.2952    2.0105 H         1 <0>         0.0868
     15 H7          1.0140    1.4792    0.0416 H         1 <0>         0.1399
     16 H8          0.0145   -0.0133    0.0431 H         1 <0>         0.1298
     17 H9         -3.8809    2.8580   -1.0651 H         1 <0>         0.4799
     18 H10        -2.7287    2.6701   -2.5708 H         1 <0>         0.4757
     19 H11        -0.5551    1.7042   -2.1982 H         1 <0>         0.4905
@<TRIPOS>BOND
     1    1    2 1
     2    1   10 1
     3    1   11 1
     4    1   12 1
     5    2    3 1
     6    2   13 1
     7    2   14 1
     8    3    4 1
     9    3    8 1
    10    3    5 1
    11    5    6 1
    12    5   15 1
    13    5   16 1
    14    6    7 2
    15    6   19 1
    16    7    8 1
    17    7    9 1
    18    9   17 1
    19    9   18 1
@<TRIPOS>MOLECULE
ZINC13588701
   19    19     0     0     0
SMALL
USER_CHARGES
(4R)-4-ethyl-4,5-dihydrooxazol-2-amine
@<TRIPOS>ATOM
      1 C1          3.2818    3.3390    0.7538 C.3       1 <0>        -0.1633
      2 C2          1.8030    2.9697    0.8874 C.3       1 <0>        -0.1425
      3 C3          1.4960    1.7638   -0.0028 C.3       1 <0>         0.0835
      4 H1          1.9160    2.0017   -0.9912 H         1 <0>         0.1386
      5 C4         -0.0175    1.4382    0.0099 C.3       1 <0>         0.0379
      6 O1          0.0021   -0.0041    0.0020 O.3       1 <0>        -0.2752
      7 C5          1.1774   -0.4013    0.5289 C.cat     1 <0>         0.6616
      8 N1          2.0796    0.5306    0.5604 N.pl3     1 <0>        -0.6590
      9 N2          1.3997   -1.6758    0.9896 N.pl3     1 <0>        -0.7971
     10 H2          3.5025    4.2060    1.3938 H         1 <0>         0.0769
     11 H3          3.5037    3.5906   -0.2938 H         1 <0>         0.0680
     12 H4          3.9024    2.4858    1.0653 H         1 <0>         0.0538
     13 H5          1.5811    2.7181    1.9350 H         1 <0>         0.0828
     14 H6          1.1824    3.8228    0.5759 H         1 <0>         0.1058
     15 H7         -0.4764    1.8632    0.9148 H         1 <0>         0.1276
     16 H8         -0.4936    1.8728   -0.8814 H         1 <0>         0.1578
     17 H9          2.3796   -1.9454    1.4104 H         1 <0>         0.4758
     18 H10         0.5978   -2.4270    0.9378 H         1 <0>         0.4799
     19 H11         3.0796    0.3146    0.9646 H         1 <0>         0.4871
@<TRIPOS>BOND
     1    1    2 1
     2    1   10 1
     3    1   11 1
     4    1   12 1
     5    2    3 1
     6    2   13 1
     7    2   14 1
     8    3    4 1
     9    3    8 1
    10    3    5 1
    11    5    6 1
    12    5   15 1
    13    5   16 1
    14    6    7 1
    15    7    8 2
    16    7    9 1
    17    8   19 1
    18    9   17 1
    19    9   18 1
@<TRIPOS>MOLECULE
ZINC13588702
   19    19     0     0     0
SMALL
USER_CHARGES
(4S)-4-ethyl-4,5-dihydrooxazol-2-amine
@<TRIPOS>ATOM
      1 C1         -0.0187    1.5258    0.0104 C.3       1 <0>        -0.1633
      2 C2          0.0021   -0.0041    0.0020 C.3       1 <0>        -0.1425
      3 C3          0.7421   -0.5109    1.2415 C.3       1 <0>         0.0835
      4 H1          0.3071    0.0283    2.0959 H         1 <0>         0.1386
      5 C4          0.6754   -2.0550    1.3326 C.3       1 <0>         0.0379
      6 O1          1.9963   -2.3682    1.8198 O.3       1 <0>        -0.2752
      7 C5          2.8161   -1.3610    1.4592 C.cat     1 <0>         0.6616
      8 N1          2.1939   -0.2733    1.1227 N.pl3     1 <0>        -0.6590
      9 N2          4.1847   -1.4755    1.4490 N.pl3     1 <0>        -0.7971
     10 H2         -0.5507    1.8901   -0.8808 H         1 <0>         0.0769
     11 H3          1.0133    1.9066    0.0026 H         1 <0>         0.0538
     12 H4         -0.5336    1.8805    0.9154 H         1 <0>         0.0681
     13 H5         -1.0299   -0.3849    0.0098 H         1 <0>         0.1058
     14 H6          0.5170   -0.3589   -0.9030 H         1 <0>         0.0827
     15 H7         -0.1262   -2.3470    2.0270 H         1 <0>         0.1578
     16 H8          0.4676   -2.4725    0.3363 H         1 <0>         0.1276
     17 H9          4.8059   -0.6200    1.1453 H         1 <0>         0.4758
     18 H10         4.6596   -2.4227    1.7445 H         1 <0>         0.4799
     19 H11         2.7657    0.6153    0.8170 H         1 <0>         0.4871
@<TRIPOS>BOND
     1    1    2 1
     2    1   10 1
     3    1   11 1
     4    1   12 1
     5    2    3 1
     6    2   13 1
     7    2   14 1
     8    3    4 1
     9    3    8 1
    10    3    5 1
    11    5    6 1
    12    5   15 1
    13    5   16 1
    14    6    7 1
    15    7    8 2
    16    7    9 1
    17    8   19 1
    18    9   17 1
    19    9   18 1
@<TRIPOS>MOLECULE
ZINC13588711
   22    22     0     0     0
SMALL
USER_CHARGES
(4S,5S)-5-ethyl-4-methyl-4,5-dihydrooxazol-2-amine
@<TRIPOS>ATOM
      1 C1          2.9477    3.8827    0.8506 C.3       1 <0>        -0.1631
      2 C2          1.4932    3.4137    0.7778 C.3       1 <0>        -0.1525
      3 C3          1.4197    2.0984   -0.0002 C.3       1 <0>         0.0691
      4 H1          2.2012    1.4481    0.4197 H         1 <0>         0.1681
      5 C4         -0.0187    1.5258    0.0104 C.3       1 <0>         0.0969
      6 H2         -0.6324    1.8161    0.8759 H         1 <0>         0.1492
      7 N1         -0.5676    2.0525   -1.2543 N.pl3     1 <0>        -0.6599
      8 C5          0.4179    2.4773   -1.9835 C.cat     1 <0>         0.6590
      9 O1          1.6275    2.3185   -1.4105 O.3       1 <0>        -0.2747
     10 N2          0.2445    3.0374   -3.2254 N.pl3     1 <0>        -0.7982
     11 C6          0.0021   -0.0041    0.0020 C.3       1 <0>        -0.1817
     12 H3          3.0004    4.8284    1.4100 H         1 <0>         0.0741
     13 H4          3.3346    4.0368   -0.1675 H         1 <0>         0.0629
     14 H5          3.5537    3.1201    1.3617 H         1 <0>         0.0686
     15 H6          1.1063    3.2596    1.7959 H         1 <0>         0.1068
     16 H7          0.8872    4.1763    0.2668 H         1 <0>         0.0743
     17 H8          1.1170    3.3809   -3.8005 H         1 <0>         0.4791
     18 H9         -0.7669    3.1426   -3.6450 H         1 <0>         0.4751
     19 H10        -1.0299   -0.3849    0.0098 H         1 <0>         0.0860
     20 H11         0.5341   -0.3684    0.8932 H         1 <0>         0.1011
     21 H12         0.5170   -0.3588   -0.9030 H         1 <0>         0.0712
     22 H13        -1.5998    2.1269   -1.6273 H         1 <0>         0.4884
@<TRIPOS>BOND
     1    1    2 1
     2    1   12 1
     3    1   13 1
     4    1   14 1
     5    2    3 1
     6    2   15 1
     7    2   16 1
     8    3    4 1
     9    3    9 1
    10    3    5 1
    11    5    6 1
    12    5    7 1
    13    5   11 1
    14    7    8 2
    15    7   22 1
    16    8    9 1
    17    8   10 1
    18   10   17 1
    19   10   18 1
    20   11   19 1
    21   11   20 1
    22   11   21 1
@<TRIPOS>MOLECULE
ZINC13588710
   19    19     0     0     0
SMALL
USER_CHARGES
(4S,5R)-4,5-dimethyl-4,5-dihydrooxazol-2-amine
@<TRIPOS>ATOM
      1 C1          3.2658    1.0747    1.0292 C.3       1 <0>        -0.1807
      2 C2          2.1705    0.8053   -0.0046 C.3       1 <0>         0.0959
      3 H1          2.6821    0.7274   -0.9753 H         1 <0>         0.1393
      4 C3          1.3236   -0.4274    0.3956 C.3       1 <0>         0.0687
      5 H2          1.5964   -1.3776   -0.0868 H         1 <0>         0.1685
      6 O1          0.0021   -0.0041    0.0020 O.3       1 <0>        -0.2783
      7 C4         -0.0162    1.3436    0.0094 C.cat     1 <0>         0.6600
      8 N1          1.1633    1.8841    0.0011 N.pl3     1 <0>        -0.6600
      9 N2         -1.1770    2.0775    0.0191 N.pl3     1 <0>        -0.7983
     10 C5          1.3943   -0.6765    1.9036 C.3       1 <0>        -0.1915
     11 H3          4.0021    0.2578    1.0046 H         1 <0>         0.1018
     12 H4          2.8171    1.1339    2.0318 H         1 <0>         0.0802
     13 H5          3.7656    2.0260    0.7944 H         1 <0>         0.0850
     14 H6         -1.1328    3.1766    0.0248 H         1 <0>         0.4751
     15 H7         -2.1510    1.5662    0.0211 H         1 <0>         0.4793
     16 H8          0.7849   -1.5560    2.1589 H         1 <0>         0.0922
     17 H9          1.0097    0.2040    2.4391 H         1 <0>         0.0683
     18 H10         2.4391   -0.8566    2.1969 H         1 <0>         0.1067
     19 H11         1.2665    2.9793   -0.0006 H         1 <0>         0.4880
@<TRIPOS>BOND
     1    1    2 1
     2    1   11 1
     3    1   12 1
     4    1   13 1
     5    2    3 1
     6    2    8 1
     7    2    4 1
     8    4    5 1
     9    4    6 1
    10    4   10 1
    11    6    7 1
    12    7    8 2
    13    7    9 1
    14    8   19 1
    15    9   14 1
    16    9   15 1
    17   10   16 1
    18   10   17 1
    19   10   18 1
@<TRIPOS>MOLECULE
ZINC19796052
   28    27     0     0     0
SMALL
USER_CHARGES

@<TRIPOS>ATOM
      1 C1         -0.0117    1.5287   -0.1466 C.3       1 <0>        -0.1446
      2 C2          0.0130    0.0014   -0.2331 C.3       1 <0>        -0.1246
      3 C3         -1.4208   -0.5325   -0.2382 C.3       1 <0>        -0.0498
      4 H1         -1.9814   -0.0605   -1.0450 H         1 <0>         0.1365
      5 C4         -1.4005   -2.0248   -0.4467 C.2       1 <0>         0.4883
      6 O1         -1.7056   -2.7722    0.4670 O.co2     1 <0>        -0.6698
      7 O2         -1.0790   -2.4848   -1.5291 O.co2     1 <0>        -0.6325
      8 N1         -2.0618   -0.2264    1.0477 N.4       1 <0>        -0.6145
      9 C5          1.4221    2.0625   -0.1416 C.3       1 <0>         0.1026
     10 N2          1.3984    3.5250   -0.0588 N.pl3     1 <0>        -0.6811
     11 C6          2.5553    4.2182   -0.0399 C.2       1 <0>         0.7149
     12 N3          3.7340    3.5650   -0.0974 N.pl3     1 <0>        -0.8398
     13 N4          2.5335    5.5627    0.0362 N.2       1 <0>        -0.5046
     14 N5          3.6342    6.2311   -0.0411 N.pl3     1 <0>         0.1932
     15 O3          4.0483    6.6853   -1.2058 O.2       1 <0>        -0.2350
     16 O4          4.3437    6.4591    1.0447 O.3       1 <0>        -0.2457
     17 H2         -0.5468    1.9327   -1.0060 H         1 <0>         0.0930
     18 H3         -0.5157    1.8325    0.7708 H         1 <0>         0.0705
     19 H4          0.5171   -0.3025   -1.1506 H         1 <0>         0.1174
     20 H5          0.5481   -0.4026    0.6263 H         1 <0>         0.0885
     21 H6         -1.5428   -0.6633    1.7946 H         1 <0>         0.4324
     22 H7         -2.0754    0.7728    1.1873 H         1 <0>         0.4115
     23 H8          1.9572    1.6586    0.7178 H         1 <0>         0.0859
     24 H9          1.9262    1.7587   -1.0591 H         1 <0>         0.0912
     25 H10         0.5508    3.9948   -0.0175 H         1 <0>         0.4331
     26 H11         3.7538    2.5960   -0.0591 H         1 <0>         0.4203
     27 H12         4.5618    4.0643   -0.1769 H         1 <0>         0.4280
     28 H13        -3.0073   -0.5784    1.0444 H         1 <0>         0.4349
@<TRIPOS>BOND
     1    1    2 1
     2    1    9 1
     3    1   17 1
     4    1   18 1
     5    2    3 1
     6    2   19 1
     7    2   20 1
     8    3    4 1
     9    3    5 1
    10    3    8 1
    11    5    6 2
    12    5    7 1
    13    8   21 1
    14    8   22 1
    15    8   28 1
    16    9   10 1
    17    9   23 1
    18    9   24 1
    19   10   11 1
    20   10   25 1
    21   11   12 1
    22   11   13 2
    23   12   26 1
    24   12   27 1
    25   13   14 1
    26   14   15 2
    27   14   16 1
@<TRIPOS>MOLECULE
ZINC19796052
   27    26     0     0     0
SMALL
USER_CHARGES

@<TRIPOS>ATOM
      1 C1         -0.0187    1.5258    0.0104 C.3       1 <0>        -0.1050
      2 C2          0.0021   -0.0041    0.0020 C.3       1 <0>        -0.1256
      3 C3         -1.4333   -0.5336    0.0129 C.3       1 <0>        -0.0468
      4 H1         -1.9862   -0.1019   -0.8214 H         1 <0>         0.1327
      5 C4         -1.4159   -2.0348   -0.1192 C.2       1 <0>         0.4921
      6 O1         -1.7304   -2.7338    0.8289 O.co2     1 <0>        -0.6808
      7 O2         -1.0874   -2.5501   -1.1742 O.co2     1 <0>        -0.6408
      8 N1         -2.0833   -0.1607    1.2764 N.4       1 <0>        -0.6128
      9 C5          1.4167    2.0553   -0.0004 C.3       1 <0>         0.0578
     10 N2          1.3968    3.5202    0.0076 N.2       1 <0>        -0.6142
     11 C6          2.5556    4.2104    0.0003 C.2       1 <0>         0.5440
     12 N3          3.7327    3.5520   -0.0145 N.pl3     1 <0>        -0.8545
     13 N4          2.5374    5.5571    0.0077 N.2       1 <0>        -0.4280
     14 N5          1.4116    6.1868    0.0218 N.pl3     1 <0>         0.2692
     15 O3          0.2801    5.5129    0.0290 O.2       1 <0>        -0.3868
     16 O4          1.3938    7.5037    0.0290 O.3       1 <0>        -0.4347
     17 H2         -0.5459    1.8868   -0.8726 H         1 <0>         0.0743
     18 H3         -0.5289    1.8773    0.9072 H         1 <0>         0.0541
     19 H4          0.5123   -0.3556   -0.8948 H         1 <0>         0.1045
     20 H5          0.5293   -0.3651    0.8851 H         1 <0>         0.0750
     21 H6         -2.0949    0.8443    1.3648 H         1 <0>         0.4188
     22 H7         -3.0299   -0.5100    1.2835 H         1 <0>         0.4273
     23 H8          1.9439    1.6943    0.8826 H         1 <0>         0.0266
     24 H9          1.9269    1.7038   -0.8972 H         1 <0>         0.0313
     25 H10         3.7459    2.5821   -0.0198 H         1 <0>         0.4001
     26 H11         4.5661    4.0484   -0.0198 H         1 <0>         0.3937
     27 H12        -1.5715   -0.5604    2.0487 H         1 <0>         0.4287
@<TRIPOS>BOND
     1    1    2 1
     2    1    9 1
     3    1   17 1
     4    1   18 1
     5    2    3 1
     6    2   19 1
     7    2   20 1
     8    3    4 1
     9    3    5 1
    10    3    8 1
    11    5    6 2
    12    5    7 1
    13    8   21 1
    14    8   22 1
    15    8   27 1
    16    9   10 1
    17    9   23 1
    18    9   24 1
    19   10   11 1
    20   11   12 1
    21   11   13 2
    22   12   25 1
    23   12   26 1
    24   13   14 1
    25   14   15 2
    26   14   16 1
@<TRIPOS>MOLECULE
ZINC01529776
   30    29     0     0     0
SMALL
USER_CHARGES

@<TRIPOS>ATOM
      1 C1         -0.0178    1.4608    0.0101 C.3       1 <0>         0.0551
      2 N1          0.0021   -0.0041    0.0020 N.pl3     1 <0>        -0.6967
      3 C2          0.5968   -0.6778   -1.0385 C.cat     1 <0>         0.7320
      4 N2          1.1429   -0.0132   -2.0177 N.pl3     1 <0>        -0.7705
      5 N3          0.6154   -2.0524   -1.0460 N.pl3     1 <0>        -0.7005
      6 C3          1.2492   -2.7703   -2.1547 C.3       1 <0>         0.0939
      7 C4          1.1321   -4.2776   -1.9196 C.3       1 <0>        -0.1464
      8 C5          1.7939   -5.0273   -3.0775 C.3       1 <0>        -0.1250
      9 C6          1.6769   -6.5346   -2.8423 C.3       1 <0>        -0.0511
     10 H1          0.6297   -6.7992   -2.6953 H         1 <0>         0.1370
     11 C7          2.2183   -7.2733   -4.0391 C.2       1 <0>         0.4860
     12 O1          3.2648   -7.8927   -3.9510 O.co2     1 <0>        -0.6645
     13 O2          1.6099   -7.2515   -5.0955 O.co2     1 <0>        -0.6296
     14 N4          2.4479   -6.9052   -1.6482 N.4       1 <0>        -0.6147
     15 H2          1.0048    1.8381    0.0023 H         1 <0>         0.0856
     16 H3         -0.5450    1.8219   -0.8730 H         1 <0>         0.0860
     17 H4         -0.5280    1.8123    0.9069 H         1 <0>         0.1178
     18 H5         -0.4044   -0.4986    0.7308 H         1 <0>         0.4371
     19 H6          1.5625   -0.4885   -2.7518 H         1 <0>         0.4413
     20 H7          0.2090   -2.5470   -0.3173 H         1 <0>         0.4341
     21 H8          0.7517   -2.5086   -3.0886 H         1 <0>         0.0993
     22 H9          2.3015   -2.4924   -2.2133 H         1 <0>         0.0954
     23 H10         1.6295   -4.5394   -0.9857 H         1 <0>         0.0726
     24 H11         0.0798   -4.5556   -1.8610 H         1 <0>         0.0947
     25 H12         1.2965   -4.7656   -4.0114 H         1 <0>         0.1189
     26 H13         2.8463   -4.7494   -3.1361 H         1 <0>         0.0903
     27 H14         2.0854   -6.4107   -0.8469 H         1 <0>         0.4084
     28 H15         2.3707   -7.8993   -1.4931 H         1 <0>         0.4382
     29 H16         1.1298    0.9567   -2.0124 H         1 <0>         0.4423
     30 H17         3.4172   -6.6604   -1.7843 H         1 <0>         0.4331
@<TRIPOS>BOND
     1    1    2 1
     2    1   15 1
     3    1   16 1
     4    1   17 1
     5    2    3 1
     6    2   18 1
     7    3    4 2
     8    3    5 1
     9    4   19 1
    10    4   29 1
    11    5    6 1
    12    5   20 1
    13    6    7 1
    14    6   21 1
    15    6   22 1
    16    7    8 1
    17    7   23 1
    18    7   24 1
    19    8    9 1
    20    8   25 1
    21    8   26 1
    22    9   10 1
    23    9   11 1
    24    9   14 1
    25   11   12 2
    26   11   13 1
    27   14   27 1
    28   14   28 1
    29   14   30 1
@<TRIPOS>MOLECULE
ZINC13588706
   22    22     0     0     0
SMALL
USER_CHARGES
(4S,5R)-4-ethyl-5-methyl-4,5-dihydrooxazol-2-amine
@<TRIPOS>ATOM
      1 C1         -1.1322   -2.0948    0.7667 C.3       1 <0>        -0.1636
      2 C2         -1.1027   -0.5705    0.8962 C.3       1 <0>        -0.1423
      3 C3          0.0021   -0.0041    0.0020 C.3       1 <0>         0.0971
      4 H1         -0.1381   -0.4694   -0.9848 H         1 <0>         0.1396
      5 C4         -0.0189    1.5440    0.0105 C.3       1 <0>         0.0694
      6 H2         -0.5355    2.0244   -0.8335 H         1 <0>         0.1685
      7 O1          1.3911    1.8474   -0.0013 O.3       1 <0>        -0.2779
      8 C5          2.0423    0.7921    0.5270 C.cat     1 <0>         0.6601
      9 N1          1.3358   -0.2956    0.5631 N.pl3     1 <0>        -0.6580
     10 N2          3.3349    0.8619    0.9856 N.pl3     1 <0>        -0.7982
     11 C6         -0.6851    2.0774    1.2804 C.3       1 <0>        -0.1917
     12 H3         -1.9265   -2.5021    1.4096 H         1 <0>         0.0768
     13 H4         -0.1612   -2.5080    1.0772 H         1 <0>         0.0536
     14 H5         -1.3301   -2.3701   -0.2797 H         1 <0>         0.0678
     15 H6         -2.0737   -0.1573    0.5857 H         1 <0>         0.1058
     16 H7         -0.9048   -0.2952    1.9426 H         1 <0>         0.0852
     17 H8          3.8178   -0.0318    1.4076 H         1 <0>         0.4749
     18 H9          3.8874    1.8115    0.9309 H         1 <0>         0.4793
     19 H10        -0.6861    3.1772    1.2597 H         1 <0>         0.0924
     20 H11        -0.1273    1.7278    2.1616 H         1 <0>         0.0682
     21 H12        -1.7209    1.7107    1.3328 H         1 <0>         0.1061
     22 H13         1.7709   -1.2208    0.9689 H         1 <0>         0.4870
@<TRIPOS>BOND
     1    1    2 1
     2    1   12 1
     3    1   13 1
     4    1   14 1
     5    2    3 1
     6    2   15 1
     7    2   16 1
     8    3    4 1
     9    3    9 1
    10    3    5 1
    11    5    6 1
    12    5    7 1
    13    5   11 1
    14    7    8 1
    15    8    9 2
    16    8   10 1
    17    9   22 1
    18   10   17 1
    19   10   18 1
    20   11   19 1
    21   11   20 1
    22   11   21 1
@<TRIPOS>MOLECULE
ZINC13588705
   22    22     0     0     0
SMALL
USER_CHARGES
(4S,5R)-5-ethyl-4-methyl-4,5-dihydrooxazol-2-amine
@<TRIPOS>ATOM
      1 C1         -4.2849    0.5684   -2.2501 C.3       1 <0>        -0.1628
      2 C2         -3.6506    1.9127   -1.8876 C.3       1 <0>        -0.1536
      3 C3         -3.4035    1.9697   -0.3788 C.3       1 <0>         0.0694
      4 H1         -4.3709    1.7567    0.0995 H         1 <0>         0.1679
      5 C4         -2.7255    3.3018    0.0246 C.3       1 <0>         0.0967
      6 H2         -3.0429    3.7153    0.9932 H         1 <0>         0.1393
      7 N1         -1.2969    2.9307    0.0297 N.pl3     1 <0>        -0.6599
      8 C5         -1.2097    1.6363    0.0167 C.cat     1 <0>         0.6595
      9 O1         -2.4031    1.0098    0.0189 O.3       1 <0>        -0.2753
     10 N2         -0.0111    0.9658    0.0074 N.pl3     1 <0>        -0.7983
     11 C6         -3.0065    4.3932   -1.0102 C.3       1 <0>        -0.1790
     12 H3         -4.4625    0.5274   -3.3349 H         1 <0>         0.0739
     13 H4         -5.2411    0.4587   -1.7175 H         1 <0>         0.0685
     14 H5         -3.6071   -0.2474   -1.9585 H         1 <0>         0.0618
     15 H6         -2.6944    2.0224   -2.4202 H         1 <0>         0.0739
     16 H7         -4.3284    2.7285   -2.1792 H         1 <0>         0.1098
     17 H8          0.0038   -0.1340   -0.0035 H         1 <0>         0.4791
     18 H9          0.9340    1.5286    0.0109 H         1 <0>         0.4750
     19 H10        -2.5148    5.3272   -0.7007 H         1 <0>         0.0857
     20 H11        -4.0916    4.5573   -1.0846 H         1 <0>         0.1017
     21 H12        -2.6151    4.0797   -1.9892 H         1 <0>         0.0785
     22 H13        -0.3834    3.5434    0.0419 H         1 <0>         0.4880
@<TRIPOS>BOND
     1    1    2 1
     2    1   12 1
     3    1   13 1
     4    1   14 1
     5    2    3 1
     6    2   15 1
     7    2   16 1
     8    3    4 1
     9    3    9 1
    10    3    5 1
    11    5    6 1
    12    5    7 1
    13    5   11 1
    14    7    8 2
    15    7   22 1
    16    8    9 1
    17    8   10 1
    18   10   17 1
    19   10   18 1
    20   11   19 1
    21   11   20 1
    22   11   21 1
@<TRIPOS>MOLECULE
ZINC13588691
   16    16     0     0     0
SMALL
USER_CHARGES
(5S)-5-(bromomethyl)-4,5-dihydrooxazol-2-amine
@<TRIPOS>ATOM
      1 C1         -0.7590    3.4953    0.0183 C.3       1 <0>         0.0706
      2 C2          0.7325    3.4562   -0.3949 C.3       1 <0>         0.0677
      3 H1          0.9425    3.6255   -1.4613 H         1 <0>         0.1496
      4 O1          1.1027    2.1201    0.0029 O.3       1 <0>        -0.2720
      5 C3         -0.0165    1.3692    0.0096 C.cat     1 <0>         0.6612
      6 N1         -1.1132    2.0625    0.0182 N.pl3     1 <0>        -0.6665
      7 N2          0.0021   -0.0041    0.0020 N.pl3     1 <0>        -0.7934
      8 C4          1.5429    4.5025    0.3729 C.3       1 <0>        -0.1150
      9 Br1         3.4343    4.3790   -0.1494 Br        1 <0>        -0.0991
     10 H2         -1.3932    4.0298   -0.7043 H         1 <0>         0.1443
     11 H3         -0.9175    3.9121    1.0238 H         1 <0>         0.1315
     12 H4         -0.9429   -0.5670    0.0080 H         1 <0>         0.4770
     13 H5          0.9620   -0.5411   -0.0101 H         1 <0>         0.4814
     14 H6          1.1621    5.5070    0.1366 H         1 <0>         0.1468
     15 H7          1.4481    4.3193    1.4534 H         1 <0>         0.1233
     16 H8         -2.0871    1.5512    0.0239 H         1 <0>         0.4927
@<TRIPOS>BOND
     1    1    6 1
     2    1    2 1
     3    1   10 1
     4    1   11 1
     5    2    3 1
     6    2    4 1
     7    2    8 1
     8    4    5 1
     9    5    6 2
    10    5    7 1
    11    6   16 1
    12    7   12 1
    13    7   13 1
    14    8    9 1
    15    8   14 1
    16    8   15 1
@<TRIPOS>MOLECULE
ZINC13588692
   16    16     0     0     0
SMALL
USER_CHARGES
(5R)-5-(bromomethyl)-4,5-dihydrooxazol-2-amine
@<TRIPOS>ATOM
      1 C1          1.3784    1.7785   -0.0016 C.3       1 <0>         0.0705
      2 C2          2.1664    0.5010    0.3775 C.3       1 <0>         0.0678
      3 H1          2.4412    0.4003    1.4379 H         1 <0>         0.1496
      4 O1          1.2420   -0.5319   -0.0213 O.3       1 <0>        -0.2721
      5 C3          0.0021   -0.0041    0.0020 C.cat     1 <0>         0.6612
      6 N1         -0.0155    1.2933    0.0092 N.pl3     1 <0>        -0.6664
      7 N2         -1.1382   -0.7693    0.0173 N.pl3     1 <0>        -0.7934
      8 C4          3.4720    0.4055   -0.4145 C.3       1 <0>        -0.1151
      9 Br1         4.4094   -1.2548    0.0648 Br        1 <0>        -0.0991
     10 H2          1.6272    2.1569   -1.0041 H         1 <0>         0.1315
     11 H3          1.4905    2.5884    0.7342 H         1 <0>         0.1441
     12 H4         -2.1255   -0.2847    0.0362 H         1 <0>         0.4770
     13 H5         -1.0642   -1.8668    0.0107 H         1 <0>         0.4814
     14 H6          3.2481    0.4023   -1.4915 H         1 <0>         0.1233
     15 H7          4.1101    1.2690   -0.1752 H         1 <0>         0.1468
     16 H8         -0.9755    1.8303    0.0214 H         1 <0>         0.4928
@<TRIPOS>BOND
     1    1    6 1
     2    1    2 1
     3    1   10 1
     4    1   11 1
     5    2    3 1
     6    2    4 1
     7    2    8 1
     8    4    5 1
     9    5    6 2
    10    5    7 1
    11    6   16 1
    12    7   12 1
    13    7   13 1
    14    8    9 1
    15    8   14 1
    16    8   15 1
