@<TRIPOS>MOLECULE
ZINC03804505
   28    27     0     0     0
SMALL
USER_CHARGES

@<TRIPOS>ATOM
      1 C1         -0.0184    1.5028    0.0103 C.3       1 <0>        -0.1654
      2 C2          0.0021   -0.0041    0.0020 C.cat     1 <0>         0.5348
      3 N1          0.0215   -0.6566    1.1184 N.pl3     1 <0>        -0.7306
      4 N2          0.0000   -0.6826   -1.1881 N.pl3     1 <0>        -0.6699
      5 C3          0.0199   -2.1475   -1.1962 C.3       1 <0>         0.0710
      6 C4          0.0130   -2.6497   -2.6414 C.3       1 <0>        -0.1468
      7 C5          0.0338   -4.1795   -2.6498 C.3       1 <0>        -0.1263
      8 C6          0.0269   -4.6817   -4.0950 C.3       1 <0>        -0.0501
      9 H1          0.8576   -4.2328   -4.6396 H         1 <0>         0.1368
     10 C7          0.1711   -6.1817   -4.1063 C.2       1 <0>         0.4835
     11 O1         -0.8208   -6.8898   -4.0707 O.co2     1 <0>        -0.6608
     12 O2          1.2797   -6.6873   -4.1510 O.co2     1 <0>        -0.6287
     13 N3         -1.2397   -4.3067   -4.7377 N.4       1 <0>        -0.6162
     14 H2          1.0042    1.8801    0.0026 H         1 <0>         0.1363
     15 H3         -0.5455    1.8639   -0.8728 H         1 <0>         0.1231
     16 H4         -0.5286    1.8543    0.9071 H         1 <0>         0.1248
     17 H5          0.0230   -0.1762    1.9610 H         1 <0>         0.4512
     18 H6         -0.0146   -0.1932   -2.0255 H         1 <0>         0.4409
     19 H7          0.9196   -2.5014   -0.6928 H         1 <0>         0.1030
     20 H8         -0.8601   -2.5256   -0.6760 H         1 <0>         0.0999
     21 H9         -0.8866   -2.2957   -3.1448 H         1 <0>         0.0744
     22 H10         0.8931   -2.2715   -3.1616 H         1 <0>         0.0961
     23 H11         0.9335   -4.5334   -2.1464 H         1 <0>         0.1150
     24 H12        -0.8462   -4.5577   -2.1296 H         1 <0>         0.0931
     25 H13        -2.0086   -4.7222   -4.2336 H         1 <0>         0.4348
     26 H14        -1.3362   -3.3023   -4.7302 H         1 <0>         0.4089
     27 H15         0.0347   -1.6265    1.1130 H         1 <0>         0.4300
     28 H16        -1.2442   -4.6379   -5.6908 H         1 <0>         0.4372
@<TRIPOS>BOND
     1    1    2 1
     2    1   14 1
     3    1   15 1
     4    1   16 1
     5    2    3 2
     6    2    4 1
     7    3   17 1
     8    3   27 1
     9    4    5 1
    10    4   18 1
    11    5    6 1
    12    5   19 1
    13    5   20 1
    14    6    7 1
    15    6   21 1
    16    6   22 1
    17    7    8 1
    18    7   23 1
    19    7   24 1
    20    8    9 1
    21    8   10 1
    22    8   13 1
    23   10   11 2
    24   10   12 1
    25   13   25 1
    26   13   26 1
    27   13   28 1
@<TRIPOS>MOLECULE
ZINC04556609
   28    27     0     0     0
SMALL
USER_CHARGES

@<TRIPOS>ATOM
      1 C1         -0.0184    1.5028    0.0103 C.3       1 <0>        -0.1655
      2 C2          0.0021   -0.0041    0.0020 C.cat     1 <0>         0.5348
      3 N1          0.0215   -0.6566    1.1184 N.pl3     1 <0>        -0.7306
      4 N2          0.0000   -0.6826   -1.1881 N.pl3     1 <0>        -0.6699
      5 C3          0.0199   -2.1475   -1.1962 C.3       1 <0>         0.0710
      6 C4          0.0130   -2.6497   -2.6414 C.3       1 <0>        -0.1469
      7 C5          0.0338   -4.1795   -2.6498 C.3       1 <0>        -0.1254
      8 C6          0.0269   -4.6817   -4.0950 C.3       1 <0>        -0.0511
      9 H1         -0.8258   -4.2557   -4.6237 H         1 <0>         0.1374
     10 C7         -0.0765   -6.1851   -4.1039 C.2       1 <0>         0.4858
     11 O1         -1.1151   -6.7267   -3.7655 O.co2     1 <0>        -0.6293
     12 O2          0.8783   -6.8599   -4.4496 O.co2     1 <0>        -0.6638
     13 N3          1.2705   -4.2725   -4.7615 N.4       1 <0>        -0.6148
     14 H2          1.0042    1.8801    0.0026 H         1 <0>         0.1354
     15 H3         -0.5455    1.8639   -0.8728 H         1 <0>         0.1236
     16 H4         -0.5286    1.8543    0.9071 H         1 <0>         0.1251
     17 H5          0.0230   -0.1762    1.9610 H         1 <0>         0.4512
     18 H6         -0.0146   -0.1932   -2.0255 H         1 <0>         0.4409
     19 H7          0.9196   -2.5014   -0.6928 H         1 <0>         0.0994
     20 H8         -0.8601   -2.5256   -0.6760 H         1 <0>         0.1036
     21 H9         -0.8866   -2.2957   -3.1448 H         1 <0>         0.0961
     22 H10         0.8931   -2.2715   -3.1616 H         1 <0>         0.0740
     23 H11         0.9335   -4.5334   -2.1464 H         1 <0>         0.0901
     24 H12        -0.8462   -4.5577   -2.1296 H         1 <0>         0.1186
     25 H13         2.0598   -4.6669   -4.2722 H         1 <0>         0.4332
     26 H14         1.2659   -4.6037   -5.7146 H         1 <0>         0.4387
     27 H15         0.0347   -1.6265    1.1130 H         1 <0>         0.4301
     28 H16         1.3397   -3.2659   -4.7556 H         1 <0>         0.4083
@<TRIPOS>BOND
     1    1    2 1
     2    1   14 1
     3    1   15 1
     4    1   16 1
     5    2    3 2
     6    2    4 1
     7    3   17 1
     8    3   27 1
     9    4    5 1
    10    4   18 1
    11    5    6 1
    12    5   19 1
    13    5   20 1
    14    6    7 1
    15    6   21 1
    16    6   22 1
    17    7    8 1
    18    7   23 1
    19    7   24 1
    20    8    9 1
    21    8   10 1
    22    8   13 1
    23   10   11 2
    24   10   12 1
    25   13   25 1
    26   13   26 1
    27   13   28 1
