@<TRIPOS>MOLECULE
ZINC13588699
   16    16     0     0     0
SMALL
USER_CHARGES
(4R)-4-methyl-4,5-dihydrooxazol-2-amine
@<TRIPOS>ATOM
      1 C1          2.7713    0.6258   -1.4002 C.3       1 <0>        -0.1839
      2 C2          2.1705    0.8053   -0.0046 C.3       1 <0>         0.0829
      3 H1          3.0156    1.0301    0.6627 H         1 <0>         0.1487
      4 C3          1.3236   -0.4274    0.3956 C.3       1 <0>         0.0367
      5 O1          0.0021   -0.0041    0.0020 O.3       1 <0>        -0.2745
      6 C4         -0.0162    1.3436    0.0094 C.cat     1 <0>         0.6610
      7 N1          1.1633    1.8841    0.0011 N.pl3     1 <0>        -0.6609
      8 N2         -1.1770    2.0775    0.0191 N.pl3     1 <0>        -0.7969
      9 H2          3.5173   -0.1823   -1.3771 H         1 <0>         0.1017
     10 H3          3.2550    1.5625   -1.7144 H         1 <0>         0.0844
     11 H4          1.9736    0.3682   -2.1124 H         1 <0>         0.0712
     12 H5          1.6802   -1.3112   -0.1537 H         1 <0>         0.1574
     13 H6          1.4211   -0.6038    1.4770 H         1 <0>         0.1277
     14 H7         -1.1328    3.1766    0.0248 H         1 <0>         0.4761
     15 H8         -2.1510    1.5662    0.0211 H         1 <0>         0.4799
     16 H9          1.2665    2.9793   -0.0006 H         1 <0>         0.4886
@<TRIPOS>BOND
     1    1    2 1
     2    1    9 1
     3    1   10 1
     4    1   11 1
     5    2    3 1
     6    2    7 1
     7    2    4 1
     8    4    5 1
     9    4   12 1
    10    4   13 1
    11    5    6 1
    12    6    7 2
    13    6    8 1
    14    7   16 1
    15    8   14 1
    16    8   15 1
@<TRIPOS>MOLECULE
ZINC13588700
   16    16     0     0     0
SMALL
USER_CHARGES
(4S)-4-methyl-4,5-dihydrooxazol-2-amine
@<TRIPOS>ATOM
      1 C1         -0.0127    1.0858    0.0080 C.3       1 <0>        -0.1839
      2 C2         -0.7288    1.5792    1.2668 C.3       1 <0>         0.0829
      3 H1         -1.7624    1.2102    1.1921 H         1 <0>         0.1487
      4 C3          0.0347    1.1475    2.5426 C.3       1 <0>         0.0367
      5 O1          0.8423    2.3147    2.7991 O.3       1 <0>        -0.2744
      6 C4          0.2224    3.3733    2.2406 C.cat     1 <0>         0.6608
      7 N1         -0.6762    3.0513    1.3606 N.pl3     1 <0>        -0.6611
      8 N2          0.5150    4.6737    2.5716 N.pl3     1 <0>        -0.7967
      9 H2         -0.0663   -0.0119   -0.0379 H         1 <0>         0.1016
     10 H3          1.0409    1.4005    0.0384 H         1 <0>         0.0712
     11 H4         -0.4978    1.5141   -0.8815 H         1 <0>         0.0843
     12 H5         -0.6856    0.9305    3.3452 H         1 <0>         0.1277
     13 H6          0.6271    0.2458    2.3280 H         1 <0>         0.1574
     14 H7         -0.0229    5.4998    2.0835 H         1 <0>         0.4762
     15 H8          1.2872    4.8891    3.3248 H         1 <0>         0.4799
     16 H9         -1.2400    3.8375    0.8372 H         1 <0>         0.4887
@<TRIPOS>BOND
     1    1    2 1
     2    1    9 1
     3    1   10 1
     4    1   11 1
     5    2    3 1
     6    2    7 1
     7    2    4 1
     8    4    5 1
     9    4   12 1
    10    4   13 1
    11    5    6 1
    12    6    7 2
    13    6    8 1
    14    7   16 1
    15    8   14 1
    16    8   15 1
@<TRIPOS>MOLECULE
ZINC13588712
   22    22     0     0     0
SMALL
USER_CHARGES
(4S,5S)-4-ethyl-5-methyl-4,5-dihydrooxazol-2-amine
@<TRIPOS>ATOM
      1 C1         -2.4296    5.7222   -0.5201 C.3       1 <0>        -0.1631
      2 C2         -3.0074    4.3931   -1.0104 C.3       1 <0>        -0.1413
      3 C3         -2.7255    3.3018    0.0243 C.3       1 <0>         0.0968
      4 H1         -3.0424    3.7157    0.9929 H         1 <0>         0.1401
      5 C4         -3.4036    1.9695   -0.3784 C.3       1 <0>         0.0682
      6 H2         -3.6579    1.8598   -1.4430 H         1 <0>         0.1397
      7 O1         -2.4031    1.0098    0.0194 O.3       1 <0>        -0.2808
      8 C5         -1.2097    1.6363    0.0167 C.cat     1 <0>         0.6623
      9 N1         -1.2969    2.9307    0.0292 N.pl3     1 <0>        -0.6594
     10 N2         -0.0111    0.9658    0.0074 N.pl3     1 <0>        -0.7983
     11 C6         -4.7057    1.7593    0.3971 C.3       1 <0>        -0.1701
     12 H3         -2.6323    6.5068   -1.2640 H         1 <0>         0.0773
     13 H4         -1.3432    5.6206   -0.3810 H         1 <0>         0.0540
     14 H5         -2.8980    5.9947    0.4372 H         1 <0>         0.0680
     15 H6         -4.0938    4.4947   -1.1495 H         1 <0>         0.1053
     16 H7         -2.5391    4.1205   -1.9677 H         1 <0>         0.0830
     17 H8          0.9340    1.5287    0.0056 H         1 <0>         0.4751
     18 H9          0.0038   -0.1341    0.0018 H         1 <0>         0.4793
     19 H10        -5.1648    0.8075    0.0916 H         1 <0>         0.0923
     20 H11        -5.3983    2.5863    0.1817 H         1 <0>         0.1051
     21 H12        -4.4901    1.7330    1.4754 H         1 <0>         0.0801
     22 H13        -0.3834    3.5434    0.0409 H         1 <0>         0.4865
@<TRIPOS>BOND
     1    1    2 1
     2    1   12 1
     3    1   13 1
     4    1   14 1
     5    2    3 1
     6    2   15 1
     7    2   16 1
     8    3    4 1
     9    3    9 1
    10    3    5 1
    11    5    6 1
    12    5    7 1
    13    5   11 1
    14    7    8 1
    15    8    9 2
    16    8   10 1
    17    9   22 1
    18   10   17 1
    19   10   18 1
    20   11   19 1
    21   11   20 1
    22   11   21 1
@<TRIPOS>MOLECULE
ZINC03951312
   30    30     0     0     0
SMALL
USER_CHARGES

@<TRIPOS>ATOM
      1 C1         -0.0184    1.5028    0.0103 C.3       1 <0>        -0.1669
      2 C2          0.0021   -0.0041    0.0020 C.cat     1 <0>         0.5375
      3 N1          0.0215   -0.6566    1.1184 N.pl3     1 <0>        -0.7278
      4 N2          0.0000   -0.6826   -1.1881 N.pl3     1 <0>        -0.6718
      5 C3          0.0199   -2.1475   -1.1962 C.3       1 <0>         0.1171
      6 C4          0.0132   -2.6421   -2.6197 C.ar      1 <0>        -0.1278
      7 C5         -1.1872   -2.8799   -3.2632 C.ar      1 <0>        -0.0578
      8 C6         -1.1934   -3.3336   -4.5687 C.ar      1 <0>        -0.1079
      9 C7          0.0008   -3.5492   -5.2313 C.ar      1 <0>        -0.0657
     10 C8          1.2007   -3.3106   -4.5883 C.ar      1 <0>        -0.1654
     11 C9          1.2069   -2.8527   -3.2838 C.ar      1 <0>        -0.0698
     12 C10         2.5023   -3.5460   -5.3104 C.3       1 <0>         0.0438
     13 N3          2.9092   -2.3146   -6.0004 N.4       1 <0>        -0.6372
     14 H1          1.0042    1.8801    0.0026 H         1 <0>         0.1366
     15 H2         -0.5455    1.8639   -0.8728 H         1 <0>         0.1239
     16 H3         -0.5286    1.8543    0.9071 H         1 <0>         0.1280
     17 H4          0.0230   -0.1762    1.9610 H         1 <0>         0.4537
     18 H5         -0.0146   -0.1932   -2.0255 H         1 <0>         0.4397
     19 H6          0.9196   -2.5014   -0.6928 H         1 <0>         0.1063
     20 H7         -0.8601   -2.5256   -0.6760 H         1 <0>         0.1086
     21 H8         -2.1200   -2.7115   -2.7456 H         1 <0>         0.1412
     22 H9         -2.1310   -3.5200   -5.0711 H         1 <0>         0.1479
     23 H10        -0.0041   -3.9043   -6.2512 H         1 <0>         0.1436
     24 H11         2.1445   -2.6626   -2.7826 H         1 <0>         0.1371
     25 H12         3.2705   -3.8303   -4.5913 H         1 <0>         0.1435
     26 H13         2.3737   -4.3456   -6.0399 H         1 <0>         0.1468
     27 H14         2.1981   -2.0514   -6.6661 H         1 <0>         0.4368
     28 H15         3.0283   -1.5743   -5.3251 H         1 <0>         0.4322
     29 H16         0.0347   -1.6265    1.1130 H         1 <0>         0.4296
     30 H17         3.7807   -2.4722   -6.4839 H         1 <0>         0.4441
@<TRIPOS>BOND
     1    1    2 1
     2    1   14 1
     3    1   15 1
     4    1   16 1
     5    2    3 2
     6    2    4 1
     7    3   17 1
     8    3   29 1
     9    4    5 1
    10    4   18 1
    11    5    6 1
    12    5   19 1
    13    5   20 1
    14    6   11 ar
    15    6    7 ar
    16    7    8 ar
    17    7   21 1
    18    8    9 ar
    19    8   22 1
    20    9   10 ar
    21    9   23 1
    22   10   11 ar
    23   10   12 1
    24   11   24 1
    25   12   13 1
    26   12   25 1
    27   12   26 1
    28   13   27 1
    29   13   28 1
    30   13   30 1
@<TRIPOS>MOLECULE
ZINC13588693
   16    16     0     0     0
SMALL
USER_CHARGES
(5R)-5-methyl-4,5-dihydrooxazol-2-amine
@<TRIPOS>ATOM
      1 C1          1.4088    1.6516   -0.0025 C.3       1 <0>        -0.1925
      2 C2         -0.0127    1.0858    0.0080 C.3       1 <0>         0.0568
      3 H1          0.0913   -0.0082    0.0565 H         1 <0>         0.1680
      4 C3         -0.8393    1.6372   -1.1793 C.3       1 <0>         0.0625
      5 N1         -1.5275    2.7892   -0.5647 N.pl3     1 <0>        -0.6591
      6 C4         -1.4315    2.6838    0.7249 C.cat     1 <0>         0.6598
      7 O1         -0.7615    1.5875    1.1341 O.3       1 <0>        -0.2790
      8 N2         -1.9630    3.6050    1.5939 N.pl3     1 <0>        -0.7971
      9 H2          1.9556    1.2531   -0.8698 H         1 <0>         0.1052
     10 H3          1.9265    1.3596    0.9231 H         1 <0>         0.0918
     11 H4          1.3662    2.7488   -0.0683 H         1 <0>         0.0671
     12 H5         -0.1609    1.9257   -1.9957 H         1 <0>         0.1399
     13 H6         -1.5324    0.8608   -1.5355 H         1 <0>         0.1300
     14 H7         -1.8516    3.4654    2.6793 H         1 <0>         0.4800
     15 H8         -2.5001    4.4824    1.2045 H         1 <0>         0.4756
     16 H9         -2.0598    3.6433   -1.0086 H         1 <0>         0.4911
@<TRIPOS>BOND
     1    1    2 1
     2    1    9 1
     3    1   10 1
     4    1   11 1
     5    2    3 1
     6    2    7 1
     7    2    4 1
     8    4    5 1
     9    4   12 1
    10    4   13 1
    11    5    6 2
    12    5   16 1
    13    6    7 1
    14    6    8 1
    15    8   14 1
    16    8   15 1
@<TRIPOS>MOLECULE
ZINC13588694
   16    16     0     0     0
SMALL
USER_CHARGES
(5S)-5-methyl-4,5-dihydrooxazol-2-amine
@<TRIPOS>ATOM
      1 C1          3.4720    0.4055   -0.4146 C.3       1 <0>        -0.1714
      2 C2          2.1664    0.5010    0.3775 C.3       1 <0>         0.0556
      3 H1          2.4412    0.4004    1.4379 H         1 <0>         0.1379
      4 C3          1.3784    1.7785   -0.0016 C.3       1 <0>         0.0627
      5 N1         -0.0155    1.2932    0.0092 N.pl3     1 <0>        -0.6608
      6 C4          0.0021   -0.0041    0.0020 C.cat     1 <0>         0.6623
      7 O1          1.2420   -0.5320   -0.0213 O.3       1 <0>        -0.2820
      8 N2         -1.1383   -0.7693    0.0168 N.pl3     1 <0>        -0.7971
      9 H2          4.1566    1.2033   -0.0907 H         1 <0>         0.1062
     10 H3          3.2588    0.5186   -1.4878 H         1 <0>         0.0787
     11 H4          3.9392   -0.5740   -0.2347 H         1 <0>         0.0919
     12 H5          1.5680    2.5619    0.7470 H         1 <0>         0.1398
     13 H6          1.7047    2.1305   -0.9914 H         1 <0>         0.1299
     14 H7         -1.0644   -1.8668    0.0097 H         1 <0>         0.4800
     15 H8         -2.1256   -0.2847    0.0357 H         1 <0>         0.4758
     16 H9         -0.9755    1.8302    0.0214 H         1 <0>         0.4905
@<TRIPOS>BOND
     1    1    2 1
     2    1    9 1
     3    1   10 1
     4    1   11 1
     5    2    3 1
     6    2    7 1
     7    2    4 1
     8    4    5 1
     9    4   12 1
    10    4   13 1
    11    5    6 2
    12    5   16 1
    13    6    7 1
    14    6    8 1
    15    8   14 1
    16    8   15 1
@<TRIPOS>MOLECULE
ZINC13588695
   19    19     0     0     0
SMALL
USER_CHARGES
(5R)-5-ethyl-4,5-dihydrooxazol-2-amine
@<TRIPOS>ATOM
      1 C1         -0.0187    1.5258    0.0104 C.3       1 <0>        -0.1636
      2 C2          0.0021   -0.0041    0.0020 C.3       1 <0>        -0.1341
      3 C3          0.7182   -0.4975   -1.2568 C.3       1 <0>         0.0564
      4 H1          0.2447    0.0206   -2.1038 H         1 <0>         0.1379
      5 C4          0.7226   -2.0442   -1.3237 C.3       1 <0>         0.0636
      6 N1          2.0681   -2.3231   -1.8646 N.pl3     1 <0>        -0.6609
      7 C5          2.7842   -1.2464   -1.7581 C.cat     1 <0>         0.6617
      8 O1          2.1305   -0.2108   -1.1953 O.3       1 <0>        -0.2790
      9 N2          4.0887   -1.1689   -2.1806 N.pl3     1 <0>        -0.7972
     10 H2         -0.5336    1.8805    0.9154 H         1 <0>         0.0755
     11 H3         -0.5508    1.8901   -0.8808 H         1 <0>         0.0649
     12 H4          1.0133    1.9066    0.0026 H         1 <0>         0.0634
     13 H5          0.5342   -0.3684    0.8932 H         1 <0>         0.0862
     14 H6         -1.0299   -0.3849    0.0099 H         1 <0>         0.1091
     15 H7          0.5695   -2.4553   -0.3149 H         1 <0>         0.1299
     16 H8         -0.0874   -2.3849   -1.9853 H         1 <0>         0.1400
     17 H9          4.6492   -0.2294   -2.0656 H         1 <0>         0.4799
     18 H10         4.5730   -2.0463   -2.6340 H         1 <0>         0.4757
     19 H11         2.5043   -3.2325   -2.3036 H         1 <0>         0.4905
@<TRIPOS>BOND
     1    1    2 1
     2    1   10 1
     3    1   11 1
     4    1   12 1
     5    2    3 1
     6    2   13 1
     7    2   14 1
     8    3    4 1
     9    3    8 1
    10    3    5 1
    11    5    6 1
    12    5   15 1
    13    5   16 1
    14    6    7 2
    15    6   19 1
    16    7    8 1
    17    7    9 1
    18    9   17 1
    19    9   18 1
@<TRIPOS>MOLECULE
ZINC13588696
   19    19     0     0     0
SMALL
USER_CHARGES
(5S)-5-ethyl-4,5-dihydrooxazol-2-amine
@<TRIPOS>ATOM
      1 C1         -1.5459    1.1954    3.5714 C.3       1 <0>        -0.1639
      2 C2         -0.8596    0.5860    2.3473 C.3       1 <0>        -0.1342
      3 C3         -0.8106    1.6214    1.2219 C.3       1 <0>         0.0567
      4 H1         -0.4346    2.5504    1.6753 H         1 <0>         0.1381
      5 C4         -0.0127    1.0858    0.0080 C.3       1 <0>         0.0632
      6 N1         -0.7953    1.6087   -1.1290 N.pl3     1 <0>        -0.6607
      7 C5         -1.9511    1.9980   -0.6865 C.cat     1 <0>         0.6618
      8 O1         -2.1164    1.8164    0.6388 O.3       1 <0>        -0.2796
      9 N2         -2.9177    2.5450   -1.4944 N.pl3     1 <0>        -0.7972
     10 H2         -1.5811    0.4510    4.3805 H         1 <0>         0.0756
     11 H3         -2.5699    1.4968    3.3055 H         1 <0>         0.0634
     12 H4         -0.9801    2.0766    3.9082 H         1 <0>         0.0651
     13 H5          0.1644    0.2847    2.6132 H         1 <0>         0.1089
     14 H6         -1.4253   -0.2952    2.0105 H         1 <0>         0.0868
     15 H7          1.0140    1.4792    0.0416 H         1 <0>         0.1399
     16 H8          0.0145   -0.0133    0.0431 H         1 <0>         0.1298
     17 H9         -3.8809    2.8580   -1.0651 H         1 <0>         0.4799
     18 H10        -2.7287    2.6701   -2.5708 H         1 <0>         0.4757
     19 H11        -0.5551    1.7042   -2.1982 H         1 <0>         0.4905
@<TRIPOS>BOND
     1    1    2 1
     2    1   10 1
     3    1   11 1
     4    1   12 1
     5    2    3 1
     6    2   13 1
     7    2   14 1
     8    3    4 1
     9    3    8 1
    10    3    5 1
    11    5    6 1
    12    5   15 1
    13    5   16 1
    14    6    7 2
    15    6   19 1
    16    7    8 1
    17    7    9 1
    18    9   17 1
    19    9   18 1
@<TRIPOS>MOLECULE
ZINC13588701
   19    19     0     0     0
SMALL
USER_CHARGES
(4R)-4-ethyl-4,5-dihydrooxazol-2-amine
@<TRIPOS>ATOM
      1 C1          3.2818    3.3390    0.7538 C.3       1 <0>        -0.1633
      2 C2          1.8030    2.9697    0.8874 C.3       1 <0>        -0.1425
      3 C3          1.4960    1.7638   -0.0028 C.3       1 <0>         0.0835
      4 H1          1.9160    2.0017   -0.9912 H         1 <0>         0.1386
      5 C4         -0.0175    1.4382    0.0099 C.3       1 <0>         0.0379
      6 O1          0.0021   -0.0041    0.0020 O.3       1 <0>        -0.2752
      7 C5          1.1774   -0.4013    0.5289 C.cat     1 <0>         0.6616
      8 N1          2.0796    0.5306    0.5604 N.pl3     1 <0>        -0.6590
      9 N2          1.3997   -1.6758    0.9896 N.pl3     1 <0>        -0.7971
     10 H2          3.5025    4.2060    1.3938 H         1 <0>         0.0769
     11 H3          3.5037    3.5906   -0.2938 H         1 <0>         0.0680
     12 H4          3.9024    2.4858    1.0653 H         1 <0>         0.0538
     13 H5          1.5811    2.7181    1.9350 H         1 <0>         0.0828
     14 H6          1.1824    3.8228    0.5759 H         1 <0>         0.1058
     15 H7         -0.4764    1.8632    0.9148 H         1 <0>         0.1276
     16 H8         -0.4936    1.8728   -0.8814 H         1 <0>         0.1578
     17 H9          2.3796   -1.9454    1.4104 H         1 <0>         0.4758
     18 H10         0.5978   -2.4270    0.9378 H         1 <0>         0.4799
     19 H11         3.0796    0.3146    0.9646 H         1 <0>         0.4871
@<TRIPOS>BOND
     1    1    2 1
     2    1   10 1
     3    1   11 1
     4    1   12 1
     5    2    3 1
     6    2   13 1
     7    2   14 1
     8    3    4 1
     9    3    8 1
    10    3    5 1
    11    5    6 1
    12    5   15 1
    13    5   16 1
    14    6    7 1
    15    7    8 2
    16    7    9 1
    17    8   19 1
    18    9   17 1
    19    9   18 1
@<TRIPOS>MOLECULE
ZINC13588702
   19    19     0     0     0
SMALL
USER_CHARGES
(4S)-4-ethyl-4,5-dihydrooxazol-2-amine
@<TRIPOS>ATOM
      1 C1         -0.0187    1.5258    0.0104 C.3       1 <0>        -0.1633
      2 C2          0.0021   -0.0041    0.0020 C.3       1 <0>        -0.1425
      3 C3          0.7421   -0.5109    1.2415 C.3       1 <0>         0.0835
      4 H1          0.3071    0.0283    2.0959 H         1 <0>         0.1386
      5 C4          0.6754   -2.0550    1.3326 C.3       1 <0>         0.0379
      6 O1          1.9963   -2.3682    1.8198 O.3       1 <0>        -0.2752
      7 C5          2.8161   -1.3610    1.4592 C.cat     1 <0>         0.6616
      8 N1          2.1939   -0.2733    1.1227 N.pl3     1 <0>        -0.6590
      9 N2          4.1847   -1.4755    1.4490 N.pl3     1 <0>        -0.7971
     10 H2         -0.5507    1.8901   -0.8808 H         1 <0>         0.0769
     11 H3          1.0133    1.9066    0.0026 H         1 <0>         0.0538
     12 H4         -0.5336    1.8805    0.9154 H         1 <0>         0.0681
     13 H5         -1.0299   -0.3849    0.0098 H         1 <0>         0.1058
     14 H6          0.5170   -0.3589   -0.9030 H         1 <0>         0.0827
     15 H7         -0.1262   -2.3470    2.0270 H         1 <0>         0.1578
     16 H8          0.4676   -2.4725    0.3363 H         1 <0>         0.1276
     17 H9          4.8059   -0.6200    1.1453 H         1 <0>         0.4758
     18 H10         4.6596   -2.4227    1.7445 H         1 <0>         0.4799
     19 H11         2.7657    0.6153    0.8170 H         1 <0>         0.4871
@<TRIPOS>BOND
     1    1    2 1
     2    1   10 1
     3    1   11 1
     4    1   12 1
     5    2    3 1
     6    2   13 1
     7    2   14 1
     8    3    4 1
     9    3    8 1
    10    3    5 1
    11    5    6 1
    12    5   15 1
    13    5   16 1
    14    6    7 1
    15    7    8 2
    16    7    9 1
    17    8   19 1
    18    9   17 1
    19    9   18 1
@<TRIPOS>MOLECULE
ZINC13588711
   22    22     0     0     0
SMALL
USER_CHARGES
(4S,5S)-5-ethyl-4-methyl-4,5-dihydrooxazol-2-amine
@<TRIPOS>ATOM
      1 C1          2.9477    3.8827    0.8506 C.3       1 <0>        -0.1631
      2 C2          1.4932    3.4137    0.7778 C.3       1 <0>        -0.1525
      3 C3          1.4197    2.0984   -0.0002 C.3       1 <0>         0.0691
      4 H1          2.2012    1.4481    0.4197 H         1 <0>         0.1681
      5 C4         -0.0187    1.5258    0.0104 C.3       1 <0>         0.0969
      6 H2         -0.6324    1.8161    0.8759 H         1 <0>         0.1492
      7 N1         -0.5676    2.0525   -1.2543 N.pl3     1 <0>        -0.6599
      8 C5          0.4179    2.4773   -1.9835 C.cat     1 <0>         0.6590
      9 O1          1.6275    2.3185   -1.4105 O.3       1 <0>        -0.2747
     10 N2          0.2445    3.0374   -3.2254 N.pl3     1 <0>        -0.7982
     11 C6          0.0021   -0.0041    0.0020 C.3       1 <0>        -0.1817
     12 H3          3.0004    4.8284    1.4100 H         1 <0>         0.0741
     13 H4          3.3346    4.0368   -0.1675 H         1 <0>         0.0629
     14 H5          3.5537    3.1201    1.3617 H         1 <0>         0.0686
     15 H6          1.1063    3.2596    1.7959 H         1 <0>         0.1068
     16 H7          0.8872    4.1763    0.2668 H         1 <0>         0.0743
     17 H8          1.1170    3.3809   -3.8005 H         1 <0>         0.4791
     18 H9         -0.7669    3.1426   -3.6450 H         1 <0>         0.4751
     19 H10        -1.0299   -0.3849    0.0098 H         1 <0>         0.0860
     20 H11         0.5341   -0.3684    0.8932 H         1 <0>         0.1011
     21 H12         0.5170   -0.3588   -0.9030 H         1 <0>         0.0712
     22 H13        -1.5998    2.1269   -1.6273 H         1 <0>         0.4884
@<TRIPOS>BOND
     1    1    2 1
     2    1   12 1
     3    1   13 1
     4    1   14 1
     5    2    3 1
     6    2   15 1
     7    2   16 1
     8    3    4 1
     9    3    9 1
    10    3    5 1
    11    5    6 1
    12    5    7 1
    13    5   11 1
    14    7    8 2
    15    7   22 1
    16    8    9 1
    17    8   10 1
    18   10   17 1
    19   10   18 1
    20   11   19 1
    21   11   20 1
    22   11   21 1
@<TRIPOS>MOLECULE
ZINC13588710
   19    19     0     0     0
SMALL
USER_CHARGES
(4S,5R)-4,5-dimethyl-4,5-dihydrooxazol-2-amine
@<TRIPOS>ATOM
      1 C1          3.2658    1.0747    1.0292 C.3       1 <0>        -0.1807
      2 C2          2.1705    0.8053   -0.0046 C.3       1 <0>         0.0959
      3 H1          2.6821    0.7274   -0.9753 H         1 <0>         0.1393
      4 C3          1.3236   -0.4274    0.3956 C.3       1 <0>         0.0687
      5 H2          1.5964   -1.3776   -0.0868 H         1 <0>         0.1685
      6 O1          0.0021   -0.0041    0.0020 O.3       1 <0>        -0.2783
      7 C4         -0.0162    1.3436    0.0094 C.cat     1 <0>         0.6600
      8 N1          1.1633    1.8841    0.0011 N.pl3     1 <0>        -0.6600
      9 N2         -1.1770    2.0775    0.0191 N.pl3     1 <0>        -0.7983
     10 C5          1.3943   -0.6765    1.9036 C.3       1 <0>        -0.1915
     11 H3          4.0021    0.2578    1.0046 H         1 <0>         0.1018
     12 H4          2.8171    1.1339    2.0318 H         1 <0>         0.0802
     13 H5          3.7656    2.0260    0.7944 H         1 <0>         0.0850
     14 H6         -1.1328    3.1766    0.0248 H         1 <0>         0.4751
     15 H7         -2.1510    1.5662    0.0211 H         1 <0>         0.4793
     16 H8          0.7849   -1.5560    2.1589 H         1 <0>         0.0922
     17 H9          1.0097    0.2040    2.4391 H         1 <0>         0.0683
     18 H10         2.4391   -0.8566    2.1969 H         1 <0>         0.1067
     19 H11         1.2665    2.9793   -0.0006 H         1 <0>         0.4880
@<TRIPOS>BOND
     1    1    2 1
     2    1   11 1
     3    1   12 1
     4    1   13 1
     5    2    3 1
     6    2    8 1
     7    2    4 1
     8    4    5 1
     9    4    6 1
    10    4   10 1
    11    6    7 1
    12    7    8 2
    13    7    9 1
    14    8   19 1
    15    9   14 1
    16    9   15 1
    17   10   16 1
    18   10   17 1
    19   10   18 1
@<TRIPOS>MOLECULE
ZINC03804505
   28    27     0     0     0
SMALL
USER_CHARGES

@<TRIPOS>ATOM
      1 C1         -0.0184    1.5028    0.0103 C.3       1 <0>        -0.1654
      2 C2          0.0021   -0.0041    0.0020 C.cat     1 <0>         0.5348
      3 N1          0.0215   -0.6566    1.1184 N.pl3     1 <0>        -0.7306
      4 N2          0.0000   -0.6826   -1.1881 N.pl3     1 <0>        -0.6699
      5 C3          0.0199   -2.1475   -1.1962 C.3       1 <0>         0.0710
      6 C4          0.0130   -2.6497   -2.6414 C.3       1 <0>        -0.1468
      7 C5          0.0338   -4.1795   -2.6498 C.3       1 <0>        -0.1263
      8 C6          0.0269   -4.6817   -4.0950 C.3       1 <0>        -0.0501
      9 H1          0.8576   -4.2328   -4.6396 H         1 <0>         0.1368
     10 C7          0.1711   -6.1817   -4.1063 C.2       1 <0>         0.4835
     11 O1         -0.8208   -6.8898   -4.0707 O.co2     1 <0>        -0.6608
     12 O2          1.2797   -6.6873   -4.1510 O.co2     1 <0>        -0.6287
     13 N3         -1.2397   -4.3067   -4.7377 N.4       1 <0>        -0.6162
     14 H2          1.0042    1.8801    0.0026 H         1 <0>         0.1363
     15 H3         -0.5455    1.8639   -0.8728 H         1 <0>         0.1231
     16 H4         -0.5286    1.8543    0.9071 H         1 <0>         0.1248
     17 H5          0.0230   -0.1762    1.9610 H         1 <0>         0.4512
     18 H6         -0.0146   -0.1932   -2.0255 H         1 <0>         0.4409
     19 H7          0.9196   -2.5014   -0.6928 H         1 <0>         0.1030
     20 H8         -0.8601   -2.5256   -0.6760 H         1 <0>         0.0999
     21 H9         -0.8866   -2.2957   -3.1448 H         1 <0>         0.0744
     22 H10         0.8931   -2.2715   -3.1616 H         1 <0>         0.0961
     23 H11         0.9335   -4.5334   -2.1464 H         1 <0>         0.1150
     24 H12        -0.8462   -4.5577   -2.1296 H         1 <0>         0.0931
     25 H13        -2.0086   -4.7222   -4.2336 H         1 <0>         0.4348
     26 H14        -1.3362   -3.3023   -4.7302 H         1 <0>         0.4089
     27 H15         0.0347   -1.6265    1.1130 H         1 <0>         0.4300
     28 H16        -1.2442   -4.6379   -5.6908 H         1 <0>         0.4372
@<TRIPOS>BOND
     1    1    2 1
     2    1   14 1
     3    1   15 1
     4    1   16 1
     5    2    3 2
     6    2    4 1
     7    3   17 1
     8    3   27 1
     9    4    5 1
    10    4   18 1
    11    5    6 1
    12    5   19 1
    13    5   20 1
    14    6    7 1
    15    6   21 1
    16    6   22 1
    17    7    8 1
    18    7   23 1
    19    7   24 1
    20    8    9 1
    21    8   10 1
    22    8   13 1
    23   10   11 2
    24   10   12 1
    25   13   25 1
    26   13   26 1
    27   13   28 1
@<TRIPOS>MOLECULE
ZINC04556609
   28    27     0     0     0
SMALL
USER_CHARGES

@<TRIPOS>ATOM
      1 C1         -0.0184    1.5028    0.0103 C.3       1 <0>        -0.1655
      2 C2          0.0021   -0.0041    0.0020 C.cat     1 <0>         0.5348
      3 N1          0.0215   -0.6566    1.1184 N.pl3     1 <0>        -0.7306
      4 N2          0.0000   -0.6826   -1.1881 N.pl3     1 <0>        -0.6699
      5 C3          0.0199   -2.1475   -1.1962 C.3       1 <0>         0.0710
      6 C4          0.0130   -2.6497   -2.6414 C.3       1 <0>        -0.1469
      7 C5          0.0338   -4.1795   -2.6498 C.3       1 <0>        -0.1254
      8 C6          0.0269   -4.6817   -4.0950 C.3       1 <0>        -0.0511
      9 H1         -0.8258   -4.2557   -4.6237 H         1 <0>         0.1374
     10 C7         -0.0765   -6.1851   -4.1039 C.2       1 <0>         0.4858
     11 O1         -1.1151   -6.7267   -3.7655 O.co2     1 <0>        -0.6293
     12 O2          0.8783   -6.8599   -4.4496 O.co2     1 <0>        -0.6638
     13 N3          1.2705   -4.2725   -4.7615 N.4       1 <0>        -0.6148
     14 H2          1.0042    1.8801    0.0026 H         1 <0>         0.1354
     15 H3         -0.5455    1.8639   -0.8728 H         1 <0>         0.1236
     16 H4         -0.5286    1.8543    0.9071 H         1 <0>         0.1251
     17 H5          0.0230   -0.1762    1.9610 H         1 <0>         0.4512
     18 H6         -0.0146   -0.1932   -2.0255 H         1 <0>         0.4409
     19 H7          0.9196   -2.5014   -0.6928 H         1 <0>         0.0994
     20 H8         -0.8601   -2.5256   -0.6760 H         1 <0>         0.1036
     21 H9         -0.8866   -2.2957   -3.1448 H         1 <0>         0.0961
     22 H10         0.8931   -2.2715   -3.1616 H         1 <0>         0.0740
     23 H11         0.9335   -4.5334   -2.1464 H         1 <0>         0.0901
     24 H12        -0.8462   -4.5577   -2.1296 H         1 <0>         0.1186
     25 H13         2.0598   -4.6669   -4.2722 H         1 <0>         0.4332
     26 H14         1.2659   -4.6037   -5.7146 H         1 <0>         0.4387
     27 H15         0.0347   -1.6265    1.1130 H         1 <0>         0.4301
     28 H16         1.3397   -3.2659   -4.7556 H         1 <0>         0.4083
@<TRIPOS>BOND
     1    1    2 1
     2    1   14 1
     3    1   15 1
     4    1   16 1
     5    2    3 2
     6    2    4 1
     7    3   17 1
     8    3   27 1
     9    4    5 1
    10    4   18 1
    11    5    6 1
    12    5   19 1
    13    5   20 1
    14    6    7 1
    15    6   21 1
    16    6   22 1
    17    7    8 1
    18    7   23 1
    19    7   24 1
    20    8    9 1
    21    8   10 1
    22    8   13 1
    23   10   11 2
    24   10   12 1
    25   13   25 1
    26   13   26 1
    27   13   28 1
@<TRIPOS>MOLECULE
ZINC39793933
   39    41     0     0     0
SMALL
USER_CHARGES

@<TRIPOS>ATOM
      1 C1          0.9036    0.5777   -1.1786 C.ar      1 <0>        -0.0853
      2 C2          2.1251    1.1610   -0.9031 C.ar      1 <0>        -0.1151
      3 C3          2.3863    2.4568   -1.3285 C.ar      1 <0>         0.1576
      4 C4          1.4180    3.1629   -2.0301 C.ar      1 <0>        -0.1354
      5 C5          0.1977    2.5741   -2.3028 C.ar      1 <0>        -0.0160
      6 C6         -0.0590    1.2822   -1.8771 C.ar      1 <0>        -0.1212
      7 Cl1        -1.0141    3.4556   -3.1793 Cl        1 <0>        -0.0616
      8 N1          3.6227    3.0500   -1.0503 N.am      1 <0>        -0.6695
      9 C7          4.7424    2.3000   -1.0378 C.2       1 <0>         0.5169
     10 O1          4.6912    1.1286   -1.3478 O.2       1 <0>        -0.4883
     11 C8          6.0581    2.9170   -0.6387 C.3       1 <0>         0.0399
     12 O2          7.0874    1.9278   -0.7041 O.3       1 <0>        -0.2830
     13 C9          8.3435    2.3225   -0.3729 C.ar      1 <0>         0.1587
     14 C10         8.5770    3.6374    0.0132 C.ar      1 <0>        -0.2111
     15 C11         9.8487    4.0430    0.3501 C.ar      1 <0>        -0.0449
     16 C12        10.9080    3.1283    0.3033 C.ar      1 <0>        -0.1378
     17 C13        10.6670    1.8050   -0.0864 C.ar      1 <0>        -0.0332
     18 C14         9.3903    1.4088   -0.4157 C.ar      1 <0>        -0.1494
     19 C15        12.2667    3.5553    0.6610 C.2       1 <0>         0.0900
     20 C16        12.4550    4.7013    1.3633 C.2       1 <0>        -0.2271
     21 C17        13.7080    5.4131    1.6845 C.2       1 <0>         0.5617
     22 O3         14.7911    4.9996    1.3142 O.2       1 <0>        -0.4709
     23 N2         13.5939    6.5228    2.3945 N.am      1 <0>        -0.6851
     24 C18        12.3917    6.9775    2.8029 C.2       1 <0>         0.5375
     25 O4         12.1425    7.9736    3.4549 O.2       1 <0>        -0.4177
     26 S1         11.2536    5.7680    2.1469 S.3       1 <0>        -0.0405
     27 H1          0.7020   -0.4317   -0.8516 H         1 <0>         0.1391
     28 H2          2.8763    0.6098   -0.3570 H         1 <0>         0.1405
     29 H3          1.6182    4.1710   -2.3619 H         1 <0>         0.1383
     30 H4         -1.0130    0.8237   -2.0915 H         1 <0>         0.1373
     31 H5          3.6739    4.0011   -0.8665 H         1 <0>         0.4157
     32 H6          6.2968    3.7351   -1.3182 H         1 <0>         0.1027
     33 H7          5.9861    3.2995    0.3794 H         1 <0>         0.1042
     34 H8          7.7594    4.3420    0.0486 H         1 <0>         0.1374
     35 H9         10.0290    5.0648    0.6496 H         1 <0>         0.1417
     36 H10        11.4803    1.0954   -0.1242 H         1 <0>         0.1447
     37 H11         9.2025    0.3874   -0.7122 H         1 <0>         0.1437
     38 H12        13.1161    2.9574    0.3653 H         1 <0>         0.1648
     39 H13        14.3930    7.0210    2.6272 H         1 <0>         0.4211
@<TRIPOS>BOND
     1    1    6 ar
     2    1    2 ar
     3    1   27 1
     4    2    3 ar
     5    2   28 1
     6    3    4 ar
     7    3    8 1
     8    4    5 ar
     9    4   29 1
    10    5    6 ar
    11    5    7 1
    12    6   30 1
    13    8    9 am
    14    8   31 1
    15    9   10 2
    16    9   11 1
    17   11   12 1
    18   11   32 1
    19   11   33 1
    20   12   13 1
    21   13   18 ar
    22   13   14 ar
    23   14   15 ar
    24   14   34 1
    25   15   16 ar
    26   15   35 1
    27   16   17 ar
    28   16   19 1
    29   17   18 ar
    30   17   36 1
    31   18   37 1
    32   19   20 2
    33   19   38 1
    34   20   26 1
    35   20   21 1
    36   21   22 2
    37   21   23 am
    38   23   24 am
    39   23   39 1
    40   24   25 2
    41   24   26 1
@<TRIPOS>MOLECULE
ZINC59097866
   42    46     0     0     0
SMALL
USER_CHARGES

@<TRIPOS>ATOM
      1 C1         -5.0625   -1.6213   -0.4628 C.ar      1 <0>        -0.0323
      2 C2         -6.2027   -2.3409   -0.6794 C.ar      1 <0>        -0.1518
      3 C3         -7.1842   -1.8682   -1.5433 C.ar      1 <0>         0.1312
      4 C4         -7.0235   -0.6613   -2.1985 C.ar      1 <0>         0.0165
      5 C5         -5.8688    0.0871   -1.9913 C.ar      1 <0>         0.1868
      6 C6         -4.8786   -0.3972   -1.1152 C.ar      1 <0>        -0.1125
      7 C7         -3.6682    0.3979   -0.9045 C.2       1 <0>        -0.0178
      8 C8         -3.5441    1.5769   -1.5637 C.2       1 <0>        -0.1745
      9 C9         -4.5658    2.0179   -2.4306 C.2       1 <0>         0.5399
     10 O1         -4.4335    3.0806   -3.0129 O.2       1 <0>        -0.5166
     11 N1         -5.6817    1.2951   -2.6312 N.am      1 <0>        -0.6242
     12 H1         -6.3646    1.6275   -3.2345 H         1 <0>         0.4235
     13 C10        -2.5835   -0.0825    0.0248 C.3       1 <0>         0.1438
     14 N2         -2.8878    0.3447    1.3927 N.pl3     1 <0>        -0.4729
     15 C11        -3.5253   -0.4033    2.3584 C.ar      1 <0>         0.1893
     16 C12        -3.5933    0.4173    3.5024 C.ar      1 <0>         0.2170
     17 N3         -4.1665   -0.0477    4.6095 N.ar      1 <0>        -0.3967
     18 C13        -4.6645   -1.2692    4.6259 C.ar      1 <0>         0.0689
     19 C14        -4.5955   -2.0729    3.4984 C.ar      1 <0>         0.0810
     20 N4         -4.0298   -1.6258    2.3915 N.ar      1 <0>        -0.4347
     21 N5         -3.0058    1.5954    3.1777 N.2       1 <0>        -0.4664
     22 C15        -2.5880    1.5505    1.9454 C.2       1 <0>         0.3450
     23 C16        -1.8791    2.6737    1.2334 C.3       1 <0>        -0.0543
     24 C17        -0.8154    3.3748    2.0946 C.3       1 <0>        -0.1187
     25 C18        -1.3034    4.6976    1.4807 C.3       1 <0>        -0.1398
     26 C19        -2.6551    4.0012    1.2509 C.3       1 <0>        -0.1216
     27 F1         -7.9829   -0.2110   -3.0363 F         1 <0>        -0.1188
     28 F2         -8.3050   -2.5951   -1.7448 F         1 <0>        -0.1142
     29 H2         -4.3071   -1.9936    0.2134 H         1 <0>         0.1660
     30 H3         -6.3431   -3.2858   -0.1754 H         1 <0>         0.1578
     31 H4         -2.6596    2.1807   -1.4239 H         1 <0>         0.1636
     32 H5         -2.5288   -1.1705   -0.0123 H         1 <0>         0.1215
     33 H6         -1.6273    0.3401   -0.2836 H         1 <0>         0.1219
     34 H7         -5.1293   -1.6463    5.5248 H         1 <0>         0.1824
     35 H8         -5.0070   -3.0710    3.5250 H         1 <0>         0.1842
     36 H9         -1.5230    2.3891    0.2433 H         1 <0>         0.1132
     37 H10        -0.9999    3.2964    3.1660 H         1 <0>         0.0997
     38 H11         0.2077    3.1174    1.8204 H         1 <0>         0.0765
     39 H12        -1.3515    5.5192    2.1954 H         1 <0>         0.0787
     40 H13        -0.7887    4.9671    0.5584 H         1 <0>         0.0866
     41 H14        -3.1173    4.2494    0.2954 H         1 <0>         0.0772
     42 H15        -3.3426    4.0940    2.0916 H         1 <0>         0.0955
@<TRIPOS>BOND
     1    1    6 ar
     2    1    2 ar
     3    1   29 1
     4    2    3 ar
     5    2   30 1
     6    3    4 ar
     7    3   28 1
     8    4    5 ar
     9    4   27 1
    10    5   11 1
    11    5    6 ar
    12    6    7 1
    13    7    8 2
    14    7   13 1
    15    8    9 1
    16    8   31 1
    17    9   10 2
    18    9   11 am
    19   11   12 1
    20   13   14 1
    21   13   32 1
    22   13   33 1
    23   14   22 1
    24   14   15 1
    25   15   20 ar
    26   15   16 ar
    27   16   17 ar
    28   16   21 1
    29   17   18 ar
    30   18   19 ar
    31   18   34 1
    32   19   20 ar
    33   19   35 1
    34   21   22 2
    35   22   23 1
    36   23   26 1
    37   23   24 1
    38   23   36 1
    39   24   25 1
    40   24   37 1
    41   24   38 1
    42   25   26 1
    43   25   39 1
    44   25   40 1
    45   26   41 1
    46   26   42 1
@<TRIPOS>MOLECULE
ZINC20719446
   32    35     0     0     0
SMALL
USER_CHARGES
3-[5-(2,3-dihydro-1,4-benzodioxin-6-yl)-1,3,4-oxadiazol-2-yl]pyridine
@<TRIPOS>ATOM
      1 C1         -9.4039   -2.2425    0.0419 C.ar      1 <0>        -0.1701
      2 C2         -8.0263   -2.3741    0.0280 C.ar      1 <0>        -0.0223
      3 C3         -7.2486   -1.2100    0.0367 C.ar      1 <0>        -0.0797
      4 C4         -7.8908    0.0297    0.0478 C.ar      1 <0>         0.1418
      5 N1         -9.2054    0.1025    0.0555 N.ar      1 <0>        -0.4802
      6 C5         -9.9632   -0.9776    0.0527 C.ar      1 <0>         0.1234
      7 C6         -5.7735   -1.2919    0.0280 C.2       1 <0>         0.2125
      8 N2         -5.0562   -2.3921    0.0168 N.2       1 <0>        -0.2647
      9 N3         -3.8062   -2.0875    0.0115 N.2       1 <0>        -0.2688
     10 C7         -3.6758   -0.7798    0.0190 C.2       1 <0>         0.2242
     11 O1         -4.9161   -0.2504    0.0355 O.3       1 <0>        -0.2122
     12 C8         -2.4047   -0.0282    0.0163 C.ar      1 <0>        -0.0291
     13 C9         -2.4166    1.3683    0.0262 C.ar      1 <0>        -0.0737
     14 C10        -1.2286    2.0668    0.0191 C.ar      1 <0>        -0.1143
     15 C11        -0.0168    1.3876    0.0097 C.ar      1 <0>         0.0819
     16 C12         0.0021   -0.0041    0.0020 C.ar      1 <0>         0.0501
     17 C13        -1.1873   -0.7115    0.0043 C.ar      1 <0>        -0.0577
     18 O2          1.1812   -0.6846   -0.0068 O.3       1 <0>        -0.3014
     19 C14         2.3473    0.0539   -0.3869 C.3       1 <0>         0.0162
     20 C15         2.3344    1.3916    0.3652 C.3       1 <0>         0.0162
     21 O3          1.1436    2.0985    0.0024 O.3       1 <0>        -0.3002
     22 H1        -10.0357   -3.1185    0.0397 H         1 <0>         0.1504
     23 H2         -7.5631   -3.3496    0.0149 H         1 <0>         0.1531
     24 H3         -7.3042    0.9366    0.0505 H         1 <0>         0.1656
     25 H4        -11.0380   -0.8723    0.0593 H         1 <0>         0.1671
     26 H5         -3.3563    1.9005    0.0363 H         1 <0>         0.1442
     27 H6         -1.2397    3.1468    0.0273 H         1 <0>         0.1483
     28 H7         -1.1737   -1.7914   -0.0035 H         1 <0>         0.1539
     29 H8          3.2474   -0.5201   -0.1217 H         1 <0>         0.1294
     30 H9          2.3318    0.2306   -1.4725 H         1 <0>         0.0825
     31 H10         2.3463    1.2031    1.4489 H         1 <0>         0.0843
     32 H11         3.2219    1.9782    0.0853 H         1 <0>         0.1297
@<TRIPOS>BOND
     1    1    6 ar
     2    1    2 ar
     3    1   22 1
     4    2    3 ar
     5    2   23 1
     6    3    4 ar
     7    3    7 1
     8    4    5 ar
     9    4   24 1
    10    5    6 ar
    11    6   25 1
    12    7   11 1
    13    7    8 2
    14    8    9 1
    15    9   10 2
    16   10   11 1
    17   10   12 1
    18   12   17 ar
    19   12   13 ar
    20   13   14 ar
    21   13   26 1
    22   14   15 ar
    23   14   27 1
    24   15   21 1
    25   15   16 ar
    26   16   17 ar
    27   16   18 1
    28   17   28 1
    29   18   19 1
    30   19   20 1
    31   19   29 1
    32   19   30 1
    33   20   21 1
    34   20   31 1
    35   20   32 1
@<TRIPOS>MOLECULE
ZINC16623538
   33    36     0     0     0
SMALL
USER_CHARGES
2-(2,3-dihydro-1,4-benzodioxin-6-yl)-5-phenyl-1,3,4-oxadiazole
@<TRIPOS>ATOM
      1 C1        -10.0573    2.1666    0.0864 C.ar      1 <0>        -0.0920
      2 C2         -9.4701    3.4194    0.0905 C.ar      1 <0>        -0.1198
      3 C3         -8.0960    3.5406    0.0813 C.ar      1 <0>        -0.0654
      4 C4         -7.2975    2.3954    0.0678 C.ar      1 <0>        -0.0293
      5 C5         -7.8966    1.1343    0.0579 C.ar      1 <0>        -0.0833
      6 C6         -9.2719    1.0275    0.0730 C.ar      1 <0>        -0.1207
      7 C7         -5.8252    2.5175    0.0579 C.2       1 <0>         0.2128
      8 N1         -5.1381    3.6368    0.0609 N.2       1 <0>        -0.2693
      9 N2         -3.8802    3.3663    0.0559 N.2       1 <0>        -0.2688
     10 C8         -3.7143    2.0627    0.0399 C.2       1 <0>         0.2174
     11 O1         -4.9399    1.4997    0.0446 O.3       1 <0>        -0.2140
     12 C9         -2.4233    1.3461    0.0259 C.ar      1 <0>        -0.0261
     13 C10        -2.3974   -0.0502    0.0160 C.ar      1 <0>        -0.0751
     14 C11        -1.1907   -0.7161    0.0041 C.ar      1 <0>        -0.1140
     15 C12         0.0021   -0.0041    0.0020 C.ar      1 <0>         0.0800
     16 C13        -0.0168    1.3876    0.0097 C.ar      1 <0>         0.0506
     17 C14        -1.2250    2.0623    0.0190 C.ar      1 <0>        -0.0586
     18 O2          1.1434    2.0999    0.0024 O.3       1 <0>        -0.3010
     19 C15         2.3348    1.3933    0.3641 C.3       1 <0>         0.0193
     20 C16         2.3468    0.0555   -0.3880 C.3       1 <0>         0.0179
     21 O3          1.1814   -0.6832   -0.0065 O.3       1 <0>        -0.3015
     22 H1        -11.1336    2.0773    0.0940 H         1 <0>         0.1320
     23 H2        -10.0889    4.3045    0.1013 H         1 <0>         0.1364
     24 H3         -7.6389    4.5191    0.0849 H         1 <0>         0.1411
     25 H4         -7.2847    0.2445    0.0426 H         1 <0>         0.1322
     26 H5         -9.7366    0.0526    0.0699 H         1 <0>         0.1341
     27 H6         -3.3223   -0.6079    0.0173 H         1 <0>         0.1433
     28 H7         -1.1724   -1.7959   -0.0034 H         1 <0>         0.1477
     29 H8         -1.2408    3.1421    0.0271 H         1 <0>         0.1538
     30 H9          2.3423    1.2110    1.4387 H         1 <0>         0.0818
     31 H10         3.2096    1.9803    0.0841 H         1 <0>         0.1279
     32 H11         3.2419   -0.5072   -0.1229 H         1 <0>         0.1277
     33 H12         2.3316    0.2371   -1.4626 H         1 <0>         0.0829
@<TRIPOS>BOND
     1    1    6 ar
     2    1    2 ar
     3    1   22 1
     4    2    3 ar
     5    2   23 1
     6    3    4 ar
     7    3   24 1
     8    4    5 ar
     9    4    7 1
    10    5    6 ar
    11    5   25 1
    12    6   26 1
    13    7   11 1
    14    7    8 2
    15    8    9 1
    16    9   10 2
    17   10   11 1
    18   10   12 1
    19   12   17 ar
    20   12   13 ar
    21   13   14 ar
    22   13   27 1
    23   14   15 ar
    24   14   28 1
    25   15   21 1
    26   15   16 ar
    27   16   17 ar
    28   16   18 1
    29   17   29 1
    30   18   19 1
    31   19   20 1
    32   19   30 1
    33   19   31 1
    34   20   21 1
    35   20   32 1
    36   20   33 1
@<TRIPOS>MOLECULE
ZINC08034829
   12    11     0     0     0
SMALL
USER_CHARGES
1-aminoguanidine
@<TRIPOS>ATOM
      1 C1         -0.7124    2.5578   -0.9728 C.cat     1 <0>         0.7432
      2 N1         -1.4909    2.6294   -2.1037 N.pl3     1 <0>        -0.8045
      3 N2         -0.3443    1.3330   -0.4682 N.pl3     1 <0>        -0.5422
      4 N3          0.4292    1.2618    0.6555 N.3       1 <0>        -0.6005
      5 H1         -0.5313    4.5620   -0.6588 H         1 <0>         0.4523
      6 H2         -1.7804    1.8159   -2.5455 H         1 <0>         0.4401
      7 H3         -1.7506    3.4935   -2.4598 H         1 <0>         0.4425
      8 H4         -0.6339    0.5195   -0.9100 H         1 <0>         0.4372
      9 H5          0.6172    0.3024    0.9049 H         1 <0>         0.3992
     10 H6          1.2871    1.7795    0.5372 H         1 <0>         0.3590
     11 N4         -0.2847    3.6307   -0.3234 N.pl3     1 <0>        -0.7864
     12 H7          0.2950    3.5247    0.5174 H         1 <0>         0.4602
@<TRIPOS>BOND
     1    1    2 1
     2    1    3 1
     3    1   11 2
     4    2    6 1
     5    2    7 1
     6    3    4 1
     7    3    8 1
     8    4    9 1
     9    4   10 1
    10    5   11 1
    11   11   12 1
@<TRIPOS>MOLECULE
ZINC19796052
   28    27     0     0     0
SMALL
USER_CHARGES

@<TRIPOS>ATOM
      1 C1         -0.0117    1.5287   -0.1466 C.3       1 <0>        -0.1446
      2 C2          0.0130    0.0014   -0.2331 C.3       1 <0>        -0.1246
      3 C3         -1.4208   -0.5325   -0.2382 C.3       1 <0>        -0.0498
      4 H1         -1.9814   -0.0605   -1.0450 H         1 <0>         0.1365
      5 C4         -1.4005   -2.0248   -0.4467 C.2       1 <0>         0.4883
      6 O1         -1.7056   -2.7722    0.4670 O.co2     1 <0>        -0.6698
      7 O2         -1.0790   -2.4848   -1.5291 O.co2     1 <0>        -0.6325
      8 N1         -2.0618   -0.2264    1.0477 N.4       1 <0>        -0.6145
      9 C5          1.4221    2.0625   -0.1416 C.3       1 <0>         0.1026
     10 N2          1.3984    3.5250   -0.0588 N.pl3     1 <0>        -0.6811
     11 C6          2.5553    4.2182   -0.0399 C.2       1 <0>         0.7149
     12 N3          3.7340    3.5650   -0.0974 N.pl3     1 <0>        -0.8398
     13 N4          2.5335    5.5627    0.0362 N.2       1 <0>        -0.5046
     14 N5          3.6342    6.2311   -0.0411 N.pl3     1 <0>         0.1932
     15 O3          4.0483    6.6853   -1.2058 O.2       1 <0>        -0.2350
     16 O4          4.3437    6.4591    1.0447 O.3       1 <0>        -0.2457
     17 H2         -0.5468    1.9327   -1.0060 H         1 <0>         0.0930
     18 H3         -0.5157    1.8325    0.7708 H         1 <0>         0.0705
     19 H4          0.5171   -0.3025   -1.1506 H         1 <0>         0.1174
     20 H5          0.5481   -0.4026    0.6263 H         1 <0>         0.0885
     21 H6         -1.5428   -0.6633    1.7946 H         1 <0>         0.4324
     22 H7         -2.0754    0.7728    1.1873 H         1 <0>         0.4115
     23 H8          1.9572    1.6586    0.7178 H         1 <0>         0.0859
     24 H9          1.9262    1.7587   -1.0591 H         1 <0>         0.0912
     25 H10         0.5508    3.9948   -0.0175 H         1 <0>         0.4331
     26 H11         3.7538    2.5960   -0.0591 H         1 <0>         0.4203
     27 H12         4.5618    4.0643   -0.1769 H         1 <0>         0.4280
     28 H13        -3.0073   -0.5784    1.0444 H         1 <0>         0.4349
@<TRIPOS>BOND
     1    1    2 1
     2    1    9 1
     3    1   17 1
     4    1   18 1
     5    2    3 1
     6    2   19 1
     7    2   20 1
     8    3    4 1
     9    3    5 1
    10    3    8 1
    11    5    6 2
    12    5    7 1
    13    8   21 1
    14    8   22 1
    15    8   28 1
    16    9   10 1
    17    9   23 1
    18    9   24 1
    19   10   11 1
    20   10   25 1
    21   11   12 1
    22   11   13 2
    23   12   26 1
    24   12   27 1
    25   13   14 1
    26   14   15 2
    27   14   16 1
@<TRIPOS>MOLECULE
ZINC19796052
   27    26     0     0     0
SMALL
USER_CHARGES

@<TRIPOS>ATOM
      1 C1         -0.0187    1.5258    0.0104 C.3       1 <0>        -0.1050
      2 C2          0.0021   -0.0041    0.0020 C.3       1 <0>        -0.1256
      3 C3         -1.4333   -0.5336    0.0129 C.3       1 <0>        -0.0468
      4 H1         -1.9862   -0.1019   -0.8214 H         1 <0>         0.1327
      5 C4         -1.4159   -2.0348   -0.1192 C.2       1 <0>         0.4921
      6 O1         -1.7304   -2.7338    0.8289 O.co2     1 <0>        -0.6808
      7 O2         -1.0874   -2.5501   -1.1742 O.co2     1 <0>        -0.6408
      8 N1         -2.0833   -0.1607    1.2764 N.4       1 <0>        -0.6128
      9 C5          1.4167    2.0553   -0.0004 C.3       1 <0>         0.0578
     10 N2          1.3968    3.5202    0.0076 N.2       1 <0>        -0.6142
     11 C6          2.5556    4.2104    0.0003 C.2       1 <0>         0.5440
     12 N3          3.7327    3.5520   -0.0145 N.pl3     1 <0>        -0.8545
     13 N4          2.5374    5.5571    0.0077 N.2       1 <0>        -0.4280
     14 N5          1.4116    6.1868    0.0218 N.pl3     1 <0>         0.2692
     15 O3          0.2801    5.5129    0.0290 O.2       1 <0>        -0.3868
     16 O4          1.3938    7.5037    0.0290 O.3       1 <0>        -0.4347
     17 H2         -0.5459    1.8868   -0.8726 H         1 <0>         0.0743
     18 H3         -0.5289    1.8773    0.9072 H         1 <0>         0.0541
     19 H4          0.5123   -0.3556   -0.8948 H         1 <0>         0.1045
     20 H5          0.5293   -0.3651    0.8851 H         1 <0>         0.0750
     21 H6         -2.0949    0.8443    1.3648 H         1 <0>         0.4188
     22 H7         -3.0299   -0.5100    1.2835 H         1 <0>         0.4273
     23 H8          1.9439    1.6943    0.8826 H         1 <0>         0.0266
     24 H9          1.9269    1.7038   -0.8972 H         1 <0>         0.0313
     25 H10         3.7459    2.5821   -0.0198 H         1 <0>         0.4001
     26 H11         4.5661    4.0484   -0.0198 H         1 <0>         0.3937
     27 H12        -1.5715   -0.5604    2.0487 H         1 <0>         0.4287
@<TRIPOS>BOND
     1    1    2 1
     2    1    9 1
     3    1   17 1
     4    1   18 1
     5    2    3 1
     6    2   19 1
     7    2   20 1
     8    3    4 1
     9    3    5 1
    10    3    8 1
    11    5    6 2
    12    5    7 1
    13    8   21 1
    14    8   22 1
    15    8   27 1
    16    9   10 1
    17    9   23 1
    18    9   24 1
    19   10   11 1
    20   11   12 1
    21   11   13 2
    22   12   25 1
    23   12   26 1
    24   13   14 1
    25   14   15 2
    26   14   16 1
@<TRIPOS>MOLECULE
ZINC01529776
   30    29     0     0     0
SMALL
USER_CHARGES

@<TRIPOS>ATOM
      1 C1         -0.0178    1.4608    0.0101 C.3       1 <0>         0.0551
      2 N1          0.0021   -0.0041    0.0020 N.pl3     1 <0>        -0.6967
      3 C2          0.5968   -0.6778   -1.0385 C.cat     1 <0>         0.7320
      4 N2          1.1429   -0.0132   -2.0177 N.pl3     1 <0>        -0.7705
      5 N3          0.6154   -2.0524   -1.0460 N.pl3     1 <0>        -0.7005
      6 C3          1.2492   -2.7703   -2.1547 C.3       1 <0>         0.0939
      7 C4          1.1321   -4.2776   -1.9196 C.3       1 <0>        -0.1464
      8 C5          1.7939   -5.0273   -3.0775 C.3       1 <0>        -0.1250
      9 C6          1.6769   -6.5346   -2.8423 C.3       1 <0>        -0.0511
     10 H1          0.6297   -6.7992   -2.6953 H         1 <0>         0.1370
     11 C7          2.2183   -7.2733   -4.0391 C.2       1 <0>         0.4860
     12 O1          3.2648   -7.8927   -3.9510 O.co2     1 <0>        -0.6645
     13 O2          1.6099   -7.2515   -5.0955 O.co2     1 <0>        -0.6296
     14 N4          2.4479   -6.9052   -1.6482 N.4       1 <0>        -0.6147
     15 H2          1.0048    1.8381    0.0023 H         1 <0>         0.0856
     16 H3         -0.5450    1.8219   -0.8730 H         1 <0>         0.0860
     17 H4         -0.5280    1.8123    0.9069 H         1 <0>         0.1178
     18 H5         -0.4044   -0.4986    0.7308 H         1 <0>         0.4371
     19 H6          1.5625   -0.4885   -2.7518 H         1 <0>         0.4413
     20 H7          0.2090   -2.5470   -0.3173 H         1 <0>         0.4341
     21 H8          0.7517   -2.5086   -3.0886 H         1 <0>         0.0993
     22 H9          2.3015   -2.4924   -2.2133 H         1 <0>         0.0954
     23 H10         1.6295   -4.5394   -0.9857 H         1 <0>         0.0726
     24 H11         0.0798   -4.5556   -1.8610 H         1 <0>         0.0947
     25 H12         1.2965   -4.7656   -4.0114 H         1 <0>         0.1189
     26 H13         2.8463   -4.7494   -3.1361 H         1 <0>         0.0903
     27 H14         2.0854   -6.4107   -0.8469 H         1 <0>         0.4084
     28 H15         2.3707   -7.8993   -1.4931 H         1 <0>         0.4382
     29 H16         1.1298    0.9567   -2.0124 H         1 <0>         0.4423
     30 H17         3.4172   -6.6604   -1.7843 H         1 <0>         0.4331
@<TRIPOS>BOND
     1    1    2 1
     2    1   15 1
     3    1   16 1
     4    1   17 1
     5    2    3 1
     6    2   18 1
     7    3    4 2
     8    3    5 1
     9    4   19 1
    10    4   29 1
    11    5    6 1
    12    5   20 1
    13    6    7 1
    14    6   21 1
    15    6   22 1
    16    7    8 1
    17    7   23 1
    18    7   24 1
    19    8    9 1
    20    8   25 1
    21    8   26 1
    22    9   10 1
    23    9   11 1
    24    9   14 1
    25   11   12 2
    26   11   13 1
    27   14   27 1
    28   14   28 1
    29   14   30 1
@<TRIPOS>MOLECULE
ZINC00160340
   19    20     0     0     0
SMALL
USER_CHARGES

@<TRIPOS>ATOM
      1 C1         -0.0167    1.3785    0.0096 C.ar      1 <0>        -0.1261
      2 C2          1.1697    2.0888    0.0021 C.ar      1 <0>        -0.0907
      3 C3          2.3774    1.4187   -0.0135 C.ar      1 <0>        -0.1346
      4 C4          2.3993    0.0307   -0.0212 C.ar      1 <0>         0.1326
      5 C5          1.2067   -0.6797   -0.0132 C.ar      1 <0>        -0.1335
      6 C6          0.0021   -0.0041    0.0020 C.ar      1 <0>        -0.0917
      7 N1          3.6239   -0.6525   -0.0375 N.pl3     1 <0>        -0.4128
      8 C7          3.7984   -2.0122   -0.0521 C.2       1 <0>        -0.0550
      9 C8          5.1264   -2.2349   -0.0648 C.2       1 <0>        -0.0205
     10 N2          5.7502   -1.0475   -0.0581 N.2       1 <0>        -0.4841
     11 C9          4.8611   -0.0920   -0.0477 C.2       1 <0>         0.1885
     12 H1         -0.9597    1.9046    0.0260 H         1 <0>         0.1313
     13 H2          1.1520    3.1687    0.0081 H         1 <0>         0.1351
     14 H3          3.3036    1.9740   -0.0201 H         1 <0>         0.1325
     15 H4          1.2207   -1.7596   -0.0195 H         1 <0>         0.1311
     16 H5         -0.9261   -0.5562    0.0083 H         1 <0>         0.1341
     17 H6          3.0202   -2.7611   -0.0530 H         1 <0>         0.1784
     18 H7          5.6063   -3.2023   -0.0776 H         1 <0>         0.1763
     19 H8          5.0736    0.9669   -0.0450 H         1 <0>         0.2091
@<TRIPOS>BOND
     1    1    6 ar
     2    1    2 ar
     3    1   12 1
     4    2    3 ar
     5    2   13 1
     6    3    4 ar
     7    3   14 1
     8    4    5 ar
     9    4    7 1
    10    5    6 ar
    11    5   15 1
    12    6   16 1
    13    7   11 1
    14    7    8 1
    15    8    9 2
    16    8   17 1
    17    9   10 1
    18    9   18 1
    19   10   11 2
    20   11   19 1
@<TRIPOS>MOLECULE
ZINC00160340
   20    21     0     0     0
SMALL
USER_CHARGES

@<TRIPOS>ATOM
      1 C1         -0.0167    1.3785    0.0096 C.ar      1 <0>        -0.0857
      2 C2          1.1697    2.0888    0.0021 C.ar      1 <0>        -0.0898
      3 C3          2.3774    1.4187   -0.0135 C.ar      1 <0>        -0.1013
      4 C4          2.3993    0.0307   -0.0212 C.ar      1 <0>         0.0731
      5 C5          1.2067   -0.6797   -0.0132 C.ar      1 <0>        -0.1101
      6 C6          0.0021   -0.0041    0.0020 C.ar      1 <0>        -0.0900
      7 N1          3.6239   -0.6525   -0.0375 N.pl3     1 <0>        -0.3470
      8 C7          4.8727   -0.0868   -0.0414 C.2       1 <0>         0.0213
      9 C8          5.7597   -1.0998   -0.0584 C.2       1 <0>         0.0120
     10 N2          5.0769   -2.2542   -0.0649 N.pl3     1 <0>        -0.4710
     11 C9          3.7969   -1.9997   -0.0465 C.cat     1 <0>         0.2831
     12 H1         -0.9597    1.9046    0.0260 H         1 <0>         0.1457
     13 H2          1.1520    3.1687    0.0081 H         1 <0>         0.1489
     14 H3          3.3036    1.9740   -0.0201 H         1 <0>         0.1413
     15 H4          1.2207   -1.7596   -0.0195 H         1 <0>         0.1387
     16 H5         -0.9261   -0.5562    0.0083 H         1 <0>         0.1487
     17 H6          5.1013    0.9687   -0.0328 H         1 <0>         0.2243
     18 H7          6.8350   -1.0000   -0.0660 H         1 <0>         0.2287
     19 H8          3.0075   -2.7368   -0.0420 H         1 <0>         0.2614
     20 H9          5.4725   -3.1398   -0.0769 H         1 <0>         0.4680
@<TRIPOS>BOND
     1    1    6 ar
     2    1    2 ar
     3    1   12 1
     4    2    3 ar
     5    2   13 1
     6    3    4 ar
     7    3   14 1
     8    4    5 ar
     9    4    7 1
    10    5    6 ar
    11    5   15 1
    12    6   16 1
    13    7   11 1
    14    7    8 1
    15    8    9 2
    16    8   17 1
    17    9   10 1
    18    9   18 1
    19   10   11 2
    20   10   20 1
    21   11   19 1
@<TRIPOS>MOLECULE
ZINC21982226
   28    27     0     0     0
SMALL
USER_CHARGES

@<TRIPOS>ATOM
      1 C1         -0.0117    1.5287   -0.1466 C.3       1 <0>        -0.1444
      2 C2          0.0130    0.0014   -0.2331 C.3       1 <0>        -0.1255
      3 C3         -1.4208   -0.5325   -0.2382 C.3       1 <0>        -0.0489
      4 H1         -1.9520   -0.1552    0.6357 H         1 <0>         0.1358
      5 C4         -1.3962   -2.0388   -0.1994 C.2       1 <0>         0.4861
      6 O1         -1.3999   -2.6212    0.8717 O.co2     1 <0>        -0.6333
      7 O2         -1.3725   -2.6750   -1.2392 O.co2     1 <0>        -0.6656
      8 N1         -2.1056   -0.0852   -1.4584 N.4       1 <0>        -0.6160
      9 C5          1.4221    2.0625   -0.1416 C.3       1 <0>         0.1026
     10 N2          1.3984    3.5250   -0.0588 N.pl3     1 <0>        -0.6811
     11 C6          2.5553    4.2182   -0.0399 C.2       1 <0>         0.7149
     12 N3          3.7340    3.5650   -0.0974 N.pl3     1 <0>        -0.8398
     13 N4          2.5335    5.5627    0.0362 N.2       1 <0>        -0.5044
     14 N5          3.6342    6.2311   -0.0411 N.pl3     1 <0>         0.1933
     15 O3          4.0483    6.6853   -1.2058 O.2       1 <0>        -0.2370
     16 O4          4.3437    6.4591    1.0447 O.3       1 <0>        -0.2440
     17 H2         -0.5468    1.9327   -1.0060 H         1 <0>         0.0712
     18 H3         -0.5157    1.8325    0.7708 H         1 <0>         0.0928
     19 H4          0.5171   -0.3025   -1.1506 H         1 <0>         0.0916
     20 H5          0.5481   -0.4026    0.6263 H         1 <0>         0.1136
     21 H6         -1.6139   -0.4344   -2.2673 H         1 <0>         0.4340
     22 H7         -3.0512   -0.4372   -1.4617 H         1 <0>         0.4334
     23 H8          1.9572    1.6586    0.7178 H         1 <0>         0.0896
     24 H9          1.9262    1.7587   -1.0591 H         1 <0>         0.0875
     25 H10         0.5508    3.9948   -0.0175 H         1 <0>         0.4331
     26 H11         3.7538    2.5960   -0.0591 H         1 <0>         0.4204
     27 H12         4.5618    4.0643   -0.1769 H         1 <0>         0.4280
     28 H13        -2.1221    0.9234   -1.4843 H         1 <0>         0.4121
@<TRIPOS>BOND
     1    1    2 1
     2    1    9 1
     3    1   17 1
     4    1   18 1
     5    2    3 1
     6    2   19 1
     7    2   20 1
     8    3    4 1
     9    3    5 1
    10    3    8 1
    11    5    6 2
    12    5    7 1
    13    8   21 1
    14    8   22 1
    15    8   28 1
    16    9   10 1
    17    9   23 1
    18    9   24 1
    19   10   11 1
    20   10   25 1
    21   11   12 1
    22   11   13 2
    23   12   26 1
    24   12   27 1
    25   13   14 1
    26   14   15 2
    27   14   16 1
@<TRIPOS>MOLECULE
ZINC21982226
   27    26     0     0     0
SMALL
USER_CHARGES

@<TRIPOS>ATOM
      1 C1         -0.0187    1.5258    0.0104 C.3       1 <0>        -0.1048
      2 C2          0.0021   -0.0041    0.0020 C.3       1 <0>        -0.1266
      3 C3         -1.4333   -0.5336    0.0129 C.3       1 <0>        -0.0459
      4 H1         -1.9701   -0.1109    0.8621 H         1 <0>         0.1321
      5 C4         -1.4136   -2.0361    0.1285 C.2       1 <0>         0.4902
      6 O1         -1.4274   -2.5632    1.2278 O.co2     1 <0>        -0.6431
      7 O2         -1.3838   -2.7245   -0.8773 O.co2     1 <0>        -0.6755
      8 N1         -2.1072   -0.1473   -1.2339 N.4       1 <0>        -0.6142
      9 C5          1.4167    2.0553   -0.0004 C.3       1 <0>         0.0577
     10 N2          1.3968    3.5202    0.0076 N.2       1 <0>        -0.6142
     11 C6          2.5556    4.2104    0.0003 C.2       1 <0>         0.5441
     12 N3          3.7327    3.5520   -0.0145 N.pl3     1 <0>        -0.8545
     13 N4          2.5374    5.5571    0.0077 N.2       1 <0>        -0.4280
     14 N5          1.4116    6.1868    0.0218 N.pl3     1 <0>         0.2691
     15 O3          0.2801    5.5129    0.0290 O.2       1 <0>        -0.3867
     16 O4          1.3938    7.5037    0.0290 O.3       1 <0>        -0.4346
     17 H2         -0.5459    1.8868   -0.8726 H         1 <0>         0.0545
     18 H3         -0.5289    1.8773    0.9072 H         1 <0>         0.0744
     19 H4          0.5123   -0.3556   -0.8948 H         1 <0>         0.0782
     20 H5          0.5293   -0.3651    0.8851 H         1 <0>         0.1007
     21 H6         -3.0538   -0.4965   -1.2267 H         1 <0>         0.4256
     22 H7         -2.1205    0.8587   -1.3113 H         1 <0>         0.4195
     23 H8          1.9439    1.6943    0.8826 H         1 <0>         0.0310
     24 H9          1.9269    1.7038   -0.8972 H         1 <0>         0.0269
     25 H10         3.7459    2.5821   -0.0198 H         1 <0>         0.4001
     26 H11         4.5661    4.0484   -0.0198 H         1 <0>         0.3937
     27 H12        -1.6103   -0.5386   -2.0201 H         1 <0>         0.4304
@<TRIPOS>BOND
     1    1    2 1
     2    1    9 1
     3    1   17 1
     4    1   18 1
     5    2    3 1
     6    2   19 1
     7    2   20 1
     8    3    4 1
     9    3    5 1
    10    3    8 1
    11    5    6 2
    12    5    7 1
    13    8   21 1
    14    8   22 1
    15    8   27 1
    16    9   10 1
    17    9   23 1
    18    9   24 1
    19   10   11 1
    20   11   12 1
    21   11   13 2
    22   12   25 1
    23   12   26 1
    24   13   14 1
    25   14   15 2
    26   14   16 1
@<TRIPOS>MOLECULE
ZINC03874402
   30    29     0     0     0
SMALL
USER_CHARGES

@<TRIPOS>ATOM
      1 C1         -0.0178    1.4608    0.0101 C.3       1 <0>         0.0454
      2 N1          0.0021   -0.0041    0.0020 N.pl3     1 <0>        -0.6589
      3 C2          0.5659   -0.6428   -0.9844 C.cat     1 <0>         0.7310
      4 N2          1.1420    0.0582   -2.0173 N.pl3     1 <0>        -0.8093
      5 N3          0.5845   -2.0175   -0.9920 N.pl3     1 <0>        -0.7009
      6 C3          1.2183   -2.7353   -2.1007 C.3       1 <0>         0.0965
      7 C4          1.1012   -4.2426   -1.8656 C.3       1 <0>        -0.1470
      8 C5          1.7630   -4.9924   -3.0235 C.3       1 <0>        -0.1248
      9 C6          1.6460   -6.4996   -2.7883 C.3       1 <0>        -0.0511
     10 H1          0.5989   -6.7642   -2.6413 H         1 <0>         0.1368
     11 C7          2.1874   -7.2383   -3.9851 C.2       1 <0>         0.4860
     12 O1          3.2339   -7.8577   -3.8970 O.co2     1 <0>        -0.6647
     13 O2          1.5790   -7.2165   -5.0414 O.co2     1 <0>        -0.6296
     14 N4          2.4170   -6.8703   -1.5941 N.4       1 <0>        -0.6147
     15 H2          1.0048    1.8381    0.0023 H         1 <0>         0.0938
     16 H3         -0.5450    1.8219   -0.8730 H         1 <0>         0.0941
     17 H4         -0.5280    1.8123    0.9069 H         1 <0>         0.1205
     18 H5          1.1288    1.0281   -2.0120 H         1 <0>         0.4381
     19 H6          1.5616   -0.4171   -2.7514 H         1 <0>         0.4371
     20 H7          0.1781   -2.5120   -0.2632 H         1 <0>         0.4333
     21 H8          0.7208   -2.4736   -3.0346 H         1 <0>         0.0989
     22 H9          2.2706   -2.4574   -2.1593 H         1 <0>         0.0949
     23 H10         1.5986   -4.5044   -0.9317 H         1 <0>         0.0719
     24 H11         0.0489   -4.5206   -1.8070 H         1 <0>         0.0940
     25 H12         1.2656   -4.7306   -3.9574 H         1 <0>         0.1188
     26 H13         2.8154   -4.7144   -3.0820 H         1 <0>         0.0902
     27 H14         2.0545   -6.3757   -0.7928 H         1 <0>         0.4083
     28 H15         2.3398   -7.8643   -1.4390 H         1 <0>         0.4381
     29 H16        -0.4044   -0.4986    0.7308 H         1 <0>         0.4402
     30 H17         3.3864   -6.6254   -1.7302 H         1 <0>         0.4332
@<TRIPOS>BOND
     1    1    2 1
     2    1   15 1
     3    1   16 1
     4    1   17 1
     5    2    3 2
     6    2   29 1
     7    3    4 1
     8    3    5 1
     9    4   18 1
    10    4   19 1
    11    5    6 1
    12    5   20 1
    13    6    7 1
    14    6   21 1
    15    6   22 1
    16    7    8 1
    17    7   23 1
    18    7   24 1
    19    8    9 1
    20    8   25 1
    21    8   26 1
    22    9   10 1
    23    9   11 1
    24    9   14 1
    25   11   12 2
    26   11   13 1
    27   14   27 1
    28   14   28 1
    29   14   30 1
@<TRIPOS>MOLECULE
ZINC03874404
   30    29     0     0     0
SMALL
USER_CHARGES
2-amino-5-(amino-methylimino-methyl)amino-pentanoic acid
@<TRIPOS>ATOM
      1 C1         -0.7711    1.5979   -7.4623 C.3       1 <0>         0.0585
      2 C2         -0.1175    1.1516   -5.1302 C.cat     1 <0>         0.7312
      3 N1          0.9602    0.4110   -5.5548 N.pl3     1 <0>        -0.8003
      4 N2         -0.3526    1.3147   -3.7855 N.pl3     1 <0>        -0.7002
      5 C3          0.5452    0.6992   -2.8050 C.3       1 <0>         0.0939
      6 C4          0.0625    1.0325   -1.3918 C.3       1 <0>        -0.1459
      7 C5          1.0001    0.3897   -0.3679 C.3       1 <0>        -0.1246
      8 C6          0.5175    0.7229    1.0452 C.3       1 <0>        -0.0175
      9 H1          0.4306    1.8040    1.1541 H         1 <0>         0.1417
     10 C7          1.5070    0.1946    2.0517 C.2       1 <0>         0.4490
     11 O1          1.2878   -0.8458    2.6257 O.co2     1 <0>        -0.6091
     12 H2         -0.8182    0.5501   -7.7591 H         1 <0>         0.0940
     13 H3         -1.5754    2.1498   -7.9487 H         1 <0>         0.1126
     14 H4          0.1896    2.0173   -7.7608 H         1 <0>         0.0944
     15 H5          1.5545    0.0034   -4.9056 H         1 <0>         0.4390
     16 H6          1.1260    0.2959   -6.5035 H         1 <0>         0.4382
     17 H7         -1.1129    1.8374   -3.4860 H         1 <0>         0.4330
     18 H8          1.5550    1.0852   -2.9445 H         1 <0>         0.0991
     19 H9          0.5472   -0.3820   -2.9427 H         1 <0>         0.0950
     20 H10        -0.9473    0.6466   -1.2524 H         1 <0>         0.0727
     21 H11         0.0605    2.1137   -1.2541 H         1 <0>         0.0948
     22 H12         1.0022   -0.6916   -0.5056 H         1 <0>         0.0919
     23 H13         2.0100    0.7756   -0.5073 H         1 <0>         0.1205
     24 H14        -1.4898    0.4859    0.6540 H         1 <0>         0.4147
     25 H15        -0.7393   -0.9022    1.1792 H         1 <0>         0.4360
     26 N3         -0.9713    1.7371   -5.9787 N.pl3     1 <0>        -0.6871
     27 H16        -1.7630    2.2814   -5.6163 H         1 <0>         0.4541
     28 O2          2.6318    0.8799    2.3104 O.co2     1 <0>        -0.6945
     29 N4         -0.7974    0.1078    1.2984 N.4       1 <0>        -0.6281
     30 H17        -1.0874    0.3153    2.2613 H         1 <0>         0.4430
@<TRIPOS>BOND
     1    1   12 1
     2    1   13 1
     3    1   14 1
     4    1   26 1
     5    2    3 1
     6    2    4 1
     7    2   26 2
     8    3   15 1
     9    3   16 1
    10    4    5 1
    11    4   17 1
    12    5    6 1
    13    5   18 1
    14    5   19 1
    15    6    7 1
    16    6   20 1
    17    6   21 1
    18    7    8 1
    19    7   22 1
    20    7   23 1
    21    8    9 1
    22    8   10 1
    23    8   29 1
    24   10   11 2
    25   10   28 1
    26   24   29 1
    27   25   29 1
    28   26   27 1
    29   29   30 1
@<TRIPOS>MOLECULE
ZINC13588706
   22    22     0     0     0
SMALL
USER_CHARGES
(4S,5R)-4-ethyl-5-methyl-4,5-dihydrooxazol-2-amine
@<TRIPOS>ATOM
      1 C1         -1.1322   -2.0948    0.7667 C.3       1 <0>        -0.1636
      2 C2         -1.1027   -0.5705    0.8962 C.3       1 <0>        -0.1423
      3 C3          0.0021   -0.0041    0.0020 C.3       1 <0>         0.0971
      4 H1         -0.1381   -0.4694   -0.9848 H         1 <0>         0.1396
      5 C4         -0.0189    1.5440    0.0105 C.3       1 <0>         0.0694
      6 H2         -0.5355    2.0244   -0.8335 H         1 <0>         0.1685
      7 O1          1.3911    1.8474   -0.0013 O.3       1 <0>        -0.2779
      8 C5          2.0423    0.7921    0.5270 C.cat     1 <0>         0.6601
      9 N1          1.3358   -0.2956    0.5631 N.pl3     1 <0>        -0.6580
     10 N2          3.3349    0.8619    0.9856 N.pl3     1 <0>        -0.7982
     11 C6         -0.6851    2.0774    1.2804 C.3       1 <0>        -0.1917
     12 H3         -1.9265   -2.5021    1.4096 H         1 <0>         0.0768
     13 H4         -0.1612   -2.5080    1.0772 H         1 <0>         0.0536
     14 H5         -1.3301   -2.3701   -0.2797 H         1 <0>         0.0678
     15 H6         -2.0737   -0.1573    0.5857 H         1 <0>         0.1058
     16 H7         -0.9048   -0.2952    1.9426 H         1 <0>         0.0852
     17 H8          3.8178   -0.0318    1.4076 H         1 <0>         0.4749
     18 H9          3.8874    1.8115    0.9309 H         1 <0>         0.4793
     19 H10        -0.6861    3.1772    1.2597 H         1 <0>         0.0924
     20 H11        -0.1273    1.7278    2.1616 H         1 <0>         0.0682
     21 H12        -1.7209    1.7107    1.3328 H         1 <0>         0.1061
     22 H13         1.7709   -1.2208    0.9689 H         1 <0>         0.4870
@<TRIPOS>BOND
     1    1    2 1
     2    1   12 1
     3    1   13 1
     4    1   14 1
     5    2    3 1
     6    2   15 1
     7    2   16 1
     8    3    4 1
     9    3    9 1
    10    3    5 1
    11    5    6 1
    12    5    7 1
    13    5   11 1
    14    7    8 1
    15    8    9 2
    16    8   10 1
    17    9   22 1
    18   10   17 1
    19   10   18 1
    20   11   19 1
    21   11   20 1
    22   11   21 1
@<TRIPOS>MOLECULE
ZINC03806245
   15    14     0     0     0
SMALL
USER_CHARGES

@<TRIPOS>ATOM
      1 C1         -0.0187    1.5258    0.0104 C.3       1 <0>        -0.1480
      2 C2          0.0021   -0.0041    0.0020 C.3       1 <0>        -0.1306
      3 S1         -1.6997   -0.6320    0.0149 S.3       1 <0>         0.0512
      4 C3         -1.5080   -2.3834    0.0037 C.cat     1 <0>         0.4860
      5 N1         -2.4237   -3.1579    0.5855 N.pl3     1 <0>        -0.7373
      6 N2         -0.4472   -2.9340   -0.5867 N.pl3     1 <0>        -0.7652
      7 H1          1.0039    1.9031    0.0027 H         1 <0>         0.1024
      8 H2         -0.5459    1.8868   -0.8726 H         1 <0>         0.0793
      9 H3         -0.5289    1.8773    0.9072 H         1 <0>         0.0802
     10 H4          0.5123   -0.3556   -0.8948 H         1 <0>         0.1073
     11 H5          0.5293   -0.3651    0.8851 H         1 <0>         0.1162
     12 H6         -3.1956   -2.7573    1.0150 H         1 <0>         0.4513
     13 H7          0.2192   -2.3704   -1.0100 H         1 <0>         0.4430
     14 H8         -0.3416   -3.8982   -0.5929 H         1 <0>         0.4314
     15 H9         -2.3181   -4.1222    0.5793 H         1 <0>         0.4328
@<TRIPOS>BOND
     1    1    2 1
     2    1    7 1
     3    1    8 1
     4    1    9 1
     5    2    3 1
     6    2   10 1
     7    2   11 1
     8    3    4 1
     9    4    5 2
    10    4    6 1
    11    5   12 1
    12    5   15 1
    13    6   13 1
    14    6   14 1
@<TRIPOS>MOLECULE
ZINC13588705
   22    22     0     0     0
SMALL
USER_CHARGES
(4S,5R)-5-ethyl-4-methyl-4,5-dihydrooxazol-2-amine
@<TRIPOS>ATOM
      1 C1         -4.2849    0.5684   -2.2501 C.3       1 <0>        -0.1628
      2 C2         -3.6506    1.9127   -1.8876 C.3       1 <0>        -0.1536
      3 C3         -3.4035    1.9697   -0.3788 C.3       1 <0>         0.0694
      4 H1         -4.3709    1.7567    0.0995 H         1 <0>         0.1679
      5 C4         -2.7255    3.3018    0.0246 C.3       1 <0>         0.0967
      6 H2         -3.0429    3.7153    0.9932 H         1 <0>         0.1393
      7 N1         -1.2969    2.9307    0.0297 N.pl3     1 <0>        -0.6599
      8 C5         -1.2097    1.6363    0.0167 C.cat     1 <0>         0.6595
      9 O1         -2.4031    1.0098    0.0189 O.3       1 <0>        -0.2753
     10 N2         -0.0111    0.9658    0.0074 N.pl3     1 <0>        -0.7983
     11 C6         -3.0065    4.3932   -1.0102 C.3       1 <0>        -0.1790
     12 H3         -4.4625    0.5274   -3.3349 H         1 <0>         0.0739
     13 H4         -5.2411    0.4587   -1.7175 H         1 <0>         0.0685
     14 H5         -3.6071   -0.2474   -1.9585 H         1 <0>         0.0618
     15 H6         -2.6944    2.0224   -2.4202 H         1 <0>         0.0739
     16 H7         -4.3284    2.7285   -2.1792 H         1 <0>         0.1098
     17 H8          0.0038   -0.1340   -0.0035 H         1 <0>         0.4791
     18 H9          0.9340    1.5286    0.0109 H         1 <0>         0.4750
     19 H10        -2.5148    5.3272   -0.7007 H         1 <0>         0.0857
     20 H11        -4.0916    4.5573   -1.0846 H         1 <0>         0.1017
     21 H12        -2.6151    4.0797   -1.9892 H         1 <0>         0.0785
     22 H13        -0.3834    3.5434    0.0419 H         1 <0>         0.4880
@<TRIPOS>BOND
     1    1    2 1
     2    1   12 1
     3    1   13 1
     4    1   14 1
     5    2    3 1
     6    2   15 1
     7    2   16 1
     8    3    4 1
     9    3    9 1
    10    3    5 1
    11    5    6 1
    12    5    7 1
    13    5   11 1
    14    7    8 2
    15    7   22 1
    16    8    9 1
    17    8   10 1
    18   10   17 1
    19   10   18 1
    20   11   19 1
    21   11   20 1
    22   11   21 1
@<TRIPOS>MOLECULE
ZINC38139718
   75    79     0     0     0
SMALL
USER_CHARGES

@<TRIPOS>ATOM
      1 C1          0.1818    1.5119    0.1041 C.3       1 <0>        -0.1504
      2 C2          0.0021   -0.0041    0.0020 C.3       1 <0>        -0.0564
      3 H1         -1.0603   -0.2466    0.0290 H         1 <0>         0.0815
      4 C3          0.6993   -0.6717    1.1593 C.2       1 <0>        -0.1480
      5 C4          0.0151   -1.4073    2.0000 C.2       1 <0>        -0.1467
      6 C5          0.7123   -2.0749    3.1573 C.3       1 <0>        -0.0574
      7 H2          1.7746   -1.8324    3.1303 H         1 <0>         0.0706
      8 C6          0.5326   -3.5909    3.0552 C.3       1 <0>        -0.1464
      9 C7          0.1088   -1.5772    4.4722 C.3       1 <0>        -0.0879
     10 C8          0.8166   -2.2550    5.6471 C.3       1 <0>        -0.1513
     11 C9          0.2885   -0.0613    4.5743 C.3       1 <0>        -0.1466
     12 C10         0.6046   -0.5009   -1.3106 C.3       1 <0>        -0.0714
     13 H3          1.6500   -0.2264   -1.3917 H         1 <0>         0.0746
     14 C11         0.4261   -2.0368   -1.4409 C.3       1 <0>        -0.1175
     15 C12        -0.2525   -2.2828   -2.8219 C.3       1 <0>        -0.1148
     16 C13         0.1117   -0.9953   -3.5752 C.3       1 <0>        -0.0719
     17 H4          1.2091   -1.0177   -3.7424 H         1 <0>         0.0796
     18 C14        -0.1854    0.0717   -2.5008 C.3       1 <0>        -0.0418
     19 C15         0.2533    1.4270   -3.0018 C.3       1 <0>        -0.1146
     20 C16        -0.5203    1.7342   -4.3000 C.3       1 <0>        -0.1080
     21 C17        -0.2078    0.6951   -5.3630 C.3       1 <0>        -0.0897
     22 H5          0.8799    0.7318   -5.5545 H         1 <0>         0.0819
     23 C18        -0.5399   -0.7300   -4.8908 C.3       1 <0>         0.1308
     24 C19        -2.0351   -0.9488   -4.9092 C.2       1 <0>        -0.1518
     25 C20        -2.5962   -0.7279   -6.1063 C.2       1 <0>        -0.1693
     26 C21        -1.5847   -0.3207   -7.1613 C.3       1 <0>         0.1168
     27 C22        -0.9154    0.9761   -6.6907 C.3       1 <0>        -0.0645
     28 C23         0.1234    1.4046   -7.7306 C.3       1 <0>        -0.1043
     29 C24        -0.5214    1.5756   -9.1032 C.3       1 <0>        -0.1511
     30 C25        -1.1918    0.2767   -9.5483 C.3       1 <0>         0.1063
     31 H6         -0.4398   -0.5072   -9.6440 H         1 <0>         0.0624
     32 C26        -2.2417   -0.1472   -8.5173 C.3       1 <0>        -0.0921
     33 O1         -1.8251    0.4789  -10.8144 O.3       1 <0>        -0.5676
     34 C27        -1.9643    2.0750   -6.5330 C.3       1 <0>        -0.1422
     35 O2         -0.5823   -1.3484   -7.2221 O.3       1 <0>        -0.1872
     36 O3          0.0059   -1.6229   -5.8953 O.3       1 <0>        -0.1916
     37 C28        -1.6580    0.1142   -2.0931 C.3       1 <0>        -0.1554
     38 H7          1.2277    1.7662   -0.0677 H         1 <0>         0.0552
     39 H8         -0.4393    2.0027   -0.6451 H         1 <0>         0.0641
     40 H9         -0.1149    1.8468    1.0981 H         1 <0>         0.0533
     41 H10         1.7630   -0.5437    1.2955 H         1 <0>         0.1040
     42 H11        -1.0486   -1.5353    1.8638 H         1 <0>         0.1047
     43 H12         0.9626   -3.9455    2.1184 H         1 <0>         0.0541
     44 H13         1.0368   -4.0738    3.8922 H         1 <0>         0.0588
     45 H14        -0.5298   -3.8334    3.0821 H         1 <0>         0.0543
     46 H15        -0.9536   -1.8198    4.4991 H         1 <0>         0.0686
     47 H16         1.8789   -2.0125    5.6201 H         1 <0>         0.0534
     48 H17         0.3866   -1.9005    6.5838 H         1 <0>         0.0537
     49 H18         0.6885   -3.3350    5.5743 H         1 <0>         0.0577
     50 H19         1.3508    0.1813    4.5473 H         1 <0>         0.0519
     51 H20        -0.2158    0.4216    3.7373 H         1 <0>         0.0568
     52 H21        -0.1415    0.2933    5.5110 H         1 <0>         0.0515
     53 H22         1.3983   -2.5274   -1.4149 H         1 <0>         0.0634
     54 H23        -0.2093   -2.4110   -0.6414 H         1 <0>         0.0695
     55 H24         0.1997   -3.1479   -3.3132 H         1 <0>         0.0658
     56 H25        -1.3214   -2.4139   -2.7240 H         1 <0>         0.0725
     57 H26         0.0305    2.1940   -2.2585 H         1 <0>         0.0773
     58 H27         1.3241    1.4221   -3.2107 H         1 <0>         0.0640
     59 H28        -1.5807    1.7620   -4.0761 H         1 <0>         0.0744
     60 H29        -0.1973    2.7197   -4.6498 H         1 <0>         0.0679
     61 H30        -2.6173   -1.2799   -4.0610 H         1 <0>         0.1370
     62 H31        -3.6545   -0.8304   -6.2966 H         1 <0>         0.1393
     63 H32         0.5723    2.3498   -7.4179 H         1 <0>         0.0708
     64 H33         0.9065    0.6448   -7.7877 H         1 <0>         0.0715
     65 H34        -1.2511    2.3818   -9.0877 H         1 <0>         0.0754
     66 H35         0.2578    1.8349   -9.8302 H         1 <0>         0.0659
     67 H36        -2.6743   -1.1047   -8.8273 H         1 <0>         0.0815
     68 H37        -3.0362    0.5922   -8.4701 H         1 <0>         0.0975
     69 H38        -1.2189    0.7441  -11.5196 H         1 <0>         0.3810
     70 H39        -1.4819    2.9918   -6.1942 H         1 <0>         0.0651
     71 H40        -2.4508    2.2533   -7.4920 H         1 <0>         0.0626
     72 H41        -2.7089    1.7640   -5.8002 H         1 <0>         0.0623
     73 H42        -1.7777    0.7713   -1.2317 H         1 <0>         0.0680
     74 H43        -2.2543    0.4917   -2.9237 H         1 <0>         0.0584
     75 H44        -1.9921   -0.8902   -1.8330 H         1 <0>         0.0602
@<TRIPOS>BOND
     1    1    2 1
     2    1   38 1
     3    1   39 1
     4    1   40 1
     5    2    3 1
     6    2    4 1
     7    2   12 1
     8    4    5 2
     9    4   41 1
    10    5    6 1
    11    5   42 1
    12    6    7 1
    13    6    8 1
    14    6    9 1
    15    8   43 1
    16    8   44 1
    17    8   45 1
    18    9   10 1
    19    9   11 1
    20    9   46 1
    21   10   47 1
    22   10   48 1
    23   10   49 1
    24   11   50 1
    25   11   51 1
    26   11   52 1
    27   12   13 1
    28   12   18 1
    29   12   14 1
    30   14   15 1
    31   14   53 1
    32   14   54 1
    33   15   16 1
    34   15   55 1
    35   15   56 1
    36   16   17 1
    37   16   23 1
    38   16   18 1
    39   18   19 1
    40   18   37 1
    41   19   20 1
    42   19   57 1
    43   19   58 1
    44   20   21 1
    45   20   59 1
    46   20   60 1
    47   21   22 1
    48   21   27 1
    49   21   23 1
    50   23   36 1
    51   23   24 1
    52   24   25 2
    53   24   61 1
    54   25   26 1
    55   25   62 1
    56   26   32 1
    57   26   27 1
    58   26   35 1
    59   27   28 1
    60   27   34 1
    61   28   29 1
    62   28   63 1
    63   28   64 1
    64   29   30 1
    65   29   65 1
    66   29   66 1
    67   30   31 1
    68   30   32 1
    69   30   33 1
    70   32   67 1
    71   32   68 1
    72   33   69 1
    73   34   70 1
    74   34   71 1
    75   34   72 1
    76   35   36 1
    77   37   73 1
    78   37   74 1
    79   37   75 1
@<TRIPOS>MOLECULE
ZINC13588691
   16    16     0     0     0
SMALL
USER_CHARGES
(5S)-5-(bromomethyl)-4,5-dihydrooxazol-2-amine
@<TRIPOS>ATOM
      1 C1         -0.7590    3.4953    0.0183 C.3       1 <0>         0.0706
      2 C2          0.7325    3.4562   -0.3949 C.3       1 <0>         0.0677
      3 H1          0.9425    3.6255   -1.4613 H         1 <0>         0.1496
      4 O1          1.1027    2.1201    0.0029 O.3       1 <0>        -0.2720
      5 C3         -0.0165    1.3692    0.0096 C.cat     1 <0>         0.6612
      6 N1         -1.1132    2.0625    0.0182 N.pl3     1 <0>        -0.6665
      7 N2          0.0021   -0.0041    0.0020 N.pl3     1 <0>        -0.7934
      8 C4          1.5429    4.5025    0.3729 C.3       1 <0>        -0.1150
      9 Br1         3.4343    4.3790   -0.1494 Br        1 <0>        -0.0991
     10 H2         -1.3932    4.0298   -0.7043 H         1 <0>         0.1443
     11 H3         -0.9175    3.9121    1.0238 H         1 <0>         0.1315
     12 H4         -0.9429   -0.5670    0.0080 H         1 <0>         0.4770
     13 H5          0.9620   -0.5411   -0.0101 H         1 <0>         0.4814
     14 H6          1.1621    5.5070    0.1366 H         1 <0>         0.1468
     15 H7          1.4481    4.3193    1.4534 H         1 <0>         0.1233
     16 H8         -2.0871    1.5512    0.0239 H         1 <0>         0.4927
@<TRIPOS>BOND
     1    1    6 1
     2    1    2 1
     3    1   10 1
     4    1   11 1
     5    2    3 1
     6    2    4 1
     7    2    8 1
     8    4    5 1
     9    5    6 2
    10    5    7 1
    11    6   16 1
    12    7   12 1
    13    7   13 1
    14    8    9 1
    15    8   14 1
    16    8   15 1
@<TRIPOS>MOLECULE
ZINC13588692
   16    16     0     0     0
SMALL
USER_CHARGES
(5R)-5-(bromomethyl)-4,5-dihydrooxazol-2-amine
@<TRIPOS>ATOM
      1 C1          1.3784    1.7785   -0.0016 C.3       1 <0>         0.0705
      2 C2          2.1664    0.5010    0.3775 C.3       1 <0>         0.0678
      3 H1          2.4412    0.4003    1.4379 H         1 <0>         0.1496
      4 O1          1.2420   -0.5319   -0.0213 O.3       1 <0>        -0.2721
      5 C3          0.0021   -0.0041    0.0020 C.cat     1 <0>         0.6612
      6 N1         -0.0155    1.2933    0.0092 N.pl3     1 <0>        -0.6664
      7 N2         -1.1382   -0.7693    0.0173 N.pl3     1 <0>        -0.7934
      8 C4          3.4720    0.4055   -0.4145 C.3       1 <0>        -0.1151
      9 Br1         4.4094   -1.2548    0.0648 Br        1 <0>        -0.0991
     10 H2          1.6272    2.1569   -1.0041 H         1 <0>         0.1315
     11 H3          1.4905    2.5884    0.7342 H         1 <0>         0.1441
     12 H4         -2.1255   -0.2847    0.0362 H         1 <0>         0.4770
     13 H5         -1.0642   -1.8668    0.0107 H         1 <0>         0.4814
     14 H6          3.2481    0.4023   -1.4915 H         1 <0>         0.1233
     15 H7          4.1101    1.2690   -0.1752 H         1 <0>         0.1468
     16 H8         -0.9755    1.8303    0.0214 H         1 <0>         0.4928
@<TRIPOS>BOND
     1    1    6 1
     2    1    2 1
     3    1   10 1
     4    1   11 1
     5    2    3 1
     6    2    4 1
     7    2    8 1
     8    4    5 1
     9    5    6 2
    10    5    7 1
    11    6   16 1
    12    7   12 1
    13    7   13 1
    14    8    9 1
    15    8   14 1
    16    8   15 1
@<TRIPOS>MOLECULE
ZINC40379072
   27    27     0     0     0
SMALL
USER_CHARGES

@<TRIPOS>ATOM
      1 C1         -0.0187    1.5258    0.0104 C.3       1 <0>        -0.1739
      2 C2          0.0021   -0.0041    0.0020 C.3       1 <0>         0.1562
      3 H1          0.5123   -0.3556   -0.8948 H         1 <0>         0.1047
      4 C3          0.7309   -0.5033    1.2229 C.ar      1 <0>        -0.1208
      5 C4          0.0808   -0.5585    2.4416 C.ar      1 <0>        -0.1152
      6 C5          0.7494   -1.0164    3.5615 C.ar      1 <0>        -0.1081
      7 C6          2.0680   -1.4196    3.4626 C.ar      1 <0>        -0.0991
      8 C7          2.7178   -1.3652    2.2438 C.ar      1 <0>        -0.1076
      9 C8          2.0479   -0.9113    1.1230 C.ar      1 <0>        -0.1001
     10 N1         -1.3723   -0.5112    0.0124 N.pl3     1 <0>        -0.6598
     11 C9         -2.0620   -0.6449   -1.1637 C.cat     1 <0>         0.5345
     12 N2         -1.4998   -0.3235   -2.2832 N.pl3     1 <0>        -0.7370
     13 C10        -3.4759   -1.1665   -1.1530 C.3       1 <0>        -0.1643
     14 H2          1.0039    1.9031    0.0027 H         1 <0>         0.0953
     15 H3         -0.5459    1.8868   -0.8726 H         1 <0>         0.0657
     16 H4         -0.5289    1.8773    0.9072 H         1 <0>         0.0806
     17 H5         -0.9493   -0.2435    2.5188 H         1 <0>         0.1203
     18 H6          0.2417   -1.0589    4.5138 H         1 <0>         0.1331
     19 H7          2.5905   -1.7767    4.3377 H         1 <0>         0.1335
     20 H8          3.7481   -1.6798    2.1666 H         1 <0>         0.1342
     21 H9          2.5545   -0.8723    0.1700 H         1 <0>         0.1283
     22 H10        -1.7940   -0.7522    0.8520 H         1 <0>         0.4396
     23 H11        -0.5898    0.0122   -2.2901 H         1 <0>         0.4279
     24 H12        -4.1702   -0.3323   -1.0524 H         1 <0>         0.1355
     25 H13        -3.6753   -1.6947   -2.0854 H         1 <0>         0.1243
     26 H14        -3.6047   -1.8498   -0.3136 H         1 <0>         0.1229
     27 H15        -1.9882   -0.4182   -3.1159 H         1 <0>         0.4492
@<TRIPOS>BOND
     1    1    2 1
     2    1   14 1
     3    1   15 1
     4    1   16 1
     5    2    3 1
     6    2    4 1
     7    2   10 1
     8    4    9 ar
     9    4    5 ar
    10    5    6 ar
    11    5   17 1
    12    6    7 ar
    13    6   18 1
    14    7    8 ar
    15    7   19 1
    16    8    9 ar
    17    8   20 1
    18    9   21 1
    19   10   11 1
    20   10   22 1
    21   11   12 2
    22   11   13 1
    23   12   23 1
    24   12   27 1
    25   13   24 1
    26   13   25 1
    27   13   26 1
@<TRIPOS>MOLECULE
ZINC40835971
   30    30     0     0     0
SMALL
USER_CHARGES

@<TRIPOS>ATOM
      1 C1         -0.0187    1.5258    0.0104 C.3       1 <0>        -0.1755
      2 C2          0.0021   -0.0041    0.0020 C.3       1 <0>        -0.1434
      3 C3          0.7421   -0.5109    1.2415 C.3       1 <0>         0.1598
      4 H1          0.2852   -0.0874    2.1360 H         1 <0>         0.1040
      5 C4          0.6567   -2.0144    1.2978 C.ar      1 <0>        -0.1203
      6 C5          1.5059   -2.7843    0.5250 C.ar      1 <0>        -0.1148
      7 C6          1.4276   -4.1635    0.5766 C.ar      1 <0>        -0.1081
      8 C7          0.5004   -4.7728    1.4012 C.ar      1 <0>        -0.0990
      9 C8         -0.3481   -4.0029    2.1747 C.ar      1 <0>        -0.1076
     10 C9         -0.2669   -2.6238    2.1263 C.ar      1 <0>        -0.0999
     11 N1          2.1476   -0.1038    1.1716 N.pl3     1 <0>        -0.6579
     12 C10         2.5245    1.1364    1.6153 C.cat     1 <0>         0.5339
     13 N2          1.6395    1.9477    2.0957 N.pl3     1 <0>        -0.7396
     14 C11         3.9704    1.5551    1.5433 C.3       1 <0>        -0.1643
     15 H2          1.0039    1.9031    0.0027 H         1 <0>         0.0512
     16 H3         -0.5459    1.8868   -0.8726 H         1 <0>         0.0844
     17 H4         -0.5289    1.8773    0.9072 H         1 <0>         0.0606
     18 H5         -1.0205   -0.3814    0.0098 H         1 <0>         0.1019
     19 H6          0.5123   -0.3556   -0.8948 H         1 <0>         0.0879
     20 H7          2.2302   -2.3083   -0.1193 H         1 <0>         0.1203
     21 H8          2.0905   -4.7649   -0.0277 H         1 <0>         0.1330
     22 H9          0.4388   -5.8503    1.4410 H         1 <0>         0.1334
     23 H10        -1.0727   -4.4789    2.8187 H         1 <0>         0.1341
     24 H11        -0.9273   -2.0224    2.7334 H         1 <0>         0.1281
     25 H12         2.8115   -0.7124    0.8112 H         1 <0>         0.4395
     26 H13         0.7088    1.6782    2.1420 H         1 <0>         0.4287
     27 H14         4.1610    2.0403    0.5861 H         1 <0>         0.1351
     28 H15         4.1877    2.2514    2.3533 H         1 <0>         0.1243
     29 H16         4.6083    0.6764    1.6387 H         1 <0>         0.1229
     30 H17         1.9063    2.8258    2.4098 H         1 <0>         0.4474
@<TRIPOS>BOND
     1    1    2 1
     2    1   15 1
     3    1   16 1
     4    1   17 1
     5    2    3 1
     6    2   18 1
     7    2   19 1
     8    3    4 1
     9    3    5 1
    10    3   11 1
    11    5   10 ar
    12    5    6 ar
    13    6    7 ar
    14    6   20 1
    15    7    8 ar
    16    7   21 1
    17    8    9 ar
    18    8   22 1
    19    9   10 ar
    20    9   23 1
    21   10   24 1
    22   11   12 1
    23   11   25 1
    24   12   13 2
    25   12   14 1
    26   13   26 1
    27   13   30 1
    28   14   27 1
    29   14   28 1
    30   14   29 1
@<TRIPOS>MOLECULE
ZINC40835973
   30    30     0     0     0
SMALL
USER_CHARGES

@<TRIPOS>ATOM
      1 C1         -0.0187    1.5258    0.0104 C.3       1 <0>        -0.1756
      2 C2          0.0021   -0.0041    0.0020 C.3       1 <0>        -0.1433
      3 C3          0.7421   -0.5109    1.2415 C.3       1 <0>         0.1598
      4 H1          1.7350   -0.0630    1.2804 H         1 <0>         0.1038
      5 C4          0.8700   -2.0108    1.1719 C.ar      1 <0>        -0.1206
      6 C5         -0.2011   -2.8127    1.5194 C.ar      1 <0>        -0.1146
      7 C6         -0.0837   -4.1886    1.4555 C.ar      1 <0>        -0.1082
      8 C7          1.1045   -4.7626    1.0437 C.ar      1 <0>        -0.0989
      9 C8          2.1753   -3.9607    0.6954 C.ar      1 <0>        -0.1077
     10 C9          2.0565   -2.5847    0.7552 C.ar      1 <0>        -0.0999
     11 N1         -0.0083   -0.1401    2.4439 N.pl3     1 <0>        -0.6578
     12 C10         0.1670    1.0967    3.0065 C.cat     1 <0>         0.5339
     13 N2          0.9948    1.9369    2.4762 N.pl3     1 <0>        -0.7397
     14 C11        -0.6049    1.4782    4.2433 C.3       1 <0>        -0.1643
     15 H2          1.0039    1.9031    0.0027 H         1 <0>         0.0605
     16 H3         -0.5459    1.8868   -0.8726 H         1 <0>         0.0844
     17 H4         -0.5289    1.8773    0.9072 H         1 <0>         0.0515
     18 H5         -1.0205   -0.3814    0.0098 H         1 <0>         0.0879
     19 H6          0.5123   -0.3556   -0.8948 H         1 <0>         0.1019
     20 H7         -1.1294   -2.3643    1.8410 H         1 <0>         0.1205
     21 H8         -0.9203   -4.8151    1.7276 H         1 <0>         0.1330
     22 H9          1.1964   -5.8376    0.9945 H         1 <0>         0.1334
     23 H10         3.1037   -4.4091    0.3740 H         1 <0>         0.1341
     24 H11         2.8919   -1.9582    0.4795 H         1 <0>         0.1281
     25 H12        -0.6292   -0.7703    2.8417 H         1 <0>         0.4395
     26 H13         1.4917    1.6914    1.6801 H         1 <0>         0.4287
     27 H14        -0.0351    1.1960    5.1286 H         1 <0>         0.1352
     28 H15        -0.7743    2.5549    4.2482 H         1 <0>         0.1242
     29 H16        -1.5636    0.9596    4.2477 H         1 <0>         0.1229
     30 H17         1.1190    2.8126    2.8745 H         1 <0>         0.4474
@<TRIPOS>BOND
     1    1    2 1
     2    1   15 1
     3    1   16 1
     4    1   17 1
     5    2    3 1
     6    2   18 1
     7    2   19 1
     8    3    4 1
     9    3    5 1
    10    3   11 1
    11    5   10 ar
    12    5    6 ar
    13    6    7 ar
    14    6   20 1
    15    7    8 ar
    16    7   21 1
    17    8    9 ar
    18    8   22 1
    19    9   10 ar
    20    9   23 1
    21   10   24 1
    22   11   12 1
    23   11   25 1
    24   12   13 2
    25   12   14 1
    26   13   26 1
    27   13   30 1
    28   14   27 1
    29   14   28 1
    30   14   29 1
@<TRIPOS>MOLECULE
ZINC40448363
   16    17     0     0     0
SMALL
USER_CHARGES

@<TRIPOS>ATOM
      1 C1         -0.0163    1.3540    0.0095 C.ar      1 <0>        -0.1539
      2 C2          1.1440    2.1183    0.0025 C.ar      1 <0>         0.0024
      3 C3          2.3973    1.5266   -0.0131 C.ar      1 <0>        -0.0178
      4 C4          2.4810    0.0621   -0.0218 C.ar      1 <0>         0.1343
      5 C5          1.2243   -0.7036   -0.0134 C.ar      1 <0>        -0.1714
      6 C6          0.0021   -0.0041    0.0020 C.ar      1 <0>        -0.0075
      7 C7          1.5853   -2.0411   -0.0242 C.2       1 <0>         0.1034
      8 N1          2.9235   -2.1043   -0.0378 N.pl3     1 <0>        -0.3999
      9 H1          3.4421   -2.9240   -0.0473 H         1 <0>         0.4520
     10 N2          3.4628   -0.8126   -0.0362 N.2       1 <0>        -0.2672
     11 Br1         0.4004   -3.5148   -0.0197 Br        1 <0>         0.0524
     12 C8          3.5845    2.3274   -0.0211 C.1       1 <0>         0.2568
     13 N3          4.5262    2.9627   -0.0274 N.1       1 <0>        -0.4088
     14 H2         -0.9705    1.8597    0.0259 H         1 <0>         0.1416
     15 H3          1.0678    3.1956    0.0090 H         1 <0>         0.1461
     16 H4         -0.9285   -0.5522    0.0080 H         1 <0>         0.1374
@<TRIPOS>BOND
     1    1    6 ar
     2    1    2 ar
     3    1   14 1
     4    2    3 ar
     5    2   15 1
     6    3    4 ar
     7    3   12 1
     8    4   10 2
     9    4    5 ar
    10    5    6 ar
    11    5    7 2
    12    6   16 1
    13    7    8 1
    14    7   11 1
    15    8    9 1
    16    8   10 1
    17   12   13 3
@<TRIPOS>MOLECULE
ZINC40448363
   16    17     0     0     0
SMALL
USER_CHARGES

@<TRIPOS>ATOM
      1 C1         -0.0166    1.3722    0.0096 C.ar      1 <0>        -0.1551
      2 C2          1.1650    2.0955    0.0022 C.ar      1 <0>        -0.0034
      3 C3          2.3933    1.4412   -0.0135 C.ar      1 <0>        -0.0529
      4 C4          2.4301    0.0350   -0.0215 C.ar      1 <0>         0.1730
      5 C5          1.2231   -0.6874   -0.0133 C.ar      1 <0>        -0.1591
      6 C6          0.0021   -0.0041    0.0020 C.ar      1 <0>         0.0001
      7 C7          1.5921   -2.1007   -0.0246 C.2       1 <0>         0.0965
      8 N1          2.8931   -2.1699   -0.0379 N.2       1 <0>        -0.2017
      9 N2          3.4412   -0.8832   -0.0364 N.pl3     1 <0>        -0.4896
     10 H1          4.3888   -0.6758   -0.0447 H         1 <0>         0.4487
     11 Br1         0.3967   -3.5660   -0.0206 Br        1 <0>         0.0645
     12 C8          3.6113    2.1943   -0.0221 C.1       1 <0>         0.2460
     13 N3          4.5775    2.7917   -0.0288 N.1       1 <0>        -0.4050
     14 H2         -0.9622    1.8937    0.0260 H         1 <0>         0.1472
     15 H3          1.1328    3.1750    0.0083 H         1 <0>         0.1469
     16 H4         -0.9258   -0.5567    0.0079 H         1 <0>         0.1440
@<TRIPOS>BOND
     1    1    6 ar
     2    1    2 ar
     3    1   14 1
     4    2    3 ar
     5    2   15 1
     6    3    4 ar
     7    3   12 1
     8    4    9 1
     9    4    5 ar
    10    5    6 ar
    11    5    7 1
    12    6   16 1
    13    7    8 2
    14    7   11 1
    15    8    9 1
    16    9   10 1
    17   12   13 3
@<TRIPOS>MOLECULE
ZINC15539939
   24    24     0     0     0
SMALL
USER_CHARGES

@<TRIPOS>ATOM
      1 C1         -0.0184    1.5028    0.0103 C.3       1 <0>        -0.1642
      2 C2          0.0021   -0.0041    0.0020 C.cat     1 <0>         0.5301
      3 N1          0.0215   -0.6566    1.1184 N.pl3     1 <0>        -0.7356
      4 N2          0.0000   -0.6826   -1.1881 N.pl3     1 <0>        -0.6602
      5 C3          0.0199   -2.1475   -1.1962 C.3       1 <0>         0.1226
      6 C4          0.0131   -2.6421   -2.6197 C.ar      1 <0>        -0.1418
      7 C5         -1.1870   -2.8799   -3.2631 C.ar      1 <0>        -0.0933
      8 C6         -1.1932   -3.3336   -4.5688 C.ar      1 <0>        -0.1170
      9 C7          0.0007   -3.5492   -5.2313 C.ar      1 <0>        -0.0895
     10 C8          1.2009   -3.3105   -4.5882 C.ar      1 <0>        -0.1170
     11 C9          1.2070   -2.8527   -3.2839 C.ar      1 <0>        -0.0933
     12 H1          1.0042    1.8801    0.0026 H         1 <0>         0.1343
     13 H2         -0.5455    1.8639   -0.8728 H         1 <0>         0.1225
     14 H3         -0.5286    1.8543    0.9071 H         1 <0>         0.1234
     15 H4          0.0347   -1.6265    1.1130 H         1 <0>         0.4288
     16 H5         -0.0146   -0.1932   -2.0255 H         1 <0>         0.4418
     17 H6          0.9196   -2.5014   -0.6928 H         1 <0>         0.1023
     18 H7         -0.8601   -2.5256   -0.6760 H         1 <0>         0.1026
     19 H8         -2.1198   -2.7115   -2.7455 H         1 <0>         0.1269
     20 H9         -2.1309   -3.5201   -5.0713 H         1 <0>         0.1335
     21 H10        -0.0041   -3.9043   -6.2512 H         1 <0>         0.1337
     22 H11         2.1337   -3.4792   -5.1057 H         1 <0>         0.1335
     23 H12         2.1446   -2.6627   -2.7827 H         1 <0>         0.1268
     24 H13         0.0230   -0.1762    1.9610 H         1 <0>         0.4492
@<TRIPOS>BOND
     1    1    2 1
     2    1   12 1
     3    1   13 1
     4    1   14 1
     5    2    3 2
     6    2    4 1
     7    3   15 1
     8    3   24 1
     9    4    5 1
    10    4   16 1
    11    5    6 1
    12    5   17 1
    13    5   18 1
    14    6   11 ar
    15    6    7 ar
    16    7    8 ar
    17    7   19 1
    18    8    9 ar
    19    8   20 1
    20    9   10 ar
    21    9   21 1
    22   10   11 ar
    23   10   22 1
    24   11   23 1
@<TRIPOS>MOLECULE
ZINC03870920
   17    18     0     0     0
SMALL
USER_CHARGES

@<TRIPOS>ATOM
      1 C1         -0.0168    1.3850    0.0097 C.ar      1 <0>        -0.1565
      2 C2         -1.2007    2.0644    0.0189 C.ar      1 <0>         0.0238
      3 C3         -2.4058    1.3542    0.0208 C.ar      1 <0>        -0.1610
      4 C4         -2.3847   -0.0541    0.0130 C.ar      1 <0>         0.1805
      5 C5         -1.1617   -0.7198    0.0040 C.ar      1 <0>        -0.0724
      6 C6          0.0021   -0.0041    0.0020 C.ar      1 <0>         0.0145
      7 N1         -1.1226   -2.1995   -0.0038 N.pl3     1 <0>         0.0428
      8 O1         -0.0600   -2.7760   -0.0116 O.2       1 <0>        -0.1418
      9 O2         -2.1532   -2.8315   -0.0024 O.3       1 <0>        -0.1839
     10 N2         -3.6911   -0.4684    0.0169 N.pl3     1 <0>        -0.4696
     11 N3         -4.5268    0.6531    0.0270 N.2       1 <0>        -0.1930
     12 H1         -3.9885   -1.3917    0.0128 H         1 <0>         0.4605
     13 C7         -3.8130    1.7431    0.0295 C.2       1 <0>         0.0991
     14 Br1        -4.4803    3.5124    0.0417 Br        1 <0>         0.0749
     15 H2          0.9141    1.9326    0.0037 H         1 <0>         0.1601
     16 H3         -1.2069    3.1444    0.0252 H         1 <0>         0.1553
     17 H4          0.9483   -0.5246   -0.0095 H         1 <0>         0.1670
@<TRIPOS>BOND
     1    1    6 ar
     2    1   15 1
     3    1    2 ar
     4    2   16 1
     5    2    3 ar
     6    3    4 ar
     7    3   13 1
     8    4   10 1
     9    4    5 ar
    10    5    7 1
    11    5    6 ar
    12    6   17 1
    13    7    8 2
    14    7    9 1
    15   10   11 1
    16   10   12 1
    17   11   13 2
    18   13   14 1
@<TRIPOS>MOLECULE
ZINC04217344
   15    15     0     0     0
SMALL
USER_CHARGES

@<TRIPOS>ATOM
      1 C1         -0.0162    1.3469    0.0094 C.2       1 <0>        -0.1875
      2 C2          1.3106    1.7976   -0.0008 C.2       1 <0>         0.1291
      3 N1          2.1001    0.7562   -0.0139 N.2       1 <0>        -0.2737
      4 N2          1.3054   -0.3975   -0.0125 N.pl3     1 <0>        -0.3868
      5 C3          0.0021   -0.0041    0.0020 C.2       1 <0>         0.0448
      6 C4          1.7633   -1.7037   -0.0243 C.cat     1 <0>         0.7853
      7 N3          3.0692   -1.9500   -0.0381 N.pl3     1 <0>        -0.7521
      8 N4          0.8970   -2.7116   -0.0219 N.pl3     1 <0>        -0.7701
      9 H1         -0.8983    1.9699    0.0253 H         1 <0>         0.1871
     10 H2          1.6271    2.8302    0.0017 H         1 <0>         0.2222
     11 H3         -0.8605   -0.6539    0.0073 H         1 <0>         0.2029
     12 H4          3.7015   -1.2144   -0.0398 H         1 <0>         0.4547
     13 H5         -0.0561   -2.5319   -0.0119 H         1 <0>         0.4452
     14 H6          1.2179   -3.6270   -0.0302 H         1 <0>         0.4513
     15 H7          3.3901   -2.8653   -0.0463 H         1 <0>         0.4475
@<TRIPOS>BOND
     1    1    5 2
     2    1    2 1
     3    1    9 1
     4    2    3 2
     5    2   10 1
     6    3    4 1
     7    4    5 1
     8    4    6 1
     9    5   11 1
    10    6    7 2
    11    6    8 1
    12    7   12 1
    13    7   15 1
    14    8   13 1
    15    8   14 1
@<TRIPOS>MOLECULE
ZINC13779334
   27    27     0     0     0
SMALL
USER_CHARGES
(6R)-6-ethyl-3,4,5,6-tetrahydro-2H-azepin-7-amine
@<TRIPOS>ATOM
      1 C1          3.4061    2.4384   -1.2526 C.3       1 <0>        -0.1600
      2 C2          2.2117    1.4988   -1.0746 C.3       1 <0>        -0.1557
      3 C3          1.2784    2.0585    0.0009 C.3       1 <0>        -0.0786
      4 H1          1.3540    3.1558    0.0125 H         1 <0>         0.1280
      5 C4          1.6655    1.4850    1.3661 C.3       1 <0>        -0.1170
      6 C5          2.1538    0.0527    1.2247 C.3       1 <0>        -0.1470
      7 C6          1.0708   -0.9070    0.7609 C.3       1 <0>        -0.1486
      8 C7          0.6274   -0.5751   -0.6650 C.3       1 <0>         0.0432
      9 N1         -0.4293    0.4468   -0.6070 N.pl3     1 <0>        -0.6233
     10 C8         -0.1478    1.6564   -0.3050 C.cat     1 <0>         0.5285
     11 N2         -1.1434    2.5966   -0.2636 N.pl3     1 <0>        -0.8273
     12 H2          4.0771    2.0360   -2.0258 H         1 <0>         0.0724
     13 H3          3.9517    2.5222   -0.3011 H         1 <0>         0.0678
     14 H4          3.0482    3.4324   -1.5588 H         1 <0>         0.0627
     15 H5          1.6661    1.4150   -2.0261 H         1 <0>         0.0750
     16 H6          2.5696    0.5047   -0.7684 H         1 <0>         0.1134
     17 H7          2.4694    2.0942    1.8051 H         1 <0>         0.1024
     18 H8          0.7897    1.4992    2.0315 H         1 <0>         0.0764
     19 H9          2.9691    0.0144    0.4872 H         1 <0>         0.0884
     20 H10         2.5217   -0.3070    2.1970 H         1 <0>         0.0881
     21 H11         1.4593   -1.9359    0.7816 H         1 <0>         0.1027
     22 H12         0.2013   -0.8298    1.4302 H         1 <0>         0.0772
     23 H13         1.4858   -0.1917   -1.2360 H         1 <0>         0.1384
     24 H14         0.2410   -1.4838   -1.1497 H         1 <0>         0.1194
     25 H15        -2.1816    2.3084   -0.4853 H         1 <0>         0.4496
     26 H16        -0.9046    3.6397   -0.0086 H         1 <0>         0.4701
     27 H17        -1.4690    0.1624   -0.8263 H         1 <0>         0.4538
@<TRIPOS>BOND
     1    1    2 1
     2    1   12 1
     3    1   13 1
     4    1   14 1
     5    2    3 1
     6    2   15 1
     7    2   16 1
     8    3    4 1
     9    3   10 1
    10    3    5 1
    11    5    6 1
    12    5   17 1
    13    5   18 1
    14    6    7 1
    15    6   19 1
    16    6   20 1
    17    7    8 1
    18    7   21 1
    19    7   22 1
    20    8    9 1
    21    8   23 1
    22    8   24 1
    23    9   10 2
    24    9   27 1
    25   10   11 1
    26   11   25 1
    27   11   26 1
@<TRIPOS>MOLECULE
ZINC13779335
   27    27     0     0     0
SMALL
USER_CHARGES
(6S)-6-ethyl-3,4,5,6-tetrahydro-2H-azepin-7-amine
@<TRIPOS>ATOM
      1 C1          1.8673    2.9182   -1.6209 C.3       1 <0>        -0.1600
      2 C2          0.7361    3.5646   -0.8188 C.3       1 <0>        -0.1553
      3 C3         -0.6121    3.0942   -1.3683 C.3       1 <0>        -0.0787
      4 H1         -0.5091    2.8773   -2.4418 H         1 <0>         0.1277
      5 C4         -1.0663    1.8427   -0.6132 C.3       1 <0>        -0.1170
      6 C5         -0.6433    1.9157    0.8447 C.3       1 <0>        -0.1470
      7 C6         -1.3344    3.0305    1.6121 C.3       1 <0>        -0.1487
      8 C7         -0.9018    4.3999    1.0840 C.3       1 <0>         0.0435
      9 N1         -1.7704    4.7652   -0.0457 N.pl3     1 <0>        -0.6233
     10 C8         -1.6498    4.1781   -1.1746 C.cat     1 <0>         0.5286
     11 N2         -2.4654    4.5331   -2.2165 N.pl3     1 <0>        -0.8273
     12 H2          2.8366    3.2564   -1.2258 H         1 <0>         0.0724
     13 H3          1.7803    3.2098   -2.6780 H         1 <0>         0.0628
     14 H4          1.7983    1.8237   -1.5356 H         1 <0>         0.0678
     15 H5          0.8231    3.2730    0.2383 H         1 <0>         0.1131
     16 H6          0.8051    4.6591   -0.9041 H         1 <0>         0.0750
     17 H7         -2.1622    1.7620   -0.6630 H         1 <0>         0.0764
     18 H8         -0.6119    0.9523   -1.0723 H         1 <0>         0.1024
     19 H9         -0.8868    0.9668    1.3451 H         1 <0>         0.0881
     20 H10         0.4406    2.0936    0.9036 H         1 <0>         0.0884
     21 H11        -2.4241    2.9335    1.4976 H         1 <0>         0.0772
     22 H12        -1.0700    2.9608    2.6776 H         1 <0>         0.1025
     23 H13        -0.9957    5.1481    1.8849 H         1 <0>         0.1196
     24 H14         0.1450    4.3500    0.7497 H         1 <0>         0.1382
     25 H15        -3.2211    5.3206   -2.0798 H         1 <0>         0.4497
     26 H16        -2.3646    4.0306   -3.1898 H         1 <0>         0.4701
     27 H17        -2.5286    5.5510    0.0874 H         1 <0>         0.4538
@<TRIPOS>BOND
     1    1    2 1
     2    1   12 1
     3    1   13 1
     4    1   14 1
     5    2    3 1
     6    2   15 1
     7    2   16 1
     8    3    4 1
     9    3   10 1
    10    3    5 1
    11    5    6 1
    12    5   17 1
    13    5   18 1
    14    6    7 1
    15    6   19 1
    16    6   20 1
    17    7    8 1
    18    7   21 1
    19    7   22 1
    20    8    9 1
    21    8   23 1
    22    8   24 1
    23    9   10 2
    24    9   27 1
    25   10   11 1
    26   11   25 1
    27   11   26 1
@<TRIPOS>MOLECULE
ZINC13588690
   13    13     0     0     0
SMALL
USER_CHARGES

@<TRIPOS>ATOM
      1 C1         -0.0179    1.4722    0.0101 C.3       1 <0>         0.0573
      2 C2          1.4811    1.8457   -0.0022 C.3       1 <0>         0.0334
      3 O1          2.1233    0.6107    0.3724 O.3       1 <0>        -0.2751
      4 C3          1.3208   -0.3901   -0.0597 C.cat     1 <0>         0.6750
      5 N1          1.7372   -1.5510   -0.4739 N.pl3     1 <0>        -0.7031
      6 N2          0.0021   -0.0041    0.0020 N.pl3     1 <0>        -0.6903
      7 H1         -0.5001    1.8455    0.9136 H         1 <0>         0.1258
      8 H2         -0.5172    1.8552   -0.8799 H         1 <0>         0.1283
      9 H3          1.7933    2.1559   -0.9994 H         1 <0>         0.1233
     10 H4          1.6902    2.6265    0.7291 H         1 <0>         0.1554
     11 H5          2.6867   -1.7488   -0.4883 H         1 <0>         0.4560
     12 H6         -0.7694   -0.5911    0.0344 H         1 <0>         0.4593
     13 H7          1.0982   -2.2187   -0.7684 H         1 <0>         0.4547
@<TRIPOS>BOND
     1    1    6 1
     2    1    2 1
     3    1    7 1
     4    1    8 1
     5    2    3 1
     6    2    9 1
     7    2   10 1
     8    3    4 1
     9    4    5 2
    10    4    6 1
    11    5   11 1
    12    5   13 1
    13    6   12 1
@<TRIPOS>MOLECULE
ZINC13588690
   13    13     0     0     0
SMALL
USER_CHARGES

@<TRIPOS>ATOM
      1 C1         -0.0179    1.4717    0.0101 C.3       1 <0>         0.0459
      2 C2          1.4919    1.8138   -0.0024 C.3       1 <0>         0.0340
      3 O1          2.0502    0.6147   -0.5777 O.3       1 <0>        -0.2709
      4 C3          1.1932   -0.3960   -0.3312 C.cat     1 <0>         0.6756
      5 N1          0.0021   -0.0041    0.0020 N.pl3     1 <0>        -0.6456
      6 N2          1.5482   -1.7194   -0.4243 N.pl3     1 <0>        -0.7599
      7 H1         -0.4952    1.8497    0.9143 H         1 <0>         0.1426
      8 H2         -0.5124    1.8593   -0.8806 H         1 <0>         0.1317
      9 H3          1.6918    2.6801   -0.6330 H         1 <0>         0.1586
     10 H4          1.8656    1.9733    1.0090 H         1 <0>         0.1276
     11 H5          2.4526   -1.9623   -0.6772 H         1 <0>         0.4503
     12 H6          0.8946   -2.4113   -0.2371 H         1 <0>         0.4482
     13 H7         -0.7479   -0.5827    0.2107 H         1 <0>         0.4619
@<TRIPOS>BOND
     1    1    5 1
     2    1    2 1
     3    1    7 1
     4    1    8 1
     5    2    3 1
     6    2    9 1
     7    2   10 1
     8    3    4 1
     9    4    5 2
    10    4    6 1
    11    5   13 1
    12    6   11 1
    13    6   12 1
@<TRIPOS>MOLECULE
ZINC13476792
   26    26     0     0     0
SMALL
USER_CHARGES

@<TRIPOS>ATOM
      1 C1         -0.0184    1.5028    0.0103 C.3       1 <0>        -0.1441
      2 C2          0.0021   -0.0041    0.0020 C.2       1 <0>         0.0325
      3 C3          0.0058   -0.6692   -1.1498 C.2       1 <0>        -0.2369
      4 C4          0.0258   -2.1441   -1.1292 C.cat     1 <0>         0.5752
      5 N1         -0.3351   -2.7868   -0.0556 N.pl3     1 <0>        -0.6207
      6 C5         -0.7745   -2.0684    1.1395 C.3       1 <0>         0.1292
      7 H1         -0.6187   -2.6971    2.0162 H         1 <0>         0.1376
      8 C6          0.0248   -0.7719    1.2990 C.3       1 <0>        -0.1366
      9 C7         -2.2625   -1.7359    1.0124 C.3       1 <0>        -0.1117
     10 C8         -3.0629   -3.0127    0.9960 C.2       1 <0>        -0.1946
     11 C9         -4.0315   -3.1896    1.8600 C.2       1 <0>        -0.1504
     12 N2          0.4268   -2.8433   -2.2485 N.pl3     1 <0>        -0.7918
     13 H2          1.0042    1.8801    0.0026 H         1 <0>         0.1028
     14 H3         -0.5455    1.8639   -0.8728 H         1 <0>         0.0909
     15 H4         -0.5286    1.8543    0.9071 H         1 <0>         0.0918
     16 H5         -0.0060   -0.1359   -2.0889 H         1 <0>         0.1730
     17 H6          1.0558   -1.0073    1.5631 H         1 <0>         0.1171
     18 H7         -0.4216   -0.1657    2.0872 H         1 <0>         0.1303
     19 H8         -2.5717   -1.1241    1.8598 H         1 <0>         0.1043
     20 H9         -2.4344   -1.1874    0.0863 H         1 <0>         0.0845
     21 H10        -2.8379   -3.7817    0.2719 H         1 <0>         0.1060
     22 H11        -4.2565   -2.4205    2.5841 H         1 <0>         0.1053
     23 H12        -4.6052   -4.1046    1.8482 H         1 <0>         0.1070
     24 H13         0.6954   -2.3652   -3.0486 H         1 <0>         0.4431
     25 H14         0.4401   -3.8131   -2.2355 H         1 <0>         0.4263
     26 H15        -0.3124   -3.7565   -0.0489 H         1 <0>         0.4295
@<TRIPOS>BOND
     1    1    2 1
     2    1   13 1
     3    1   14 1
     4    1   15 1
     5    2    8 1
     6    2    3 2
     7    3    4 1
     8    3   16 1
     9    4    5 2
    10    4   12 1
    11    5    6 1
    12    5   26 1
    13    6    7 1
    14    6    8 1
    15    6    9 1
    16    8   17 1
    17    8   18 1
    18    9   10 1
    19    9   19 1
    20    9   20 1
    21   10   11 2
    22   10   21 1
    23   11   22 1
    24   11   23 1
    25   12   24 1
    26   12   25 1
@<TRIPOS>MOLECULE
ZINC26377093
   26    26     0     0     0
SMALL
USER_CHARGES
(6S)-6-allyl-4-methyl-5,6-dihydropyridin-2-amine
@<TRIPOS>ATOM
      1 C1          5.7910    1.6780    2.3091 C.3       1 <0>        -0.1446
      2 C2          4.2921    1.8274    2.3538 C.2       1 <0>         0.0198
      3 C3          3.6424    1.7354    3.5108 C.2       1 <0>        -0.2346
      4 C4          2.1749    1.8854    3.5261 C.cat     1 <0>         0.5710
      5 N1          1.4912    1.7274    2.4291 N.pl3     1 <0>        -0.6438
      6 C5          2.1549    1.3908    1.1706 C.3       1 <0>         0.1355
      7 H1          2.2849    0.2985    1.1670 H         1 <0>         0.1128
      8 C6          3.5147    2.0829    1.0879 C.3       1 <0>        -0.1372
      9 C7          1.2821    1.8470   -0.0003 C.3       1 <0>        -0.1045
     10 C8         -0.0126    1.0758    0.0080 C.2       1 <0>        -0.1912
     11 C9         -1.1558    1.7153    0.0169 C.2       1 <0>        -0.1718
     12 N2          1.5261    2.1930    4.7037 N.pl3     1 <0>        -0.8232
     13 H2          6.1720    1.4981    3.3252 H         1 <0>         0.0851
     14 H3          6.2394    2.5985    1.9069 H         1 <0>         0.0980
     15 H4          6.0557    0.8284    1.6625 H         1 <0>         0.0987
     16 H5          4.1993    1.5496    4.4410 H         1 <0>         0.1730
     17 H6          3.3660    3.1654    0.9611 H         1 <0>         0.1137
     18 H7          4.0741    1.6865    0.2277 H         1 <0>         0.1287
     19 H8          1.0694    2.9218    0.0979 H         1 <0>         0.0877
     20 H9          1.8124    1.6632   -0.9463 H         1 <0>         0.1135
     21 H10         0.0023   -0.0241    0.0066 H         1 <0>         0.1219
     22 H11        -2.1008    1.1524    0.0230 H         1 <0>         0.1118
     23 H12        -1.1707    2.8152    0.0183 H         1 <0>         0.1042
     24 H13         0.4319    2.3050    4.7158 H         1 <0>         0.4506
     25 H14         2.1029    2.3263    5.6308 H         1 <0>         0.4711
     26 H15         0.3978    1.8471    2.4404 H         1 <0>         0.4539
@<TRIPOS>BOND
     1    1    2 1
     2    1   13 1
     3    1   14 1
     4    1   15 1
     5    2    8 1
     6    2    3 2
     7    3    4 1
     8    3   16 1
     9    4    5 2
    10    4   12 1
    11    5    6 1
    12    5   26 1
    13    6    7 1
    14    6    8 1
    15    6    9 1
    16    8   17 1
    17    8   18 1
    18    9   10 1
    19    9   19 1
    20    9   20 1
    21   10   11 2
    22   10   21 1
    23   11   22 1
    24   11   23 1
    25   12   24 1
    26   12   25 1
@<TRIPOS>MOLECULE
ZINC26391399
   19    19     0     0     0
SMALL
USER_CHARGES
4-methyl-5,6-dihydropyridin-2-amine
@<TRIPOS>ATOM
      1 C1         -0.9417    3.9463   -2.3487 C.3       1 <0>        -0.1455
      2 C2         -0.9785    3.0736   -1.1207 C.2       1 <0>         0.0207
      3 C3         -1.2175    3.6061    0.0745 C.2       1 <0>        -0.2373
      4 C4         -1.2478    2.7289    1.2602 C.cat     1 <0>         0.5724
      5 N1         -0.6907    1.5542    1.2156 N.pl3     1 <0>        -0.6474
      6 C5         -0.0127    1.0858    0.0080 C.3       1 <0>         0.0918
      7 C6         -0.7453    1.5888   -1.2351 C.3       1 <0>        -0.1431
      8 N2         -1.8708    3.1533    2.4153 N.pl3     1 <0>        -0.8223
      9 H1         -1.1334    4.9908   -2.0621 H         1 <0>         0.0849
     10 H2         -1.7133    3.6133   -3.0584 H         1 <0>         0.0981
     11 H3          0.0485    3.8718   -2.8219 H         1 <0>         0.0988
     12 H4         -1.3896    4.6884    0.1700 H         1 <0>         0.1726
     13 H5          1.0197    1.4653   -0.0035 H         1 <0>         0.1059
     14 H6          0.0009   -0.0141   -0.0017 H         1 <0>         0.1280
     15 H7         -1.7121    1.0715   -1.3231 H         1 <0>         0.1119
     16 H8         -0.1358    1.3810   -2.1269 H         1 <0>         0.1282
     17 H9         -1.8938    2.4997    3.2998 H         1 <0>         0.4515
     18 H10        -2.3447    4.1453    2.4520 H         1 <0>         0.4717
     19 H11        -0.7251    0.8954    2.0958 H         1 <0>         0.4588
@<TRIPOS>BOND
     1    1    2 1
     2    1    9 1
     3    1   10 1
     4    1   11 1
     5    2    7 1
     6    2    3 2
     7    3    4 1
     8    3   12 1
     9    4    5 2
    10    4    8 1
    11    5    6 1
    12    5   19 1
    13    6    7 1
    14    6   13 1
    15    6   14 1
    16    7   15 1
    17    7   16 1
    18    8   17 1
    19    8   18 1
@<TRIPOS>MOLECULE
ZINC03804508
   31    30     0     0     0
SMALL
USER_CHARGES

@<TRIPOS>ATOM
      1 C1         -0.0184    1.5028    0.0103 C.3       1 <0>        -0.1658
      2 C2          0.0021   -0.0041    0.0020 C.cat     1 <0>         0.5339
      3 N1          0.0215   -0.6566    1.1184 N.pl3     1 <0>        -0.7341
      4 N2          0.0000   -0.6826   -1.1881 N.pl3     1 <0>        -0.6661
      5 C3          0.0199   -2.1475   -1.1962 C.3       1 <0>         0.0706
      6 C4          0.0130   -2.6497   -2.6414 C.3       1 <0>        -0.1354
      7 C5          0.0338   -4.1795   -2.6498 C.3       1 <0>        -0.1302
      8 C6          0.0269   -4.6817   -4.0950 C.3       1 <0>        -0.1284
      9 C7          0.0477   -6.2115   -4.1034 C.3       1 <0>        -0.0510
     10 H1         -0.7835   -6.5895   -3.5081 H         1 <0>         0.1342
     11 C8         -0.0828   -6.7079   -5.5204 C.2       1 <0>         0.4839
     12 O1          0.9152   -6.8939   -6.1955 O.co2     1 <0>        -0.6634
     13 O2         -1.1865   -6.9235   -5.9915 O.co2     1 <0>        -0.6315
     14 N3          1.3150   -6.6872   -3.5327 N.4       1 <0>        -0.6154
     15 H2          1.0042    1.8801    0.0026 H         1 <0>         0.1356
     16 H3         -0.5455    1.8639   -0.8728 H         1 <0>         0.1243
     17 H4         -0.5286    1.8543    0.9071 H         1 <0>         0.1245
     18 H5          0.0230   -0.1762    1.9610 H         1 <0>         0.4504
     19 H6         -0.0146   -0.1932   -2.0255 H         1 <0>         0.4434
     20 H7          0.9196   -2.5014   -0.6928 H         1 <0>         0.0939
     21 H8         -0.8601   -2.5256   -0.6760 H         1 <0>         0.0968
     22 H9         -0.8866   -2.2957   -3.1448 H         1 <0>         0.0917
     23 H10         0.8931   -2.2715   -3.1616 H         1 <0>         0.0879
     24 H11         0.9335   -4.5334   -2.1464 H         1 <0>         0.0623
     25 H12        -0.8462   -4.5577   -2.1296 H         1 <0>         0.0837
     26 H13        -0.8728   -4.3278   -4.5984 H         1 <0>         0.1104
     27 H14         0.9070   -4.3035   -4.6153 H         1 <0>         0.0884
     28 H15         1.3287   -7.6961   -3.5383 H         1 <0>         0.4349
     29 H16         2.0843   -6.3374   -4.0839 H         1 <0>         0.4341
     30 H17         0.0347   -1.6265    1.1130 H         1 <0>         0.4278
     31 H18         1.4024   -6.3549   -2.5841 H         1 <0>         0.4089
@<TRIPOS>BOND
     1    1    2 1
     2    1   15 1
     3    1   16 1
     4    1   17 1
     5    2    3 2
     6    2    4 1
     7    3   18 1
     8    3   30 1
     9    4    5 1
    10    4   19 1
    11    5    6 1
    12    5   20 1
    13    5   21 1
    14    6    7 1
    15    6   22 1
    16    6   23 1
    17    7    8 1
    18    7   24 1
    19    7   25 1
    20    8    9 1
    21    8   26 1
    22    8   27 1
    23    9   10 1
    24    9   11 1
    25    9   14 1
    26   11   12 2
    27   11   13 1
    28   14   28 1
    29   14   29 1
    30   14   31 1
@<TRIPOS>MOLECULE
ZINC15987659
   31    30     0     0     0
SMALL
USER_CHARGES

@<TRIPOS>ATOM
      1 C1         -0.0397    1.4238    0.0121 C.3       1 <0>         0.0329
      2 O1         -0.0198   -0.0050    0.0041 O.3       1 <0>        -0.3540
      3 C2         -1.2072   -0.6310    0.0074 C.2       1 <0>         0.4643
      4 O2         -2.2296    0.0129    0.0168 O.2       1 <0>        -0.4909
      5 C3         -1.2652   -2.1369   -0.0006 C.3       1 <0>         0.1053
      6 H1         -0.4887   -2.5338    0.6534 H         1 <0>         0.1214
      7 C4         -1.0426   -2.6483   -1.4253 C.3       1 <0>        -0.1488
      8 C5         -0.9770   -4.1768   -1.4141 C.3       1 <0>        -0.1340
      9 C6         -0.7544   -4.6882   -2.8388 C.3       1 <0>         0.1004
     10 N1         -0.6917   -6.1519   -2.8280 N.pl3     1 <0>        -0.7247
     11 C7         -0.5002   -6.8271   -3.9798 C.2       1 <0>         0.7146
     12 N2         -0.4715   -6.1637   -5.1538 N.pl3     1 <0>        -0.7928
     13 N3         -0.3378   -8.1640   -3.9576 N.2       1 <0>        -0.5041
     14 N4         -0.4610   -8.8103   -2.8481 N.pl3     1 <0>         0.1952
     15 O3         -1.6150   -9.3599   -2.5307 O.2       1 <0>        -0.2362
     16 O4          0.5673   -8.9207   -2.0326 O.3       1 <0>        -0.2506
     17 N5         -2.5818   -2.5788    0.4782 N.3       1 <0>        -0.8300
     18 H2          0.9828    1.8014    0.0083 H         1 <0>         0.1050
     19 H3         -0.5636    1.7849   -0.8730 H         1 <0>         0.0612
     20 H4         -0.5535    1.7750    0.9070 H         1 <0>         0.0631
     21 H5         -1.8671   -2.3246   -2.0605 H         1 <0>         0.0783
     22 H6         -0.1061   -2.2473   -1.8131 H         1 <0>         0.0888
     23 H7         -0.1525   -4.5005   -0.7789 H         1 <0>         0.0880
     24 H8         -1.9135   -4.5778   -1.0262 H         1 <0>         0.0793
     25 H9         -1.5790   -4.3646   -3.4740 H         1 <0>         0.0826
     26 H10         0.1820   -4.2873   -3.2266 H         1 <0>         0.0869
     27 H11        -0.5884   -5.2009   -5.1697 H         1 <0>         0.4253
     28 H12        -0.3338   -6.6493   -5.9821 H         1 <0>         0.4361
     29 H13        -3.3191   -2.2235   -0.1119 H         1 <0>         0.3551
     30 H14        -2.6238   -3.5848    0.5434 H         1 <0>         0.3569
     31 H15        -0.7878   -6.6353   -1.9926 H         1 <0>         0.4254
@<TRIPOS>BOND
     1    1    2 1
     2    1   18 1
     3    1   19 1
     4    1   20 1
     5    2    3 1
     6    3    4 2
     7    3    5 1
     8    5    6 1
     9    5    7 1
    10    5   17 1
    11    7    8 1
    12    7   21 1
    13    7   22 1
    14    8    9 1
    15    8   23 1
    16    8   24 1
    17    9   10 1
    18    9   25 1
    19    9   26 1
    20   10   11 1
    21   10   31 1
    22   11   12 1
    23   11   13 2
    24   12   27 1
    25   12   28 1
    26   13   14 1
    27   14   15 2
    28   14   16 1
    29   17   29 1
    30   17   30 1
@<TRIPOS>MOLECULE
ZINC15987659
   31    30     0     0     0
SMALL
USER_CHARGES

@<TRIPOS>ATOM
      1 C1          0.4127    1.3688    0.0527 C.3       1 <0>         0.0299
      2 O1          0.3593   -0.0592    0.0390 O.3       1 <0>        -0.3520
      3 C2         -0.8586   -0.6235    0.0358 C.2       1 <0>         0.4233
      4 O2         -1.8466    0.0719    0.0443 O.2       1 <0>        -0.5072
      5 C3         -0.9936   -2.1243    0.0216 C.3       1 <0>         0.1037
      6 H1         -0.2409   -2.5631    0.6767 H         1 <0>         0.1224
      7 C4         -0.7923   -2.6411   -1.4044 C.3       1 <0>        -0.1045
      8 C5         -0.8053   -4.1710   -1.3990 C.3       1 <0>        -0.1229
      9 C6         -0.6040   -4.6877   -2.8250 C.3       1 <0>         0.1008
     10 N1         -0.6164   -6.1526   -2.8198 N.pl3     1 <0>        -0.6759
     11 C7         -0.4557   -6.8325   -3.9736 C.2       1 <0>         0.7149
     12 N2         -0.2835   -6.1636   -5.1322 N.pl3     1 <0>        -0.8416
     13 N3         -0.4671   -8.1792   -3.9689 N.2       1 <0>        -0.5055
     14 N4         -0.2193   -8.8302   -5.0547 N.pl3     1 <0>         0.1963
     15 O3          1.0093   -9.2224   -5.3216 O.2       1 <0>        -0.2403
     16 O4         -1.1950   -9.1025   -5.8964 O.3       1 <0>        -0.2493
     17 N5         -2.3328   -2.5000    0.4941 N.3       1 <0>        -0.8133
     18 H2          1.4532    1.6935    0.0539 H         1 <0>         0.1049
     19 H3         -0.0888    1.7596   -0.8327 H         1 <0>         0.0615
     20 H4         -0.0856    1.7425    0.9472 H         1 <0>         0.0613
     21 H5         -1.5969   -2.2731   -2.0411 H         1 <0>         0.0768
     22 H6          0.1648   -2.2871   -1.7874 H         1 <0>         0.0852
     23 H7         -0.0007   -4.5389   -0.7623 H         1 <0>         0.0829
     24 H8         -1.7624   -4.5249   -1.0160 H         1 <0>         0.0957
     25 H9         -1.4086   -4.3198   -3.4617 H         1 <0>         0.0814
     26 H10         0.3531   -4.3338   -3.2080 H         1 <0>         0.0826
     27 H11        -0.7402   -6.6337   -1.9867 H         1 <0>         0.4350
     28 H12        -0.3671   -5.1974   -5.1514 H         1 <0>         0.4194
     29 H13        -2.4668   -2.2265    1.4561 H         1 <0>         0.3531
     30 H14        -3.0488   -2.1052   -0.0971 H         1 <0>         0.3548
     31 H15        -0.0761   -6.6487   -5.9461 H         1 <0>         0.4264
@<TRIPOS>BOND
     1    1    2 1
     2    1   18 1
     3    1   19 1
     4    1   20 1
     5    2    3 1
     6    3    4 2
     7    3    5 1
     8    5    6 1
     9    5    7 1
    10    5   17 1
    11    7    8 1
    12    7   21 1
    13    7   22 1
    14    8    9 1
    15    8   23 1
    16    8   24 1
    17    9   10 1
    18    9   25 1
    19    9   26 1
    20   10   11 1
    21   10   27 1
    22   11   12 1
    23   11   13 2
    24   12   28 1
    25   12   31 1
    26   13   14 1
    27   14   15 2
    28   14   16 1
    29   17   29 1
    30   17   30 1
@<TRIPOS>MOLECULE
ZINC15987659
   30    29     0     0     0
SMALL
USER_CHARGES

@<TRIPOS>ATOM
      1 C1          0.0296    1.2356    0.5551 C.3       1 <0>         0.0308
      2 O1          0.0805   -0.1882    0.4438 O.3       1 <0>        -0.3510
      3 C2         -1.0882   -0.8460    0.5008 C.2       1 <0>         0.4279
      4 O2         -2.1201   -0.2333    0.6405 O.2       1 <0>        -0.5175
      5 C3         -1.1131   -2.3488    0.3904 C.3       1 <0>         0.1047
      6 H1         -0.2756   -2.7680    0.9480 H         1 <0>         0.1198
      7 C4         -1.0004   -2.7541   -1.0806 C.3       1 <0>        -0.1035
      8 C5         -0.9002   -4.2773   -1.1837 C.3       1 <0>        -0.0970
      9 C6         -0.7874   -4.6826   -2.6547 C.3       1 <0>         0.0713
     10 N1         -0.6915   -6.1411   -2.7534 N.2       1 <0>        -0.6543
     11 C7         -1.6245   -6.8157   -3.3644 C.2       1 <0>         0.5594
     12 N2         -2.6275   -6.1528   -4.0313 N.pl3     1 <0>        -0.8834
     13 N3         -1.6056   -8.1903   -3.3420 N.2       1 <0>        -0.5273
     14 N4         -0.5163   -8.8668   -2.7776 N.pl3     1 <0>         0.2272
     15 O3          0.3508   -8.2466   -2.2073 O.2       1 <0>        -0.2859
     16 O4         -0.4434  -10.0707   -2.8608 O.3       1 <0>        -0.3339
     17 N5         -2.3744   -2.8595    0.9438 N.3       1 <0>        -0.8063
     18 H2          1.0395    1.6411    0.4937 H         1 <0>         0.1010
     19 H3         -0.5751    1.6420   -0.2556 H         1 <0>         0.0586
     20 H4         -0.4144    1.5096    1.5122 H         1 <0>         0.0574
     21 H5         -1.8826   -2.4106   -1.6207 H         1 <0>         0.0622
     22 H6         -0.1092   -2.3011   -1.5150 H         1 <0>         0.0742
     23 H7         -0.0179   -4.6208   -0.6435 H         1 <0>         0.0671
     24 H8         -1.7914   -4.7303   -0.7493 H         1 <0>         0.0681
     25 H9         -1.6697   -4.3391   -3.1948 H         1 <0>         0.0096
     26 H10         0.1038   -4.2296   -3.0891 H         1 <0>         0.0443
     27 H11        -2.5662   -5.1949   -4.1710 H         1 <0>         0.3940
     28 H12        -2.4431   -2.6606    1.9306 H         1 <0>         0.3449
     29 H13        -3.1666   -2.4852    0.4435 H         1 <0>         0.3512
     30 H14        -3.3963   -6.6430   -4.3621 H         1 <0>         0.3864
@<TRIPOS>BOND
     1    1    2 1
     2    1   18 1
     3    1   19 1
     4    1   20 1
     5    2    3 1
     6    3    4 2
     7    3    5 1
     8    5    6 1
     9    5    7 1
    10    5   17 1
    11    7    8 1
    12    7   21 1
    13    7   22 1
    14    8    9 1
    15    8   23 1
    16    8   24 1
    17    9   10 1
    18    9   25 1
    19    9   26 1
    20   10   11 2
    21   11   12 1
    22   11   13 1
    23   12   27 1
    24   12   30 1
    25   13   14 1
    26   14   15 2
    27   14   16 1
    28   17   28 1
    29   17   29 1
@<TRIPOS>MOLECULE
ZINC15987659
   31    30     0     0     0
SMALL
USER_CHARGES

@<TRIPOS>ATOM
      1 C1         -0.0173    1.4248    0.0099 C.3       1 <0>         0.0300
      2 O1          0.0021   -0.0041    0.0020 O.3       1 <0>        -0.3275
      3 C2          0.5984   -0.5997   -1.0427 C.2       1 <0>         0.4553
      4 O2          1.0877    0.0699   -1.9214 O.2       1 <0>        -0.4913
      5 C3          0.6575   -2.1036   -1.1196 C.3       1 <0>         0.0433
      6 H1         -0.2893   -2.5224   -0.7788 H         1 <0>         0.1811
      7 C4          1.7916   -2.6155   -0.2294 C.3       1 <0>        -0.1430
      8 C5          1.7732   -4.1453   -0.2092 C.3       1 <0>        -0.1067
      9 C6          2.9073   -4.6573    0.6811 C.3       1 <0>         0.0576
     10 N1          2.8897   -6.1220    0.7004 N.2       1 <0>        -0.6272
     11 C7          3.8049   -6.7980    1.4248 C.2       1 <0>         0.5571
     12 N2          4.7363   -6.1254    2.1314 N.pl3     1 <0>        -0.8527
     13 N3          3.7887   -8.1446    1.4426 N.2       1 <0>        -0.4294
     14 N4          2.8979   -8.7879    0.7668 N.pl3     1 <0>         0.2680
     15 O3          2.0042   -8.1279    0.0595 O.2       1 <0>        -0.3849
     16 O4          2.8820  -10.1047    0.7842 O.3       1 <0>        -0.4199
     17 N5          0.9024   -2.5135   -2.5089 N.4       1 <0>        -0.6234
     18 H2          1.0053    1.8021    0.0021 H         1 <0>         0.0727
     19 H3         -0.5445    1.7859   -0.8732 H         1 <0>         0.0716
     20 H4         -0.5275    1.7763    0.9067 H         1 <0>         0.1189
     21 H5          2.7472   -2.2688   -0.6228 H         1 <0>         0.0945
     22 H6          1.6572   -2.2372    0.7840 H         1 <0>         0.1207
     23 H7          0.8177   -4.4920    0.1843 H         1 <0>         0.0860
     24 H8          1.9077   -4.5237   -1.2225 H         1 <0>         0.0635
     25 H9          3.8629   -4.3106    0.2877 H         1 <0>         0.0265
     26 H10         2.7728   -4.2789    1.6944 H         1 <0>         0.0312
     27 H11         4.7480   -5.1555    2.1186 H         1 <0>         0.3987
     28 H12         5.3945   -6.6115    2.6523 H         1 <0>         0.3977
     29 H13         0.9421   -3.5204   -2.5604 H         1 <0>         0.4527
     30 H14         0.1545   -2.1759   -3.0960 H         1 <0>         0.4381
     31 H15         1.7789   -2.1258   -2.8244 H         1 <0>         0.4407
@<TRIPOS>BOND
     1    1    2 1
     2    1   18 1
     3    1   19 1
     4    1   20 1
     5    2    3 1
     6    3    4 2
     7    3    5 1
     8    5    6 1
     9    5    7 1
    10    5   17 1
    11    7    8 1
    12    7   21 1
    13    7   22 1
    14    8    9 1
    15    8   23 1
    16    8   24 1
    17    9   10 1
    18    9   25 1
    19    9   26 1
    20   10   11 1
    21   11   12 1
    22   11   13 2
    23   12   27 1
    24   12   28 1
    25   13   14 1
    26   14   15 2
    27   14   16 1
    28   17   29 1
    29   17   30 1
    30   17   31 1
@<TRIPOS>MOLECULE
ZINC15987659
   30    29     0     0     0
SMALL
USER_CHARGES

@<TRIPOS>ATOM
      1 C1         -0.0173    1.4248    0.0099 C.3       1 <0>         0.0339
      2 O1          0.0021   -0.0041    0.0020 O.3       1 <0>        -0.3540
      3 C2          0.6181   -0.6108    1.0287 C.2       1 <0>         0.4686
      4 O2          1.1242    0.0494    1.9050 O.2       1 <0>        -0.5003
      5 C3          0.6786   -2.1154    1.0883 C.3       1 <0>         0.1046
      6 H1          0.8631   -2.5115    0.0898 H         1 <0>         0.1183
      7 C4         -0.6512   -2.6588    1.6149 C.3       1 <0>        -0.1483
      8 C5         -0.6356   -4.1877    1.5583 C.3       1 <0>        -0.0932
      9 C6         -1.9654   -4.7311    2.0849 C.3       1 <0>         0.0601
     10 N1         -1.9505   -6.1950    2.0307 N.2       1 <0>        -0.6078
     11 C7         -3.0247   -6.8963    2.4474 C.2       1 <0>         0.5400
     12 N2         -4.1125   -6.2497    2.9141 N.pl3     1 <0>        -0.8558
     13 N3         -3.0110   -8.2421    2.3976 N.2       1 <0>        -0.4295
     14 N4         -1.9706   -8.8604    1.9513 N.pl3     1 <0>         0.2681
     15 O3         -0.9217   -8.1757    1.5444 O.2       1 <0>        -0.3826
     16 O4         -1.9572  -10.1765    1.9026 O.3       1 <0>        -0.4375
     17 N5          1.7658   -2.5265    1.9867 N.3       1 <0>        -0.8316
     18 H2          1.0053    1.8021    0.0021 H         1 <0>         0.0594
     19 H3         -0.5445    1.7859   -0.8732 H         1 <0>         0.1009
     20 H4         -0.5275    1.7763    0.9067 H         1 <0>         0.0585
     21 H5         -0.7933   -2.3348    2.6459 H         1 <0>         0.0655
     22 H6         -1.4674   -2.2807    0.9994 H         1 <0>         0.0750
     23 H7         -0.4934   -4.5117    0.5273 H         1 <0>         0.0703
     24 H8          0.1807   -4.5658    2.1738 H         1 <0>         0.0645
     25 H9         -2.1076   -4.4071    3.1159 H         1 <0>         0.0238
     26 H10        -2.7817   -4.3530    1.4694 H         1 <0>         0.0259
     27 H11        -4.1224   -5.2804    2.9500 H         1 <0>         0.3988
     28 H12        -4.8850   -6.7540    3.2138 H         1 <0>         0.3924
     29 H13         1.6178   -2.1715    2.9195 H         1 <0>         0.3497
     30 H14         1.8688   -3.5302    1.9940 H         1 <0>         0.3624
@<TRIPOS>BOND
     1    1    2 1
     2    1   18 1
     3    1   19 1
     4    1   20 1
     5    2    3 1
     6    3    4 2
     7    3    5 1
     8    5    6 1
     9    5    7 1
    10    5   17 1
    11    7    8 1
    12    7   21 1
    13    7   22 1
    14    8    9 1
    15    8   23 1
    16    8   24 1
    17    9   10 1
    18    9   25 1
    19    9   26 1
    20   10   11 1
    21   11   12 1
    22   11   13 2
    23   12   27 1
    24   12   28 1
    25   13   14 1
    26   14   15 2
    27   14   16 1
    28   17   29 1
    29   17   30 1
@<TRIPOS>MOLECULE
ZINC15987659
   32    31     0     0     0
SMALL
USER_CHARGES

@<TRIPOS>ATOM
      1 C1         -0.0397    1.4238    0.0121 C.3       1 <0>         0.0286
      2 O1         -0.0198   -0.0050    0.0041 O.3       1 <0>        -0.3268
      3 C2         -1.2072   -0.6310    0.0074 C.2       1 <0>         0.4508
      4 O2         -2.2296    0.0129    0.0168 O.2       1 <0>        -0.4815
      5 C3         -1.2652   -2.1369   -0.0006 C.3       1 <0>         0.0421
      6 H1         -0.4887   -2.5338    0.6534 H         1 <0>         0.1844
      7 C4         -1.0426   -2.6483   -1.4253 C.3       1 <0>        -0.1405
      8 C5         -0.9770   -4.1768   -1.4141 C.3       1 <0>        -0.1486
      9 C6         -0.7544   -4.6882   -2.8388 C.3       1 <0>         0.1004
     10 N1         -0.6917   -6.1519   -2.8280 N.pl3     1 <0>        -0.7324
     11 C7         -0.5002   -6.8271   -3.9798 C.2       1 <0>         0.7150
     12 N2         -0.4715   -6.1637   -5.1538 N.pl3     1 <0>        -0.7908
     13 N3         -0.3378   -8.1640   -3.9576 N.2       1 <0>        -0.4921
     14 N4         -0.4610   -8.8103   -2.8481 N.pl3     1 <0>         0.1913
     15 O3         -1.6150   -9.3599   -2.5307 O.2       1 <0>        -0.2316
     16 O4          0.5673   -8.9207   -2.0326 O.3       1 <0>        -0.2466
     17 N5         -2.5818   -2.5788    0.4782 N.4       1 <0>        -0.6259
     18 H2          0.9828    1.8014    0.0083 H         1 <0>         0.1230
     19 H3         -0.5636    1.7849   -0.8730 H         1 <0>         0.0755
     20 H4         -0.5535    1.7750    0.9070 H         1 <0>         0.0753
     21 H5         -1.8671   -2.3246   -2.0605 H         1 <0>         0.1073
     22 H6         -0.1061   -2.2473   -1.8131 H         1 <0>         0.1335
     23 H7         -0.1525   -4.5005   -0.7789 H         1 <0>         0.1037
     24 H8         -1.9135   -4.5778   -1.0262 H         1 <0>         0.0781
     25 H9         -1.5790   -4.3646   -3.4740 H         1 <0>         0.0877
     26 H10         0.1820   -4.2873   -3.2266 H         1 <0>         0.0937
     27 H11        -0.5884   -5.2009   -5.1697 H         1 <0>         0.4243
     28 H12        -0.3338   -6.6493   -5.9821 H         1 <0>         0.4401
     29 H13        -2.6206   -3.5870    0.4729 H         1 <0>         0.4467
     30 H14        -2.7286   -2.2415    1.4178 H         1 <0>         0.4459
     31 H15        -0.7878   -6.6353   -1.9926 H         1 <0>         0.4253
     32 H16        -3.3005   -2.2113   -0.1272 H         1 <0>         0.4441
@<TRIPOS>BOND
     1    1    2 1
     2    1   18 1
     3    1   19 1
     4    1   20 1
     5    2    3 1
     6    3    4 2
     7    3    5 1
     8    5    6 1
     9    5    7 1
    10    5   17 1
    11    7    8 1
    12    7   21 1
    13    7   22 1
    14    8    9 1
    15    8   23 1
    16    8   24 1
    17    9   10 1
    18    9   25 1
    19    9   26 1
    20   10   11 1
    21   10   31 1
    22   11   12 1
    23   11   13 2
    24   12   27 1
    25   12   28 1
    26   13   14 1
    27   14   15 2
    28   14   16 1
    29   17   29 1
    30   17   30 1
    31   17   32 1
@<TRIPOS>MOLECULE
ZINC15987659
   32    31     0     0     0
SMALL
USER_CHARGES

@<TRIPOS>ATOM
      1 C1         -0.1937    1.3629   -0.3837 C.3       1 <0>         0.0286
      2 O1         -0.1430   -0.0640   -0.3257 O.3       1 <0>        -0.3269
      3 C2          0.4770   -0.6092    0.7327 C.2       1 <0>         0.4501
      4 O2          0.9606    0.1015    1.5817 O.2       1 <0>        -0.4812
      5 C3          0.5698   -2.1078    0.8619 C.3       1 <0>         0.0428
      6 H1          0.7718   -2.5450   -0.1159 H         1 <0>         0.1844
      7 C4         -0.7524   -2.6560    1.4024 C.3       1 <0>        -0.1423
      8 C5         -0.7029   -4.1851    1.4162 C.3       1 <0>        -0.1460
      9 C6         -2.0251   -4.7333    1.9567 C.3       1 <0>         0.1041
     10 N1         -1.9777   -6.1975    1.9700 N.pl3     1 <0>        -0.6865
     11 C7         -3.0400   -6.9026    2.4100 C.2       1 <0>         0.7133
     12 N2         -4.1459   -6.2598    2.8377 N.pl3     1 <0>        -0.8397
     13 N3         -2.9964   -8.2487    2.4222 N.2       1 <0>        -0.4972
     14 N4         -4.0440   -8.9250    2.7528 N.pl3     1 <0>         0.1864
     15 O3         -4.8792   -9.3415    1.8236 O.2       1 <0>        -0.2262
     16 O4         -4.2783   -9.1988    4.0195 O.3       1 <0>        -0.2369
     17 N5          1.6576   -2.4530    1.7868 N.4       1 <0>        -0.6260
     18 H2          0.8204    1.7622   -0.4007 H         1 <0>         0.0753
     19 H3         -0.7208    1.6714   -1.2866 H         1 <0>         0.1232
     20 H4         -0.7195    1.7437    0.4919 H         1 <0>         0.0757
     21 H5         -0.9109   -2.2883    2.4162 H         1 <0>         0.1076
     22 H6         -1.5712   -2.3247    0.7637 H         1 <0>         0.1336
     23 H7         -0.5445   -4.5527    0.4024 H         1 <0>         0.1046
     24 H8          0.1159   -4.5163    2.0549 H         1 <0>         0.0797
     25 H9         -2.1836   -4.3657    2.9705 H         1 <0>         0.0873
     26 H10        -2.8440   -4.4020    1.3180 H         1 <0>         0.0927
     27 H11        -1.1824   -6.6598    1.6623 H         1 <0>         0.4344
     28 H12        -4.1450   -5.2930    2.9163 H         1 <0>         0.4179
     29 H13         2.5296   -2.0915    1.4304 H         1 <0>         0.4458
     30 H14         1.4706   -2.0483    2.6920 H         1 <0>         0.4444
     31 H15        -4.9421   -6.7643    3.0668 H         1 <0>         0.4308
     32 H16         1.7198   -3.4564    1.8734 H         1 <0>         0.4464
@<TRIPOS>BOND
     1    1    2 1
     2    1   18 1
     3    1   19 1
     4    1   20 1
     5    2    3 1
     6    3    4 2
     7    3    5 1
     8    5    6 1
     9    5    7 1
    10    5   17 1
    11    7    8 1
    12    7   21 1
    13    7   22 1
    14    8    9 1
    15    8   23 1
    16    8   24 1
    17    9   10 1
    18    9   25 1
    19    9   26 1
    20   10   11 1
    21   10   27 1
    22   11   12 1
    23   11   13 2
    24   12   28 1
    25   12   31 1
    26   13   14 1
    27   14   15 2
    28   14   16 1
    29   17   29 1
    30   17   30 1
    31   17   32 1
@<TRIPOS>MOLECULE
ZINC13780218
   34    34     0     0     0
SMALL
USER_CHARGES
N-(5-methyl-2-nitro-phenyl)butane-1,4-diamine
@<TRIPOS>ATOM
      1 C1          0.1049   -5.1076    0.3348 C.3       1 <0>        -0.1285
      2 C2          0.5576   -4.1150   -0.7048 C.ar      1 <0>         0.0204
      3 C3          1.1381   -4.5603   -1.8785 C.ar      1 <0>        -0.1725
      4 C4          1.5553   -3.6529   -2.8347 C.ar      1 <0>        -0.0037
      5 C5          1.3935   -2.2980   -2.6205 C.ar      1 <0>        -0.1295
      6 C6          0.8110   -1.8474   -1.4429 C.ar      1 <0>         0.2844
      7 C7          0.3981   -2.7617   -0.4817 C.ar      1 <0>        -0.2092
      8 N1          0.6458   -0.4780   -1.2231 N.pl3     1 <0>        -0.7297
      9 C8         -0.0739   -0.0082   -0.0367 C.3       1 <0>         0.1150
     10 C9         -0.1123    1.5213   -0.0359 C.3       1 <0>        -0.1326
     11 C10        -0.8639    2.0120    1.2031 C.3       1 <0>        -0.1487
     12 C11        -0.9023    3.5415    1.2039 C.3       1 <0>        -0.0047
     13 N2          1.8409   -1.3274   -3.6444 N.pl3     1 <0>         0.0517
     14 O1          2.2487   -1.7232   -4.7217 O.2       1 <0>        -0.1467
     15 O2          1.8012   -0.1329   -3.4097 O.3       1 <0>        -0.2112
     16 H1          0.9223   -5.3060    1.0281 H         1 <0>         0.0870
     17 H2         -0.7446   -4.6988    0.8819 H         1 <0>         0.0750
     18 H3         -0.1905   -6.0362   -0.1538 H         1 <0>         0.0814
     19 H4          1.2661   -5.6191   -2.0484 H         1 <0>         0.1473
     20 H5          2.0085   -4.0039   -3.7500 H         1 <0>         0.1560
     21 H6         -0.0512   -2.4144    0.4370 H         1 <0>         0.1412
     22 H7          1.0077    0.1619   -1.8559 H         1 <0>         0.4209
     23 H8          0.4361   -0.3593    0.8604 H         1 <0>         0.0695
     24 H9         -1.0920   -0.3972   -0.0516 H         1 <0>         0.0692
     25 H10         0.9058    1.9103   -0.0210 H         1 <0>         0.0858
     26 H11        -0.6222    1.8724   -0.9330 H         1 <0>         0.0856
     27 H12        -1.8821    1.6230    1.1882 H         1 <0>         0.0920
     28 H13        -0.3540    1.6609    2.1002 H         1 <0>         0.0917
     29 H14         0.1158    3.9305    1.2188 H         1 <0>         0.1341
     30 H15        -1.4123    3.8926    0.3068 H         1 <0>         0.1368
     31 H16        -1.6631    5.0206    2.4171 H         1 <0>         0.4421
     32 H17        -2.5498    3.6138    2.4363 H         1 <0>         0.4376
     33 N3         -1.6090    4.0034    2.4116 N.4       1 <0>        -0.6472
     34 H18        -1.0950    3.6908    3.2437 H         1 <0>         0.4399
@<TRIPOS>BOND
     1    1    2 1
     2    1   16 1
     3    1   17 1
     4    1   18 1
     5    2    7 ar
     6    2    3 ar
     7    3    4 ar
     8    3   19 1
     9    4    5 ar
    10    4   20 1
    11    5    6 ar
    12    5   13 1
    13    6    7 ar
    14    6    8 1
    15    7   21 1
    16    8    9 1
    17    8   22 1
    18    9   10 1
    19    9   23 1
    20    9   24 1
    21   10   11 1
    22   10   25 1
    23   10   26 1
    24   11   12 1
    25   11   27 1
    26   11   28 1
    27   12   29 1
    28   12   30 1
    29   12   33 1
    30   13   14 2
    31   13   15 1
    32   31   33 1
    33   32   33 1
    34   33   34 1
@<TRIPOS>MOLECULE
ZINC13551344
   25    24     0     0     0
SMALL
USER_CHARGES

@<TRIPOS>ATOM
      1 C1         -0.0187    1.5258    0.0104 C.3       1 <0>        -0.1458
      2 C2          0.0021   -0.0041    0.0020 C.3       1 <0>        -0.1242
      3 C3         -1.4333   -0.5336    0.0129 C.3       1 <0>        -0.0485
      4 H1         -1.9862   -0.1019   -0.8214 H         1 <0>         0.1336
      5 C4         -1.4159   -2.0348   -0.1192 C.2       1 <0>         0.4870
      6 O1         -1.3670   -2.7340    0.8784 O.co2     1 <0>        -0.6666
      7 O2         -1.4508   -2.5500   -1.2236 O.co2     1 <0>        -0.6344
      8 N1         -2.0833   -0.1607    1.2764 N.4       1 <0>        -0.6153
      9 C5          1.4167    2.0553   -0.0004 C.3       1 <0>         0.1215
     10 N2          1.3968    3.5202    0.0076 N.pl3     1 <0>        -0.6878
     11 C6          2.5547    4.2099    0.0003 C.2       1 <0>         0.5677
     12 N3          2.5365    5.5575    0.0077 N.pl3     1 <0>        -0.8045
     13 S1          4.0488    3.3742   -0.0185 S.2       1 <0>        -0.6283
     14 H2         -0.5459    1.8868   -0.8726 H         1 <0>         0.0831
     15 H3         -0.5289    1.8773    0.9072 H         1 <0>         0.0614
     16 H4          0.5123   -0.3556   -0.8948 H         1 <0>         0.1143
     17 H5          0.5293   -0.3651    0.8851 H         1 <0>         0.0922
     18 H6         -1.5715   -0.5604    2.0487 H         1 <0>         0.4342
     19 H7         -2.0949    0.8443    1.3648 H         1 <0>         0.4108
     20 H8          1.9439    1.6943    0.8826 H         1 <0>         0.0940
     21 H9          1.9269    1.7038   -0.8972 H         1 <0>         0.0971
     22 H10         0.5503    3.9937    0.0183 H         1 <0>         0.3964
     23 H11         1.6900    6.0310    0.0183 H         1 <0>         0.3958
     24 H12        -3.0299   -0.5100    1.2835 H         1 <0>         0.4315
     25 H13         3.3698    6.0539    0.0024 H         1 <0>         0.4346
@<TRIPOS>BOND
     1    1    2 1
     2    1    9 1
     3    1   14 1
     4    1   15 1
     5    2    3 1
     6    2   16 1
     7    2   17 1
     8    3    4 1
     9    3    5 1
    10    3    8 1
    11    5    6 2
    12    5    7 1
    13    8   18 1
    14    8   19 1
    15    8   24 1
    16    9   10 1
    17    9   20 1
    18    9   21 1
    19   10   11 1
    20   10   22 1
    21   11   12 1
    22   11   13 2
    23   12   23 1
    24   12   25 1
