@<TRIPOS>MOLECULE
ZINC19796181
   29    28     0     0     0
SMALL
USER_CHARGES

@<TRIPOS>ATOM
      1 C1         -0.0225    1.8097    0.0120 C.3       1 <0>        -0.1867
      2 S1          0.0021   -0.0041    0.0020 S.3       1 <0>         0.0842
      3 C2          0.8767   -0.4266    1.4721 C.cat     1 <0>         0.4673
      4 N1          1.3244    0.5135    2.2576 N.pl3     1 <0>        -0.7494
      5 N2          1.0873   -1.7480    1.7914 N.pl3     1 <0>        -0.6502
      6 C3          1.8145   -2.0993    3.0137 C.3       1 <0>         0.0784
      7 C4          1.9093   -3.6219    3.1309 C.3       1 <0>        -0.1472
      8 C5          2.6688   -3.9888    4.4075 C.3       1 <0>        -0.1247
      9 C6          2.7636   -5.5113    4.5247 C.3       1 <0>        -0.0510
     10 H1          3.2136   -5.9182    3.6191 H         1 <0>         0.1376
     11 C7          3.6155   -5.8715    5.7145 C.2       1 <0>         0.4861
     12 O1          3.1042   -6.3737    6.7008 O.co2     1 <0>        -0.6640
     13 O2          4.8162   -5.6606    5.6907 O.co2     1 <0>        -0.6295
     14 N3          1.4177   -6.0738    4.6980 N.4       1 <0>        -0.6149
     15 H2          1.0001    2.1870    0.0043 H         1 <0>         0.1129
     16 H3         -0.5497    2.1708   -0.8711 H         1 <0>         0.1554
     17 H4         -0.5327    2.1613    0.9088 H         1 <0>         0.1125
     18 H5          1.8059    0.2809    3.0669 H         1 <0>         0.4320
     19 H6          0.7544   -2.4472    1.2072 H         1 <0>         0.4425
     20 H7          2.8177   -1.6748    2.9743 H         1 <0>         0.1041
     21 H8          1.2849   -1.7006    3.8789 H         1 <0>         0.1002
     22 H9          0.9062   -4.0464    3.1703 H         1 <0>         0.0749
     23 H10         2.4390   -4.0207    2.2657 H         1 <0>         0.0972
     24 H11         3.6720   -3.5643    4.3681 H         1 <0>         0.1189
     25 H12         2.1392   -3.5900    5.2727 H         1 <0>         0.0903
     26 H13         0.8472   -5.8327    3.9014 H         1 <0>         0.4086
     27 H14         1.4802   -7.0779    4.7753 H         1 <0>         0.4386
     28 H15         1.1759    1.4452    2.0324 H         1 <0>         0.4427
     29 H16         1.0011   -5.6972    5.5363 H         1 <0>         0.4331
@<TRIPOS>BOND
     1    1    2 1
     2    1   15 1
     3    1   16 1
     4    1   17 1
     5    2    3 1
     6    3    4 2
     7    3    5 1
     8    4   18 1
     9    4   28 1
    10    5    6 1
    11    5   19 1
    12    6    7 1
    13    6   20 1
    14    6   21 1
    15    7    8 1
    16    7   22 1
    17    7   23 1
    18    8    9 1
    19    8   24 1
    20    8   25 1
    21    9   10 1
    22    9   11 1
    23    9   14 1
    24   11   12 2
    25   11   13 1
    26   14   26 1
    27   14   27 1
    28   14   29 1
@<TRIPOS>MOLECULE
ZINC19796181
   29    28     0     0     0
SMALL
USER_CHARGES

@<TRIPOS>ATOM
      1 C1         -0.0225    1.8097    0.0120 C.3       1 <0>        -0.1809
      2 S1          0.0021   -0.0041    0.0020 S.3       1 <0>         0.0776
      3 C2          0.8484   -0.4107   -1.4889 C.cat     1 <0>         0.4656
      4 N1          1.0422   -1.6602   -1.8089 N.pl3     1 <0>        -0.6057
      5 C3          1.7459   -1.9983   -3.0485 C.3       1 <0>         0.0674
      6 C4          1.8383   -3.5195   -3.1839 C.3       1 <0>        -0.1494
      7 C5          2.5732   -3.8726   -4.4786 C.3       1 <0>        -0.1257
      8 C6          2.6656   -5.3938   -4.6140 C.3       1 <0>        -0.0501
      9 H1          1.6668   -5.8256   -4.5495 H         1 <0>         0.1373
     10 C7          3.2790   -5.7433   -5.9454 C.2       1 <0>         0.4837
     11 O1          4.4879   -5.8652   -6.0464 O.co2     1 <0>        -0.6606
     12 O2          2.5664   -5.9040   -6.9215 O.co2     1 <0>        -0.6284
     13 N2          3.5023   -5.9317   -3.5330 N.4       1 <0>        -0.6164
     14 N3          1.3049    0.5897   -2.3156 N.pl3     1 <0>        -0.7948
     15 H2          1.0001    2.1870    0.0043 H         1 <0>         0.1126
     16 H3         -0.5497    2.1708   -0.8711 H         1 <0>         0.1130
     17 H4         -0.5327    2.1613    0.9088 H         1 <0>         0.1529
     18 H5          1.1999   -1.5903   -3.8991 H         1 <0>         0.1126
     19 H6          2.7497   -1.5741   -3.0238 H         1 <0>         0.1093
     20 H7          2.3843   -3.9275   -2.3333 H         1 <0>         0.0765
     21 H8          0.8345   -3.9437   -3.2086 H         1 <0>         0.0986
     22 H9          2.0272   -3.4646   -5.3292 H         1 <0>         0.1161
     23 H10         3.5770   -3.4484   -4.4538 H         1 <0>         0.0942
     24 H11         3.0916   -5.6977   -2.6416 H         1 <0>         0.4089
     25 H12         3.5632   -6.9349   -3.6223 H         1 <0>         0.4375
     26 H13         1.1608    1.5190   -2.0776 H         1 <0>         0.4387
     27 H14         1.7708    0.3659   -3.1364 H         1 <0>         0.4289
     28 H15         0.7204   -2.3656   -1.2260 H         1 <0>         0.4460
     29 H16         4.4268   -5.5320   -3.5927 H         1 <0>         0.4349
@<TRIPOS>BOND
     1    1    2 1
     2    1   15 1
     3    1   16 1
     4    1   17 1
     5    2    3 1
     6    3    4 2
     7    3   14 1
     8    4    5 1
     9    4   28 1
    10    5    6 1
    11    5   18 1
    12    5   19 1
    13    6    7 1
    14    6   20 1
    15    6   21 1
    16    7    8 1
    17    7   22 1
    18    7   23 1
    19    8    9 1
    20    8   10 1
    21    8   13 1
    22   10   11 2
    23   10   12 1
    24   13   24 1
    25   13   25 1
    26   13   29 1
    27   14   26 1
    28   14   27 1
@<TRIPOS>MOLECULE
ZINC06643273
   17    17     0     0     0
SMALL
USER_CHARGES
4-methoxypyridin-2-amine
@<TRIPOS>ATOM
      1 C1          3.5465   -2.0636   -0.0438 C.3       1 <0>         0.0259
      2 O1          3.5862   -0.6352   -0.0360 O.3       1 <0>        -0.3121
      3 C2          2.3943    0.0143   -0.0207 C.ar      1 <0>         0.2063
      4 C3          1.1938   -0.6959   -0.0131 C.ar      1 <0>        -0.3186
      5 C4          0.0021   -0.0041    0.0020 C.ar      1 <0>         0.1851
      6 N1         -0.0158    1.3163    0.0093 N.ar      1 <0>        -0.5668
      7 C5          1.1011    2.0290    0.0024 C.ar      1 <0>         0.4342
      8 C6          2.3407    1.4024   -0.0128 C.ar      1 <0>        -0.2784
      9 N2          1.0317    3.4174    0.0101 N.pl3     1 <0>        -0.8476
     10 H1          4.5636   -2.4553   -0.0559 H         1 <0>         0.1035
     11 H2          3.0315   -2.4176    0.8492 H         1 <0>         0.0596
     12 H3          3.0142   -2.4075   -0.9306 H         1 <0>         0.0596
     13 H4          1.1982   -1.7758   -0.0193 H         1 <0>         0.1367
     14 H5         -0.9302   -0.5493    0.0084 H         1 <0>         0.1596
     15 H6          3.2495    1.9859   -0.0179 H         1 <0>         0.1369
     16 H7          0.1685    3.8599    0.0204 H         1 <0>         0.4066
     17 H8          1.8465    3.9438    0.0051 H         1 <0>         0.4095
@<TRIPOS>BOND
     1    1    2 1
     2    1   10 1
     3    1   11 1
     4    1   12 1
     5    2    3 1
     6    3    8 ar
     7    3    4 ar
     8    4    5 ar
     9    4   13 1
    10    5    6 ar
    11    5   14 1
    12    6    7 ar
    13    7    8 ar
    14    7    9 1
    15    8   15 1
    16    9   16 1
    17    9   17 1
@<TRIPOS>MOLECULE
ZINC06643273
   18    18     0     0     0
SMALL
USER_CHARGES
4-methoxypyridin-2-amine
@<TRIPOS>ATOM
      1 C1          3.5465   -2.0636   -0.0438 C.3       1 <0>         0.0088
      2 O1          3.5862   -0.6352   -0.0360 O.3       1 <0>        -0.2777
      3 C2          2.3943    0.0143   -0.0207 C.ar      1 <0>         0.2839
      4 C3          1.1938   -0.6959   -0.0131 C.ar      1 <0>        -0.2511
      5 C4          0.0021   -0.0041    0.0020 C.ar      1 <0>         0.1930
      6 C5          1.1011    2.0290    0.0024 C.ar      1 <0>         0.4839
      7 C6          2.3407    1.4024   -0.0128 C.ar      1 <0>        -0.2465
      8 N1          1.0317    3.4174    0.0101 N.pl3     1 <0>        -0.8205
      9 H1          4.5636   -2.4553   -0.0559 H         1 <0>         0.1259
     10 H2          3.0315   -2.4176    0.8492 H         1 <0>         0.0772
     11 H3          3.0142   -2.4075   -0.9306 H         1 <0>         0.0772
     12 H4          1.1982   -1.7758   -0.0193 H         1 <0>         0.1856
     13 H5         -0.9302   -0.5493    0.0084 H         1 <0>         0.1999
     14 H6          3.2495    1.9859   -0.0179 H         1 <0>         0.1866
     15 H7          0.1685    3.8599    0.0204 H         1 <0>         0.4228
     16 H8          1.8465    3.9438    0.0051 H         1 <0>         0.4389
     17 N2         -0.0862    1.3542    0.0102 N.ar      1 <0>        -0.5575
     18 H9         -0.9899    1.8415    0.0215 H         1 <0>         0.4699
@<TRIPOS>BOND
     1    1    2 1
     2    1    9 1
     3    1   10 1
     4    1   11 1
     5    2    3 1
     6    3    7 ar
     7    3    4 ar
     8    4    5 ar
     9    4   12 1
    10    5   13 1
    11    5   17 ar
    12    6    7 ar
    13    6    8 1
    14    6   17 ar
    15    7   14 1
    16    8   15 1
    17    8   16 1
    18   17   18 1
@<TRIPOS>MOLECULE
ZINC03804505
   28    27     0     0     0
SMALL
USER_CHARGES

@<TRIPOS>ATOM
      1 C1         -0.0184    1.5028    0.0103 C.3       1 <0>        -0.1654
      2 C2          0.0021   -0.0041    0.0020 C.cat     1 <0>         0.5348
      3 N1          0.0215   -0.6566    1.1184 N.pl3     1 <0>        -0.7306
      4 N2          0.0000   -0.6826   -1.1881 N.pl3     1 <0>        -0.6699
      5 C3          0.0199   -2.1475   -1.1962 C.3       1 <0>         0.0710
      6 C4          0.0130   -2.6497   -2.6414 C.3       1 <0>        -0.1468
      7 C5          0.0338   -4.1795   -2.6498 C.3       1 <0>        -0.1263
      8 C6          0.0269   -4.6817   -4.0950 C.3       1 <0>        -0.0501
      9 H1          0.8576   -4.2328   -4.6396 H         1 <0>         0.1368
     10 C7          0.1711   -6.1817   -4.1063 C.2       1 <0>         0.4835
     11 O1         -0.8208   -6.8898   -4.0707 O.co2     1 <0>        -0.6608
     12 O2          1.2797   -6.6873   -4.1510 O.co2     1 <0>        -0.6287
     13 N3         -1.2397   -4.3067   -4.7377 N.4       1 <0>        -0.6162
     14 H2          1.0042    1.8801    0.0026 H         1 <0>         0.1363
     15 H3         -0.5455    1.8639   -0.8728 H         1 <0>         0.1231
     16 H4         -0.5286    1.8543    0.9071 H         1 <0>         0.1248
     17 H5          0.0230   -0.1762    1.9610 H         1 <0>         0.4512
     18 H6         -0.0146   -0.1932   -2.0255 H         1 <0>         0.4409
     19 H7          0.9196   -2.5014   -0.6928 H         1 <0>         0.1030
     20 H8         -0.8601   -2.5256   -0.6760 H         1 <0>         0.0999
     21 H9         -0.8866   -2.2957   -3.1448 H         1 <0>         0.0744
     22 H10         0.8931   -2.2715   -3.1616 H         1 <0>         0.0961
     23 H11         0.9335   -4.5334   -2.1464 H         1 <0>         0.1150
     24 H12        -0.8462   -4.5577   -2.1296 H         1 <0>         0.0931
     25 H13        -2.0086   -4.7222   -4.2336 H         1 <0>         0.4348
     26 H14        -1.3362   -3.3023   -4.7302 H         1 <0>         0.4089
     27 H15         0.0347   -1.6265    1.1130 H         1 <0>         0.4300
     28 H16        -1.2442   -4.6379   -5.6908 H         1 <0>         0.4372
@<TRIPOS>BOND
     1    1    2 1
     2    1   14 1
     3    1   15 1
     4    1   16 1
     5    2    3 2
     6    2    4 1
     7    3   17 1
     8    3   27 1
     9    4    5 1
    10    4   18 1
    11    5    6 1
    12    5   19 1
    13    5   20 1
    14    6    7 1
    15    6   21 1
    16    6   22 1
    17    7    8 1
    18    7   23 1
    19    7   24 1
    20    8    9 1
    21    8   10 1
    22    8   13 1
    23   10   11 2
    24   10   12 1
    25   13   25 1
    26   13   26 1
    27   13   28 1
@<TRIPOS>MOLECULE
ZINC15987659
   31    30     0     0     0
SMALL
USER_CHARGES

@<TRIPOS>ATOM
      1 C1         -0.0397    1.4238    0.0121 C.3       1 <0>         0.0329
      2 O1         -0.0198   -0.0050    0.0041 O.3       1 <0>        -0.3540
      3 C2         -1.2072   -0.6310    0.0074 C.2       1 <0>         0.4643
      4 O2         -2.2296    0.0129    0.0168 O.2       1 <0>        -0.4909
      5 C3         -1.2652   -2.1369   -0.0006 C.3       1 <0>         0.1053
      6 H1         -0.4887   -2.5338    0.6534 H         1 <0>         0.1214
      7 C4         -1.0426   -2.6483   -1.4253 C.3       1 <0>        -0.1488
      8 C5         -0.9770   -4.1768   -1.4141 C.3       1 <0>        -0.1340
      9 C6         -0.7544   -4.6882   -2.8388 C.3       1 <0>         0.1004
     10 N1         -0.6917   -6.1519   -2.8280 N.pl3     1 <0>        -0.7247
     11 C7         -0.5002   -6.8271   -3.9798 C.2       1 <0>         0.7146
     12 N2         -0.4715   -6.1637   -5.1538 N.pl3     1 <0>        -0.7928
     13 N3         -0.3378   -8.1640   -3.9576 N.2       1 <0>        -0.5041
     14 N4         -0.4610   -8.8103   -2.8481 N.pl3     1 <0>         0.1952
     15 O3         -1.6150   -9.3599   -2.5307 O.2       1 <0>        -0.2362
     16 O4          0.5673   -8.9207   -2.0326 O.3       1 <0>        -0.2506
     17 N5         -2.5818   -2.5788    0.4782 N.3       1 <0>        -0.8300
     18 H2          0.9828    1.8014    0.0083 H         1 <0>         0.1050
     19 H3         -0.5636    1.7849   -0.8730 H         1 <0>         0.0612
     20 H4         -0.5535    1.7750    0.9070 H         1 <0>         0.0631
     21 H5         -1.8671   -2.3246   -2.0605 H         1 <0>         0.0783
     22 H6         -0.1061   -2.2473   -1.8131 H         1 <0>         0.0888
     23 H7         -0.1525   -4.5005   -0.7789 H         1 <0>         0.0880
     24 H8         -1.9135   -4.5778   -1.0262 H         1 <0>         0.0793
     25 H9         -1.5790   -4.3646   -3.4740 H         1 <0>         0.0826
     26 H10         0.1820   -4.2873   -3.2266 H         1 <0>         0.0869
     27 H11        -0.5884   -5.2009   -5.1697 H         1 <0>         0.4253
     28 H12        -0.3338   -6.6493   -5.9821 H         1 <0>         0.4361
     29 H13        -3.3191   -2.2235   -0.1119 H         1 <0>         0.3551
     30 H14        -2.6238   -3.5848    0.5434 H         1 <0>         0.3569
     31 H15        -0.7878   -6.6353   -1.9926 H         1 <0>         0.4254
@<TRIPOS>BOND
     1    1    2 1
     2    1   18 1
     3    1   19 1
     4    1   20 1
     5    2    3 1
     6    3    4 2
     7    3    5 1
     8    5    6 1
     9    5    7 1
    10    5   17 1
    11    7    8 1
    12    7   21 1
    13    7   22 1
    14    8    9 1
    15    8   23 1
    16    8   24 1
    17    9   10 1
    18    9   25 1
    19    9   26 1
    20   10   11 1
    21   10   31 1
    22   11   12 1
    23   11   13 2
    24   12   27 1
    25   12   28 1
    26   13   14 1
    27   14   15 2
    28   14   16 1
    29   17   29 1
    30   17   30 1
@<TRIPOS>MOLECULE
ZINC15987659
   31    30     0     0     0
SMALL
USER_CHARGES

@<TRIPOS>ATOM
      1 C1          0.4127    1.3688    0.0527 C.3       1 <0>         0.0299
      2 O1          0.3593   -0.0592    0.0390 O.3       1 <0>        -0.3520
      3 C2         -0.8586   -0.6235    0.0358 C.2       1 <0>         0.4233
      4 O2         -1.8466    0.0719    0.0443 O.2       1 <0>        -0.5072
      5 C3         -0.9936   -2.1243    0.0216 C.3       1 <0>         0.1037
      6 H1         -0.2409   -2.5631    0.6767 H         1 <0>         0.1224
      7 C4         -0.7923   -2.6411   -1.4044 C.3       1 <0>        -0.1045
      8 C5         -0.8053   -4.1710   -1.3990 C.3       1 <0>        -0.1229
      9 C6         -0.6040   -4.6877   -2.8250 C.3       1 <0>         0.1008
     10 N1         -0.6164   -6.1526   -2.8198 N.pl3     1 <0>        -0.6759
     11 C7         -0.4557   -6.8325   -3.9736 C.2       1 <0>         0.7149
     12 N2         -0.2835   -6.1636   -5.1322 N.pl3     1 <0>        -0.8416
     13 N3         -0.4671   -8.1792   -3.9689 N.2       1 <0>        -0.5055
     14 N4         -0.2193   -8.8302   -5.0547 N.pl3     1 <0>         0.1963
     15 O3          1.0093   -9.2224   -5.3216 O.2       1 <0>        -0.2403
     16 O4         -1.1950   -9.1025   -5.8964 O.3       1 <0>        -0.2493
     17 N5         -2.3328   -2.5000    0.4941 N.3       1 <0>        -0.8133
     18 H2          1.4532    1.6935    0.0539 H         1 <0>         0.1049
     19 H3         -0.0888    1.7596   -0.8327 H         1 <0>         0.0615
     20 H4         -0.0856    1.7425    0.9472 H         1 <0>         0.0613
     21 H5         -1.5969   -2.2731   -2.0411 H         1 <0>         0.0768
     22 H6          0.1648   -2.2871   -1.7874 H         1 <0>         0.0852
     23 H7         -0.0007   -4.5389   -0.7623 H         1 <0>         0.0829
     24 H8         -1.7624   -4.5249   -1.0160 H         1 <0>         0.0957
     25 H9         -1.4086   -4.3198   -3.4617 H         1 <0>         0.0814
     26 H10         0.3531   -4.3338   -3.2080 H         1 <0>         0.0826
     27 H11        -0.7402   -6.6337   -1.9867 H         1 <0>         0.4350
     28 H12        -0.3671   -5.1974   -5.1514 H         1 <0>         0.4194
     29 H13        -2.4668   -2.2265    1.4561 H         1 <0>         0.3531
     30 H14        -3.0488   -2.1052   -0.0971 H         1 <0>         0.3548
     31 H15        -0.0761   -6.6487   -5.9461 H         1 <0>         0.4264
@<TRIPOS>BOND
     1    1    2 1
     2    1   18 1
     3    1   19 1
     4    1   20 1
     5    2    3 1
     6    3    4 2
     7    3    5 1
     8    5    6 1
     9    5    7 1
    10    5   17 1
    11    7    8 1
    12    7   21 1
    13    7   22 1
    14    8    9 1
    15    8   23 1
    16    8   24 1
    17    9   10 1
    18    9   25 1
    19    9   26 1
    20   10   11 1
    21   10   27 1
    22   11   12 1
    23   11   13 2
    24   12   28 1
    25   12   31 1
    26   13   14 1
    27   14   15 2
    28   14   16 1
    29   17   29 1
    30   17   30 1
@<TRIPOS>MOLECULE
ZINC15987659
   30    29     0     0     0
SMALL
USER_CHARGES

@<TRIPOS>ATOM
      1 C1          0.0296    1.2356    0.5551 C.3       1 <0>         0.0308
      2 O1          0.0805   -0.1882    0.4438 O.3       1 <0>        -0.3510
      3 C2         -1.0882   -0.8460    0.5008 C.2       1 <0>         0.4279
      4 O2         -2.1201   -0.2333    0.6405 O.2       1 <0>        -0.5175
      5 C3         -1.1131   -2.3488    0.3904 C.3       1 <0>         0.1047
      6 H1         -0.2756   -2.7680    0.9480 H         1 <0>         0.1198
      7 C4         -1.0004   -2.7541   -1.0806 C.3       1 <0>        -0.1035
      8 C5         -0.9002   -4.2773   -1.1837 C.3       1 <0>        -0.0970
      9 C6         -0.7874   -4.6826   -2.6547 C.3       1 <0>         0.0713
     10 N1         -0.6915   -6.1411   -2.7534 N.2       1 <0>        -0.6543
     11 C7         -1.6245   -6.8157   -3.3644 C.2       1 <0>         0.5594
     12 N2         -2.6275   -6.1528   -4.0313 N.pl3     1 <0>        -0.8834
     13 N3         -1.6056   -8.1903   -3.3420 N.2       1 <0>        -0.5273
     14 N4         -0.5163   -8.8668   -2.7776 N.pl3     1 <0>         0.2272
     15 O3          0.3508   -8.2466   -2.2073 O.2       1 <0>        -0.2859
     16 O4         -0.4434  -10.0707   -2.8608 O.3       1 <0>        -0.3339
     17 N5         -2.3744   -2.8595    0.9438 N.3       1 <0>        -0.8063
     18 H2          1.0395    1.6411    0.4937 H         1 <0>         0.1010
     19 H3         -0.5751    1.6420   -0.2556 H         1 <0>         0.0586
     20 H4         -0.4144    1.5096    1.5122 H         1 <0>         0.0574
     21 H5         -1.8826   -2.4106   -1.6207 H         1 <0>         0.0622
     22 H6         -0.1092   -2.3011   -1.5150 H         1 <0>         0.0742
     23 H7         -0.0179   -4.6208   -0.6435 H         1 <0>         0.0671
     24 H8         -1.7914   -4.7303   -0.7493 H         1 <0>         0.0681
     25 H9         -1.6697   -4.3391   -3.1948 H         1 <0>         0.0096
     26 H10         0.1038   -4.2296   -3.0891 H         1 <0>         0.0443
     27 H11        -2.5662   -5.1949   -4.1710 H         1 <0>         0.3940
     28 H12        -2.4431   -2.6606    1.9306 H         1 <0>         0.3449
     29 H13        -3.1666   -2.4852    0.4435 H         1 <0>         0.3512
     30 H14        -3.3963   -6.6430   -4.3621 H         1 <0>         0.3864
@<TRIPOS>BOND
     1    1    2 1
     2    1   18 1
     3    1   19 1
     4    1   20 1
     5    2    3 1
     6    3    4 2
     7    3    5 1
     8    5    6 1
     9    5    7 1
    10    5   17 1
    11    7    8 1
    12    7   21 1
    13    7   22 1
    14    8    9 1
    15    8   23 1
    16    8   24 1
    17    9   10 1
    18    9   25 1
    19    9   26 1
    20   10   11 2
    21   11   12 1
    22   11   13 1
    23   12   27 1
    24   12   30 1
    25   13   14 1
    26   14   15 2
    27   14   16 1
    28   17   28 1
    29   17   29 1
@<TRIPOS>MOLECULE
ZINC15987659
   31    30     0     0     0
SMALL
USER_CHARGES

@<TRIPOS>ATOM
      1 C1         -0.0173    1.4248    0.0099 C.3       1 <0>         0.0300
      2 O1          0.0021   -0.0041    0.0020 O.3       1 <0>        -0.3275
      3 C2          0.5984   -0.5997   -1.0427 C.2       1 <0>         0.4553
      4 O2          1.0877    0.0699   -1.9214 O.2       1 <0>        -0.4913
      5 C3          0.6575   -2.1036   -1.1196 C.3       1 <0>         0.0433
      6 H1         -0.2893   -2.5224   -0.7788 H         1 <0>         0.1811
      7 C4          1.7916   -2.6155   -0.2294 C.3       1 <0>        -0.1430
      8 C5          1.7732   -4.1453   -0.2092 C.3       1 <0>        -0.1067
      9 C6          2.9073   -4.6573    0.6811 C.3       1 <0>         0.0576
     10 N1          2.8897   -6.1220    0.7004 N.2       1 <0>        -0.6272
     11 C7          3.8049   -6.7980    1.4248 C.2       1 <0>         0.5571
     12 N2          4.7363   -6.1254    2.1314 N.pl3     1 <0>        -0.8527
     13 N3          3.7887   -8.1446    1.4426 N.2       1 <0>        -0.4294
     14 N4          2.8979   -8.7879    0.7668 N.pl3     1 <0>         0.2680
     15 O3          2.0042   -8.1279    0.0595 O.2       1 <0>        -0.3849
     16 O4          2.8820  -10.1047    0.7842 O.3       1 <0>        -0.4199
     17 N5          0.9024   -2.5135   -2.5089 N.4       1 <0>        -0.6234
     18 H2          1.0053    1.8021    0.0021 H         1 <0>         0.0727
     19 H3         -0.5445    1.7859   -0.8732 H         1 <0>         0.0716
     20 H4         -0.5275    1.7763    0.9067 H         1 <0>         0.1189
     21 H5          2.7472   -2.2688   -0.6228 H         1 <0>         0.0945
     22 H6          1.6572   -2.2372    0.7840 H         1 <0>         0.1207
     23 H7          0.8177   -4.4920    0.1843 H         1 <0>         0.0860
     24 H8          1.9077   -4.5237   -1.2225 H         1 <0>         0.0635
     25 H9          3.8629   -4.3106    0.2877 H         1 <0>         0.0265
     26 H10         2.7728   -4.2789    1.6944 H         1 <0>         0.0312
     27 H11         4.7480   -5.1555    2.1186 H         1 <0>         0.3987
     28 H12         5.3945   -6.6115    2.6523 H         1 <0>         0.3977
     29 H13         0.9421   -3.5204   -2.5604 H         1 <0>         0.4527
     30 H14         0.1545   -2.1759   -3.0960 H         1 <0>         0.4381
     31 H15         1.7789   -2.1258   -2.8244 H         1 <0>         0.4407
@<TRIPOS>BOND
     1    1    2 1
     2    1   18 1
     3    1   19 1
     4    1   20 1
     5    2    3 1
     6    3    4 2
     7    3    5 1
     8    5    6 1
     9    5    7 1
    10    5   17 1
    11    7    8 1
    12    7   21 1
    13    7   22 1
    14    8    9 1
    15    8   23 1
    16    8   24 1
    17    9   10 1
    18    9   25 1
    19    9   26 1
    20   10   11 1
    21   11   12 1
    22   11   13 2
    23   12   27 1
    24   12   28 1
    25   13   14 1
    26   14   15 2
    27   14   16 1
    28   17   29 1
    29   17   30 1
    30   17   31 1
@<TRIPOS>MOLECULE
ZINC15987659
   30    29     0     0     0
SMALL
USER_CHARGES

@<TRIPOS>ATOM
      1 C1         -0.0173    1.4248    0.0099 C.3       1 <0>         0.0339
      2 O1          0.0021   -0.0041    0.0020 O.3       1 <0>        -0.3540
      3 C2          0.6181   -0.6108    1.0287 C.2       1 <0>         0.4686
      4 O2          1.1242    0.0494    1.9050 O.2       1 <0>        -0.5003
      5 C3          0.6786   -2.1154    1.0883 C.3       1 <0>         0.1046
      6 H1          0.8631   -2.5115    0.0898 H         1 <0>         0.1183
      7 C4         -0.6512   -2.6588    1.6149 C.3       1 <0>        -0.1483
      8 C5         -0.6356   -4.1877    1.5583 C.3       1 <0>        -0.0932
      9 C6         -1.9654   -4.7311    2.0849 C.3       1 <0>         0.0601
     10 N1         -1.9505   -6.1950    2.0307 N.2       1 <0>        -0.6078
     11 C7         -3.0247   -6.8963    2.4474 C.2       1 <0>         0.5400
     12 N2         -4.1125   -6.2497    2.9141 N.pl3     1 <0>        -0.8558
     13 N3         -3.0110   -8.2421    2.3976 N.2       1 <0>        -0.4295
     14 N4         -1.9706   -8.8604    1.9513 N.pl3     1 <0>         0.2681
     15 O3         -0.9217   -8.1757    1.5444 O.2       1 <0>        -0.3826
     16 O4         -1.9572  -10.1765    1.9026 O.3       1 <0>        -0.4375
     17 N5          1.7658   -2.5265    1.9867 N.3       1 <0>        -0.8316
     18 H2          1.0053    1.8021    0.0021 H         1 <0>         0.0594
     19 H3         -0.5445    1.7859   -0.8732 H         1 <0>         0.1009
     20 H4         -0.5275    1.7763    0.9067 H         1 <0>         0.0585
     21 H5         -0.7933   -2.3348    2.6459 H         1 <0>         0.0655
     22 H6         -1.4674   -2.2807    0.9994 H         1 <0>         0.0750
     23 H7         -0.4934   -4.5117    0.5273 H         1 <0>         0.0703
     24 H8          0.1807   -4.5658    2.1738 H         1 <0>         0.0645
     25 H9         -2.1076   -4.4071    3.1159 H         1 <0>         0.0238
     26 H10        -2.7817   -4.3530    1.4694 H         1 <0>         0.0259
     27 H11        -4.1224   -5.2804    2.9500 H         1 <0>         0.3988
     28 H12        -4.8850   -6.7540    3.2138 H         1 <0>         0.3924
     29 H13         1.6178   -2.1715    2.9195 H         1 <0>         0.3497
     30 H14         1.8688   -3.5302    1.9940 H         1 <0>         0.3624
@<TRIPOS>BOND
     1    1    2 1
     2    1   18 1
     3    1   19 1
     4    1   20 1
     5    2    3 1
     6    3    4 2
     7    3    5 1
     8    5    6 1
     9    5    7 1
    10    5   17 1
    11    7    8 1
    12    7   21 1
    13    7   22 1
    14    8    9 1
    15    8   23 1
    16    8   24 1
    17    9   10 1
    18    9   25 1
    19    9   26 1
    20   10   11 1
    21   11   12 1
    22   11   13 2
    23   12   27 1
    24   12   28 1
    25   13   14 1
    26   14   15 2
    27   14   16 1
    28   17   29 1
    29   17   30 1
@<TRIPOS>MOLECULE
ZINC15987659
   32    31     0     0     0
SMALL
USER_CHARGES

@<TRIPOS>ATOM
      1 C1         -0.0397    1.4238    0.0121 C.3       1 <0>         0.0286
      2 O1         -0.0198   -0.0050    0.0041 O.3       1 <0>        -0.3268
      3 C2         -1.2072   -0.6310    0.0074 C.2       1 <0>         0.4508
      4 O2         -2.2296    0.0129    0.0168 O.2       1 <0>        -0.4815
      5 C3         -1.2652   -2.1369   -0.0006 C.3       1 <0>         0.0421
      6 H1         -0.4887   -2.5338    0.6534 H         1 <0>         0.1844
      7 C4         -1.0426   -2.6483   -1.4253 C.3       1 <0>        -0.1405
      8 C5         -0.9770   -4.1768   -1.4141 C.3       1 <0>        -0.1486
      9 C6         -0.7544   -4.6882   -2.8388 C.3       1 <0>         0.1004
     10 N1         -0.6917   -6.1519   -2.8280 N.pl3     1 <0>        -0.7324
     11 C7         -0.5002   -6.8271   -3.9798 C.2       1 <0>         0.7150
     12 N2         -0.4715   -6.1637   -5.1538 N.pl3     1 <0>        -0.7908
     13 N3         -0.3378   -8.1640   -3.9576 N.2       1 <0>        -0.4921
     14 N4         -0.4610   -8.8103   -2.8481 N.pl3     1 <0>         0.1913
     15 O3         -1.6150   -9.3599   -2.5307 O.2       1 <0>        -0.2316
     16 O4          0.5673   -8.9207   -2.0326 O.3       1 <0>        -0.2466
     17 N5         -2.5818   -2.5788    0.4782 N.4       1 <0>        -0.6259
     18 H2          0.9828    1.8014    0.0083 H         1 <0>         0.1230
     19 H3         -0.5636    1.7849   -0.8730 H         1 <0>         0.0755
     20 H4         -0.5535    1.7750    0.9070 H         1 <0>         0.0753
     21 H5         -1.8671   -2.3246   -2.0605 H         1 <0>         0.1073
     22 H6         -0.1061   -2.2473   -1.8131 H         1 <0>         0.1335
     23 H7         -0.1525   -4.5005   -0.7789 H         1 <0>         0.1037
     24 H8         -1.9135   -4.5778   -1.0262 H         1 <0>         0.0781
     25 H9         -1.5790   -4.3646   -3.4740 H         1 <0>         0.0877
     26 H10         0.1820   -4.2873   -3.2266 H         1 <0>         0.0937
     27 H11        -0.5884   -5.2009   -5.1697 H         1 <0>         0.4243
     28 H12        -0.3338   -6.6493   -5.9821 H         1 <0>         0.4401
     29 H13        -2.6206   -3.5870    0.4729 H         1 <0>         0.4467
     30 H14        -2.7286   -2.2415    1.4178 H         1 <0>         0.4459
     31 H15        -0.7878   -6.6353   -1.9926 H         1 <0>         0.4253
     32 H16        -3.3005   -2.2113   -0.1272 H         1 <0>         0.4441
@<TRIPOS>BOND
     1    1    2 1
     2    1   18 1
     3    1   19 1
     4    1   20 1
     5    2    3 1
     6    3    4 2
     7    3    5 1
     8    5    6 1
     9    5    7 1
    10    5   17 1
    11    7    8 1
    12    7   21 1
    13    7   22 1
    14    8    9 1
    15    8   23 1
    16    8   24 1
    17    9   10 1
    18    9   25 1
    19    9   26 1
    20   10   11 1
    21   10   31 1
    22   11   12 1
    23   11   13 2
    24   12   27 1
    25   12   28 1
    26   13   14 1
    27   14   15 2
    28   14   16 1
    29   17   29 1
    30   17   30 1
    31   17   32 1
@<TRIPOS>MOLECULE
ZINC15987659
   32    31     0     0     0
SMALL
USER_CHARGES

@<TRIPOS>ATOM
      1 C1         -0.1937    1.3629   -0.3837 C.3       1 <0>         0.0286
      2 O1         -0.1430   -0.0640   -0.3257 O.3       1 <0>        -0.3269
      3 C2          0.4770   -0.6092    0.7327 C.2       1 <0>         0.4501
      4 O2          0.9606    0.1015    1.5817 O.2       1 <0>        -0.4812
      5 C3          0.5698   -2.1078    0.8619 C.3       1 <0>         0.0428
      6 H1          0.7718   -2.5450   -0.1159 H         1 <0>         0.1844
      7 C4         -0.7524   -2.6560    1.4024 C.3       1 <0>        -0.1423
      8 C5         -0.7029   -4.1851    1.4162 C.3       1 <0>        -0.1460
      9 C6         -2.0251   -4.7333    1.9567 C.3       1 <0>         0.1041
     10 N1         -1.9777   -6.1975    1.9700 N.pl3     1 <0>        -0.6865
     11 C7         -3.0400   -6.9026    2.4100 C.2       1 <0>         0.7133
     12 N2         -4.1459   -6.2598    2.8377 N.pl3     1 <0>        -0.8397
     13 N3         -2.9964   -8.2487    2.4222 N.2       1 <0>        -0.4972
     14 N4         -4.0440   -8.9250    2.7528 N.pl3     1 <0>         0.1864
     15 O3         -4.8792   -9.3415    1.8236 O.2       1 <0>        -0.2262
     16 O4         -4.2783   -9.1988    4.0195 O.3       1 <0>        -0.2369
     17 N5          1.6576   -2.4530    1.7868 N.4       1 <0>        -0.6260
     18 H2          0.8204    1.7622   -0.4007 H         1 <0>         0.0753
     19 H3         -0.7208    1.6714   -1.2866 H         1 <0>         0.1232
     20 H4         -0.7195    1.7437    0.4919 H         1 <0>         0.0757
     21 H5         -0.9109   -2.2883    2.4162 H         1 <0>         0.1076
     22 H6         -1.5712   -2.3247    0.7637 H         1 <0>         0.1336
     23 H7         -0.5445   -4.5527    0.4024 H         1 <0>         0.1046
     24 H8          0.1159   -4.5163    2.0549 H         1 <0>         0.0797
     25 H9         -2.1836   -4.3657    2.9705 H         1 <0>         0.0873
     26 H10        -2.8440   -4.4020    1.3180 H         1 <0>         0.0927
     27 H11        -1.1824   -6.6598    1.6623 H         1 <0>         0.4344
     28 H12        -4.1450   -5.2930    2.9163 H         1 <0>         0.4179
     29 H13         2.5296   -2.0915    1.4304 H         1 <0>         0.4458
     30 H14         1.4706   -2.0483    2.6920 H         1 <0>         0.4444
     31 H15        -4.9421   -6.7643    3.0668 H         1 <0>         0.4308
     32 H16         1.7198   -3.4564    1.8734 H         1 <0>         0.4464
@<TRIPOS>BOND
     1    1    2 1
     2    1   18 1
     3    1   19 1
     4    1   20 1
     5    2    3 1
     6    3    4 2
     7    3    5 1
     8    5    6 1
     9    5    7 1
    10    5   17 1
    11    7    8 1
    12    7   21 1
    13    7   22 1
    14    8    9 1
    15    8   23 1
    16    8   24 1
    17    9   10 1
    18    9   25 1
    19    9   26 1
    20   10   11 1
    21   10   27 1
    22   11   12 1
    23   11   13 2
    24   12   28 1
    25   12   31 1
    26   13   14 1
    27   14   15 2
    28   14   16 1
    29   17   29 1
    30   17   30 1
    31   17   32 1
@<TRIPOS>MOLECULE
ZINC00897320
   14    15     0     0     0
SMALL
USER_CHARGES

@<TRIPOS>ATOM
      1 C1         -0.0167    1.3830    0.0096 C.ar      1 <0>        -0.1554
      2 C2          1.1636    2.0986    0.0022 C.ar      1 <0>        -0.0661
      3 C3          2.3767    1.4299   -0.0130 C.ar      1 <0>        -0.0373
      4 C4          2.4008    0.0270   -0.0208 C.ar      1 <0>         0.1071
      5 C5          1.2011   -0.6850   -0.0135 C.ar      1 <0>        -0.1151
      6 C6          0.0021   -0.0041    0.0020 C.ar      1 <0>        -0.0217
      7 Cl1        -1.4922   -0.8876    0.0116 Cl        1 <0>        -0.0899
      8 N1          3.7121   -0.3394   -0.0353 N.2       1 <0>        -0.6077
      9 C7          4.4487    0.7393   -0.0365 C.2       1 <0>         0.5155
     10 O1          3.6680    1.8329   -0.0231 O.3       1 <0>        -0.2728
     11 O2          5.8005    0.7533   -0.0493 O.3       1 <0>        -0.6426
     12 H1         -0.9612    1.9065    0.0260 H         1 <0>         0.1307
     13 H2          1.1414    3.1783    0.0079 H         1 <0>         0.1261
     14 H3          1.2115   -1.7649   -0.0193 H         1 <0>         0.1292
@<TRIPOS>BOND
     1    1    6 ar
     2    1    2 ar
     3    1   12 1
     4    2    3 ar
     5    2   13 1
     6    3   10 1
     7    3    4 ar
     8    4    5 ar
     9    4    8 1
    10    5    6 ar
    11    5   14 1
    12    6    7 1
    13    8    9 2
    14    9   10 1
    15    9   11 1
@<TRIPOS>MOLECULE
ZINC00897320
   15    16     0     0     0
SMALL
USER_CHARGES

@<TRIPOS>ATOM
      1 C1         -0.0167    1.3805    0.0096 C.ar      1 <0>        -0.0957
      2 C2          1.1665    2.0937    0.0022 C.ar      1 <0>        -0.0632
      3 C3          2.3785    1.4222   -0.0130 C.ar      1 <0>         0.0407
      4 C4          2.3970    0.0273   -0.0207 C.ar      1 <0>         0.0816
      5 C5          1.2069   -0.6824   -0.0132 C.ar      1 <0>        -0.0938
      6 C6          0.0021   -0.0041    0.0020 C.ar      1 <0>        -0.0176
      7 Cl1        -1.4906   -0.8904    0.0115 Cl        1 <0>        -0.0443
      8 N1          3.7386   -0.3534   -0.0356 N.am      1 <0>        -0.6453
      9 C7          4.4792    0.7726   -0.0366 C.2       1 <0>         0.6409
     10 O1          3.6678    1.8417   -0.0231 O.3       1 <0>        -0.2318
     11 O2          5.6945    0.8137   -0.0480 O.2       1 <0>        -0.4775
     12 H1         -0.9605    1.9052    0.0260 H         1 <0>         0.1556
     13 H2          1.1469    3.1735    0.0078 H         1 <0>         0.1547
     14 H3          1.2203   -1.7623   -0.0188 H         1 <0>         0.1491
     15 H4          4.0769   -1.2624   -0.0434 H         1 <0>         0.4467
@<TRIPOS>BOND
     1    1    6 ar
     2    1    2 ar
     3    1   12 1
     4    2    3 ar
     5    2   13 1
     6    3   10 1
     7    3    4 ar
     8    4    5 ar
     9    4    8 1
    10    5    6 ar
    11    5   14 1
    12    6    7 1
    13    8    9 am
    14    8   15 1
    15    9   10 1
    16    9   11 2
@<TRIPOS>MOLECULE
ZINC05828966
   15    14     0     0     0
SMALL
USER_CHARGES
2-fluoroethylsulfanylformamidine
@<TRIPOS>ATOM
      1 C1         -3.2944    5.1948    0.0459 C.3       1 <0>         0.0789
      2 C2         -3.0221    3.6893    0.0364 C.3       1 <0>        -0.2024
      3 S1         -1.2356    3.3992    0.0264 S.3       1 <0>         0.0932
      4 C3         -1.2117    1.6374    0.0167 C.cat     1 <0>         0.4825
      5 N1         -2.3322    0.9700    0.0184 N.pl3     1 <0>        -0.7869
      6 N2         -0.0111    0.9658    0.0074 N.pl3     1 <0>        -0.8005
      7 F1         -4.6753    5.4190    0.0537 F         1 <0>        -0.1894
      8 H1         -2.8451    5.6430    0.9444 H         1 <0>         0.1007
      9 H2         -2.8537    5.6528   -0.8519 H         1 <0>         0.1007
     10 H3         -3.4629    3.2313    0.9342 H         1 <0>         0.1274
     11 H4         -3.4713    3.2411   -0.8621 H         1 <0>         0.1274
     12 H5         -2.3173   -0.1299    0.0123 H         1 <0>         0.4630
     13 H6          0.0038   -0.1341    0.0013 H         1 <0>         0.4590
     14 H7          0.9340    1.5287    0.0060 H         1 <0>         0.4762
     15 H8         -3.2922    1.5070    0.0259 H         1 <0>         0.4702
@<TRIPOS>BOND
     1    1    2 1
     2    1    7 1
     3    1    8 1
     4    1    9 1
     5    2    3 1
     6    2   10 1
     7    2   11 1
     8    3    4 1
     9    4    5 2
    10    4    6 1
    11    5   12 1
    12    5   15 1
    13    6   13 1
    14    6   14 1
@<TRIPOS>MOLECULE
ZINC13746441
   16    16     0     0     0
SMALL
USER_CHARGES
5,6-dihydro-4H-1,3-oxazin-2-amine
@<TRIPOS>ATOM
      1 C1         -0.0187    1.5279    0.0104 C.3       1 <0>        -0.1928
      2 C2          0.0021   -0.0041    0.0020 C.3       1 <0>         0.0823
      3 N1          0.9578   -0.4903    0.9939 N.pl3     1 <0>        -0.6660
      4 C3          1.8882    0.2438    1.5002 C.cat     1 <0>         0.6891
      5 O1          2.0768    1.5375    1.1815 O.3       1 <0>        -0.2928
      6 C4          1.4341    2.0251   -0.0008 C.3       1 <0>         0.0479
      7 N2          2.7362   -0.3272    2.4173 N.pl3     1 <0>        -0.8143
      8 H1         -0.5249    1.8950    0.9154 H         1 <0>         0.1024
      9 H2         -0.5421    1.9046   -0.8808 H         1 <0>         0.1328
     10 H3         -1.0006   -0.3857    0.2448 H         1 <0>         0.1259
     11 H4          0.2988   -0.3613   -0.9952 H         1 <0>         0.1116
     12 H5          1.9455    1.6430   -0.8966 H         1 <0>         0.1027
     13 H6          1.4452    3.1250   -0.0134 H         1 <0>         0.1514
     14 H7          3.5413    0.2710    2.8690 H         1 <0>         0.4759
     15 H8          2.6103   -1.3827    2.7001 H         1 <0>         0.4704
     16 H9          0.8544   -1.5400    1.3059 H         1 <0>         0.4733
@<TRIPOS>BOND
     1    1    6 1
     2    1    2 1
     3    1    8 1
     4    1    9 1
     5    2    3 1
     6    2   10 1
     7    2   11 1
     8    3    4 2
     9    3   16 1
    10    4    5 1
    11    4    7 1
    12    5    6 1
    13    6   12 1
    14    6   13 1
    15    7   14 1
    16    7   15 1
@<TRIPOS>MOLECULE
ZINC12946088
   15    15     0     0     0
SMALL
USER_CHARGES
4,5-dihydro-3H-pyrrol-2-amine
@<TRIPOS>ATOM
      1 C1          1.4691    1.8877   -0.0018 C.3       1 <0>        -0.1359
      2 C2          2.1272    0.6397   -0.6385 C.3       1 <0>        -0.1263
      3 C3          1.1481   -0.4755   -0.3460 C.cat     1 <0>         0.5185
      4 C4         -0.0178    1.4631    0.0101 C.3       1 <0>         0.0726
      5 N1          1.4422   -1.8104   -0.4388 N.pl3     1 <0>        -0.7800
      6 H1          1.6204    2.7710   -0.6223 H         1 <0>         0.1241
      7 H2          1.8384    2.0530    1.0103 H         1 <0>         0.1061
      8 H3          3.0907    0.4351   -0.1718 H         1 <0>         0.1359
      9 H4          2.2430    0.7749   -1.7139 H         1 <0>         0.1425
     10 H5         -0.5258    1.8394   -0.8779 H         1 <0>         0.1170
     11 H6         -0.5087    1.8298    0.9116 H         1 <0>         0.1210
     12 H7          0.7626   -2.4720   -0.2355 H         1 <0>         0.4290
     13 H8          2.3300   -2.0939   -0.7078 H         1 <0>         0.4453
     14 N2         -0.0123   -0.0152    0.0063 N.pl3     1 <0>        -0.6245
     15 H9         -0.8200   -0.6002    0.2503 H         1 <0>         0.4548
@<TRIPOS>BOND
     1    1    4 1
     2    1    2 1
     3    1    6 1
     4    1    7 1
     5    2    3 1
     6    2    8 1
     7    2    9 1
     8    3    5 1
     9    3   14 2
    10    4   10 1
    11    4   11 1
    12    4   14 1
    13    5   12 1
    14    5   13 1
    15   14   15 1
@<TRIPOS>MOLECULE
ZINC13781168
   18    18     0     0     0
SMALL
USER_CHARGES

@<TRIPOS>ATOM
      1 C1         -0.0187    1.5258    0.0104 C.3       1 <0>        -0.1743
      2 C2          0.0021   -0.0041    0.0020 C.3       1 <0>         0.1012
      3 H1          0.5208   -0.3699   -0.8841 H         1 <0>         0.1307
      4 C3         -1.4400   -0.5606    0.0478 C.3       1 <0>        -0.1328
      5 C4         -1.6196   -0.7902    1.5679 C.3       1 <0>        -0.1275
      6 C5         -0.2048   -0.9409    2.0815 C.cat     1 <0>         0.5203
      7 N1          0.6500   -0.5113    1.2170 N.pl3     1 <0>        -0.6086
      8 N2          0.1253   -1.4651    3.3034 N.pl3     1 <0>        -0.7788
      9 H2          1.0039    1.9031    0.0027 H         1 <0>         0.0763
     10 H3         -0.5459    1.8868   -0.8726 H         1 <0>         0.0992
     11 H4         -0.5289    1.8773    0.9072 H         1 <0>         0.0706
     12 H5         -2.1556    0.1718   -0.3260 H         1 <0>         0.1245
     13 H6         -1.5167   -1.4982   -0.5028 H         1 <0>         0.1079
     14 H7         -2.1048    0.0695    2.0300 H         1 <0>         0.1421
     15 H8         -2.1924   -1.6990    1.7525 H         1 <0>         0.1366
     16 H9         -0.5720   -1.7699    3.9048 H         1 <0>         0.4460
     17 H10         1.0564   -1.5313    3.5672 H         1 <0>         0.4293
     18 H11         1.6104   -0.5218    1.3528 H         1 <0>         0.4372
@<TRIPOS>BOND
     1    1    2 1
     2    1    9 1
     3    1   10 1
     4    1   11 1
     5    2    3 1
     6    2    7 1
     7    2    4 1
     8    4    5 1
     9    4   12 1
    10    4   13 1
    11    5    6 1
    12    5   14 1
    13    5   15 1
    14    6    7 2
    15    6    8 1
    16    7   18 1
    17    8   16 1
    18    8   17 1
@<TRIPOS>MOLECULE
ZINC13781169
   18    18     0     0     0
SMALL
USER_CHARGES

@<TRIPOS>ATOM
      1 C1         -0.0187    1.5258    0.0104 C.3       1 <0>        -0.1729
      2 C2          0.0021   -0.0041    0.0020 C.3       1 <0>         0.1014
      3 H1         -1.0150   -0.3957    0.0221 H         1 <0>         0.1264
      4 C3          0.7527   -0.5238   -1.2462 C.3       1 <0>        -0.1329
      5 C4          1.4774   -1.7601   -0.6612 C.3       1 <0>        -0.1274
      6 C5          1.5708   -1.4592    0.8182 C.cat     1 <0>         0.5196
      7 N1          0.7651   -0.5093    1.1491 N.pl3     1 <0>        -0.6087
      8 N2          2.4004   -2.1116    1.6918 N.pl3     1 <0>        -0.7793
      9 H2          1.0039    1.9031    0.0027 H         1 <0>         0.0743
     10 H3         -0.5459    1.8868   -0.8726 H         1 <0>         0.1001
     11 H4         -0.5289    1.8773    0.9072 H         1 <0>         0.0765
     12 H5          0.0548   -0.8130   -2.0319 H         1 <0>         0.1245
     13 H6          1.4672    0.2144   -1.6103 H         1 <0>         0.1077
     14 H7          0.8914   -2.6632   -0.8317 H         1 <0>         0.1430
     15 H8          2.4724   -1.8609   -1.0947 H         1 <0>         0.1361
     16 H9          2.9808   -2.8201    1.3721 H         1 <0>         0.4460
     17 H10         2.4075   -1.8649    2.6298 H         1 <0>         0.4292
     18 H11         0.6738   -0.1664    2.0518 H         1 <0>         0.4365
@<TRIPOS>BOND
     1    1    2 1
     2    1    9 1
     3    1   10 1
     4    1   11 1
     5    2    3 1
     6    2    7 1
     7    2    4 1
     8    4    5 1
     9    4   12 1
    10    4   13 1
    11    5    6 1
    12    5   14 1
    13    5   15 1
    14    6    7 2
    15    6    8 1
    16    7   18 1
    17    8   16 1
    18    8   17 1
@<TRIPOS>MOLECULE
ZINC01529776
   30    29     0     0     0
SMALL
USER_CHARGES

@<TRIPOS>ATOM
      1 C1         -0.0178    1.4608    0.0101 C.3       1 <0>         0.0551
      2 N1          0.0021   -0.0041    0.0020 N.pl3     1 <0>        -0.6967
      3 C2          0.5968   -0.6778   -1.0385 C.cat     1 <0>         0.7320
      4 N2          1.1429   -0.0132   -2.0177 N.pl3     1 <0>        -0.7705
      5 N3          0.6154   -2.0524   -1.0460 N.pl3     1 <0>        -0.7005
      6 C3          1.2492   -2.7703   -2.1547 C.3       1 <0>         0.0939
      7 C4          1.1321   -4.2776   -1.9196 C.3       1 <0>        -0.1464
      8 C5          1.7939   -5.0273   -3.0775 C.3       1 <0>        -0.1250
      9 C6          1.6769   -6.5346   -2.8423 C.3       1 <0>        -0.0511
     10 H1          0.6297   -6.7992   -2.6953 H         1 <0>         0.1370
     11 C7          2.2183   -7.2733   -4.0391 C.2       1 <0>         0.4860
     12 O1          3.2648   -7.8927   -3.9510 O.co2     1 <0>        -0.6645
     13 O2          1.6099   -7.2515   -5.0955 O.co2     1 <0>        -0.6296
     14 N4          2.4479   -6.9052   -1.6482 N.4       1 <0>        -0.6147
     15 H2          1.0048    1.8381    0.0023 H         1 <0>         0.0856
     16 H3         -0.5450    1.8219   -0.8730 H         1 <0>         0.0860
     17 H4         -0.5280    1.8123    0.9069 H         1 <0>         0.1178
     18 H5         -0.4044   -0.4986    0.7308 H         1 <0>         0.4371
     19 H6          1.5625   -0.4885   -2.7518 H         1 <0>         0.4413
     20 H7          0.2090   -2.5470   -0.3173 H         1 <0>         0.4341
     21 H8          0.7517   -2.5086   -3.0886 H         1 <0>         0.0993
     22 H9          2.3015   -2.4924   -2.2133 H         1 <0>         0.0954
     23 H10         1.6295   -4.5394   -0.9857 H         1 <0>         0.0726
     24 H11         0.0798   -4.5556   -1.8610 H         1 <0>         0.0947
     25 H12         1.2965   -4.7656   -4.0114 H         1 <0>         0.1189
     26 H13         2.8463   -4.7494   -3.1361 H         1 <0>         0.0903
     27 H14         2.0854   -6.4107   -0.8469 H         1 <0>         0.4084
     28 H15         2.3707   -7.8993   -1.4931 H         1 <0>         0.4382
     29 H16         1.1298    0.9567   -2.0124 H         1 <0>         0.4423
     30 H17         3.4172   -6.6604   -1.7843 H         1 <0>         0.4331
@<TRIPOS>BOND
     1    1    2 1
     2    1   15 1
     3    1   16 1
     4    1   17 1
     5    2    3 1
     6    2   18 1
     7    3    4 2
     8    3    5 1
     9    4   19 1
    10    4   29 1
    11    5    6 1
    12    5   20 1
    13    6    7 1
    14    6   21 1
    15    6   22 1
    16    7    8 1
    17    7   23 1
    18    7   24 1
    19    8    9 1
    20    8   25 1
    21    8   26 1
    22    9   10 1
    23    9   11 1
    24    9   14 1
    25   11   12 2
    26   11   13 1
    27   14   27 1
    28   14   28 1
    29   14   30 1
@<TRIPOS>MOLECULE
ZINC13781172
   24    24     0     0     0
SMALL
USER_CHARGES
(4R,5S)-5-ethyl-4-methyl-4,5-dihydro-3H-pyrrol-2-amine
@<TRIPOS>ATOM
      1 C1         -2.1119    1.2292   -3.2423 C.3       1 <0>        -0.1648
      2 C2         -1.4797    0.6143   -1.9920 C.3       1 <0>        -0.1413
      3 C3         -0.5642    1.6428   -1.3250 C.3       1 <0>         0.1199
      4 H1         -1.1344    2.5763   -1.2091 H         1 <0>         0.1237
      5 C4         -0.0127    1.0858    0.0080 C.3       1 <0>        -0.1037
      6 H2         -0.0694   -0.0082    0.1073 H         1 <0>         0.1195
      7 C5          1.4235    1.6630   -0.0026 C.3       1 <0>        -0.1301
      8 C6          1.7064    1.9043   -1.4688 C.cat     1 <0>         0.5155
      9 N1          0.6192    1.8869   -2.1576 N.pl3     1 <0>        -0.6249
     10 N2          2.9543    2.1140   -1.9939 N.pl3     1 <0>        -0.8128
     11 C7         -0.8112    1.6163    1.2005 C.3       1 <0>        -0.1601
     12 H3         -2.7701    0.4897   -3.7218 H         1 <0>         0.0745
     13 H4         -1.3198    1.5257   -3.9456 H         1 <0>         0.0498
     14 H5         -2.7002    2.1142   -2.9583 H         1 <0>         0.0666
     15 H6         -2.2718    0.3178   -1.2887 H         1 <0>         0.1016
     16 H7         -0.8914   -0.2707   -2.2760 H         1 <0>         0.0793
     17 H8          1.4492    2.5931    0.5841 H         1 <0>         0.1407
     18 H9          2.1160    0.9314    0.4393 H         1 <0>         0.1332
     19 H10         3.0753    2.2824   -3.0742 H         1 <0>         0.4544
     20 H11         3.8353    2.1140   -1.3352 H         1 <0>         0.4745
     21 H12        -0.3966    1.2038    2.1321 H         1 <0>         0.0796
     22 H13        -1.8637    1.3123    1.1014 H         1 <0>         0.0775
     23 H14        -0.7474    2.7142    1.2253 H         1 <0>         0.0656
     24 H15         0.6548    2.0455   -3.2455 H         1 <0>         0.4618
@<TRIPOS>BOND
     1    1    2 1
     2    1   12 1
     3    1   13 1
     4    1   14 1
     5    2    3 1
     6    2   15 1
     7    2   16 1
     8    3    4 1
     9    3    9 1
    10    3    5 1
    11    5    6 1
    12    5    7 1
    13    5   11 1
    14    7    8 1
    15    7   17 1
    16    7   18 1
    17    8    9 2
    18    8   10 1
    19    9   24 1
    20   10   19 1
    21   10   20 1
    22   11   21 1
    23   11   22 1
    24   11   23 1
@<TRIPOS>MOLECULE
ZINC27190938
   24    24     0     0     0
SMALL
USER_CHARGES
(4S,5S)-5-ethyl-4-methyl-4,5-dihydro-3H-pyrrol-2-amine
@<TRIPOS>ATOM
      1 C1         -0.1666    0.9872    2.4998 C.3       1 <0>        -0.1651
      2 C2         -0.7705    1.5990    1.2341 C.3       1 <0>        -0.1429
      3 C3         -0.0127    1.0858    0.0080 C.3       1 <0>         0.1207
      4 H1          0.0138   -0.0124    0.0649 H         1 <0>         0.1233
      5 C4         -0.6620    1.6209   -1.2895 C.3       1 <0>        -0.1035
      6 H2         -1.4167    0.9556   -1.7343 H         1 <0>         0.1331
      7 C5          0.5894    1.8615   -2.1682 C.3       1 <0>        -0.1297
      8 C6          1.7080    2.0382   -1.1654 C.cat     1 <0>         0.5150
      9 N1          1.3564    1.6137   -0.0022 N.pl3     1 <0>        -0.6237
     10 N2          2.9330    2.5780   -1.4567 N.pl3     1 <0>        -0.8128
     11 C7         -1.4138    2.9282   -1.0312 C.3       1 <0>        -0.1676
     12 H3         -0.7114    1.3562    3.3813 H         1 <0>         0.0743
     13 H4          0.8925    1.2744    2.5765 H         1 <0>         0.0491
     14 H5         -0.2467   -0.1088    2.4515 H         1 <0>         0.0663
     15 H6         -1.8296    1.3118    1.1574 H         1 <0>         0.1022
     16 H7         -0.6904    2.6950    1.2824 H         1 <0>         0.0822
     17 H8          0.7510    0.9918   -2.8221 H         1 <0>         0.1406
     18 H9          0.4377    2.7602   -2.7842 H         1 <0>         0.1334
     19 H10         3.6942    2.6718   -0.6682 H         1 <0>         0.4544
     20 H11         3.1553    2.9176   -2.4791 H         1 <0>         0.4744
     21 H12        -1.8639    3.2839   -1.9697 H         1 <0>         0.0781
     22 H13        -0.7125    3.6855   -0.6508 H         1 <0>         0.0552
     23 H14        -2.2055    2.7551   -0.2874 H         1 <0>         0.0810
     24 H15         2.0601    1.6738    0.8411 H         1 <0>         0.4621
@<TRIPOS>BOND
     1    1    2 1
     2    1   12 1
     3    1   13 1
     4    1   14 1
     5    2    3 1
     6    2   15 1
     7    2   16 1
     8    3    4 1
     9    3    9 1
    10    3    5 1
    11    5    6 1
    12    5    7 1
    13    5   11 1
    14    7    8 1
    15    7   17 1
    16    7   18 1
    17    8    9 2
    18    8   10 1
    19    9   24 1
    20   10   19 1
    21   10   20 1
    22   11   21 1
    23   11   22 1
    24   11   23 1
@<TRIPOS>MOLECULE
ZINC27190942
   24    24     0     0     0
SMALL
USER_CHARGES
(4S,5R)-5-ethyl-4-methyl-4,5-dihydro-3H-pyrrol-2-amine
@<TRIPOS>ATOM
      1 C1         -0.0127    1.0858    0.0080 C.3       1 <0>        -0.1647
      2 C2         -0.7288    1.5792    1.2668 C.3       1 <0>        -0.1413
      3 C3         -2.1642    1.0497    1.2777 C.3       1 <0>         0.1198
      4 H1         -2.6251    1.3047    0.3120 H         1 <0>         0.1235
      5 C4         -2.9341    1.6107    2.4959 C.3       1 <0>        -0.1034
      6 H2         -2.2974    1.9973    3.3053 H         1 <0>         0.1196
      7 C5         -3.8049    0.3885    2.8811 C.3       1 <0>        -0.1302
      8 C6         -3.0459   -0.7915    2.3157 C.cat     1 <0>         0.5155
      9 N1         -2.1683   -0.4068    1.4563 N.pl3     1 <0>        -0.6248
     10 N2         -3.2639   -2.0965    2.6710 N.pl3     1 <0>        -0.8128
     11 C7         -3.8028    2.8052    2.0964 C.3       1 <0>        -0.1601
     12 H3          1.0193    1.4665    0.0002 H         1 <0>         0.0747
     13 H4         -0.5447    1.4502   -0.8831 H         1 <0>         0.0666
     14 H5          0.0022   -0.0141    0.0019 H         1 <0>         0.0496
     15 H6         -0.1968    1.2148    2.1579 H         1 <0>         0.0794
     16 H7         -0.7437    2.6791    1.2729 H         1 <0>         0.1016
     17 H8         -3.8989    0.3357    3.9758 H         1 <0>         0.1331
     18 H9         -4.8035    0.4936    2.4320 H         1 <0>         0.1406
     19 H10        -2.6673   -2.8985    2.2119 H         1 <0>         0.4543
     20 H11        -4.0355   -2.3423    3.4154 H         1 <0>         0.4745
     21 H12        -4.3371    3.1821    2.9810 H         1 <0>         0.0796
     22 H13        -4.5312    2.4903    1.3346 H         1 <0>         0.0656
     23 H14        -3.1646    3.6018    1.6864 H         1 <0>         0.0776
     24 H15        -1.5295   -1.1477    0.9533 H         1 <0>         0.4618
@<TRIPOS>BOND
     1    1    2 1
     2    1   12 1
     3    1   13 1
     4    1   14 1
     5    2    3 1
     6    2   15 1
     7    2   16 1
     8    3    4 1
     9    3    9 1
    10    3    5 1
    11    5    6 1
    12    5    7 1
    13    5   11 1
    14    7    8 1
    15    7   17 1
    16    7   18 1
    17    8    9 2
    18    8   10 1
    19    9   24 1
    20   10   19 1
    21   10   20 1
    22   11   21 1
    23   11   22 1
    24   11   23 1
@<TRIPOS>MOLECULE
ZINC27190953
   24    24     0     0     0
SMALL
USER_CHARGES
(4R,5R)-5-ethyl-4-methyl-4,5-dihydro-3H-pyrrol-2-amine
@<TRIPOS>ATOM
      1 C1          1.5268   -0.5583    3.5764 C.3       1 <0>        -0.1652
      2 C2          0.8769   -0.0890    2.2733 C.3       1 <0>        -0.1427
      3 C3          0.0368    1.1608    2.5436 C.3       1 <0>         0.1206
      4 H1         -0.6194    0.9457    3.3999 H         1 <0>         0.1233
      5 C4         -0.7288    1.5792    1.2668 C.3       1 <0>        -0.1037
      6 H2         -1.7442    1.1645    1.1833 H         1 <0>         0.1330
      7 C5         -0.6656    3.1220    1.3758 C.3       1 <0>        -0.1292
      8 C6          0.5472    3.3734    2.2460 C.cat     1 <0>         0.5148
      9 N1          0.9042    2.3009    2.8616 N.pl3     1 <0>        -0.6237
     10 N2          1.1812    4.5823    2.3624 N.pl3     1 <0>        -0.8128
     11 C7         -0.0127    1.0858    0.0080 C.3       1 <0>        -0.1677
     12 H3          2.1308   -1.4569    3.3820 H         1 <0>         0.0741
     13 H4          0.7440   -0.7947    4.3121 H         1 <0>         0.0663
     14 H5          2.1729    0.2393    3.9719 H         1 <0>         0.0494
     15 H6          1.6597    0.1474    1.5376 H         1 <0>         0.0819
     16 H7          0.2308   -0.8866    1.8777 H         1 <0>         0.1023
     17 H8         -0.5541    3.5563    0.3713 H         1 <0>         0.1334
     18 H9         -1.5924    3.4954    1.8359 H         1 <0>         0.1406
     19 H10         2.0589    4.6822    3.0179 H         1 <0>         0.4544
     20 H11         0.8126    5.4530    1.8003 H         1 <0>         0.4744
     21 H12        -0.5790    1.3976   -0.8820 H         1 <0>         0.0781
     22 H13         0.0572   -0.0117    0.0323 H         1 <0>         0.0810
     23 H14         0.9986    1.5168   -0.0313 H         1 <0>         0.0552
     24 H15         1.7739    2.3168    3.5349 H         1 <0>         0.4621
@<TRIPOS>BOND
     1    1    2 1
     2    1   12 1
     3    1   13 1
     4    1   14 1
     5    2    3 1
     6    2   15 1
     7    2   16 1
     8    3    4 1
     9    3    9 1
    10    3    5 1
    11    5    6 1
    12    5    7 1
    13    5   11 1
    14    7    8 1
    15    7   17 1
    16    7   18 1
    17    8    9 2
    18    8   10 1
    19    9   24 1
    20   10   19 1
    21   10   20 1
    22   11   21 1
    23   11   22 1
    24   11   23 1
@<TRIPOS>MOLECULE
ZINC28476631
   28    29     0     0     0
SMALL
USER_CHARGES
(4R,4aR,7aR)-4-methyl-4,4a,5,6,7,7a-hexahydro-3H-cyclopenta[e]pyridin-2-amine
@<TRIPOS>ATOM
      1 C1         -3.1749    2.3326   -2.9363 C.3       1 <0>        -0.1551
      2 C2         -2.9163    2.9120   -1.5441 C.3       1 <0>        -0.0945
      3 H1         -3.8736    3.1832   -1.0750 H         1 <0>         0.0912
      4 C3         -2.0319    4.1549   -1.6646 C.3       1 <0>        -0.1230
      5 C4         -1.6148    4.5960   -0.2898 C.cat     1 <0>         0.5355
      6 N1         -1.5986    3.8202    0.7198 N.pl3     1 <0>        -0.6216
      7 C5         -1.9675    2.4148    0.7359 C.3       1 <0>         0.1199
      8 H2         -2.8725    2.3854    1.3606 H         1 <0>         0.1218
      9 C6         -2.2112    1.8714   -0.6836 C.3       1 <0>        -0.1096
     10 H3         -2.8584    0.9820   -0.6989 H         1 <0>         0.1225
     11 C7         -0.7868    1.6108   -1.2198 C.3       1 <0>        -0.1302
     12 C8         -0.0127    1.0858    0.0080 C.3       1 <0>        -0.1280
     13 C9         -0.7609    1.5960    1.2522 C.3       1 <0>        -0.1300
     14 N2         -1.2319    5.8996   -0.1138 N.pl3     1 <0>        -0.8356
     15 H4         -3.6841    3.0842   -3.5575 H         1 <0>         0.0695
     16 H5         -3.8093    1.4382   -2.8492 H         1 <0>         0.0738
     17 H6         -2.2173    2.0588   -3.4032 H         1 <0>         0.0676
     18 H7         -1.1406    3.9141   -2.2625 H         1 <0>         0.1364
     19 H8         -2.5967    4.9605   -2.1565 H         1 <0>         0.1286
     20 H9         -0.8302    0.8679   -2.0299 H         1 <0>         0.0879
     21 H10        -0.3627    2.5496   -1.6056 H         1 <0>         0.0677
     22 H11         0.0071   -0.0138   -0.0137 H         1 <0>         0.0831
     23 H12         1.0172    1.4716   -0.0154 H         1 <0>         0.0737
     24 H13        -0.1130    2.2427    1.8622 H         1 <0>         0.0803
     25 H14        -1.1223    0.7568    1.8646 H         1 <0>         0.1007
     26 H15        -0.9213    6.2521    0.8808 H         1 <0>         0.4480
     27 H16        -1.2350    6.5938   -0.9671 H         1 <0>         0.4691
     28 H17        -1.2818    4.2018    1.7016 H         1 <0>         0.4503
@<TRIPOS>BOND
     1    1    2 1
     2    1   15 1
     3    1   16 1
     4    1   17 1
     5    2    3 1
     6    2    9 1
     7    2    4 1
     8    4    5 1
     9    4   18 1
    10    4   19 1
    11    5    6 2
    12    5   14 1
    13    6    7 1
    14    6   28 1
    15    7    8 1
    16    7   13 1
    17    7    9 1
    18    9   10 1
    19    9   11 1
    20   11   12 1
    21   11   20 1
    22   11   21 1
    23   12   13 1
    24   12   22 1
    25   12   23 1
    26   13   24 1
    27   13   25 1
    28   14   26 1
    29   14   27 1
@<TRIPOS>MOLECULE
ZINC13952160
   13    13     0     0     0
SMALL
USER_CHARGES
pyridin-2-amine
@<TRIPOS>ATOM
      1 C1         -1.2206    1.7609    0.0173 C.ar      1 <0>        -0.0333
      2 C2         -0.0126    1.0758    0.0080 C.ar      1 <0>        -0.2360
      3 C3          1.1691    1.7890    0.0005 C.ar      1 <0>         0.1484
      4 N1          1.1632    3.1087    0.0072 N.ar      1 <0>        -0.5484
      5 C4          0.0327    3.7978    0.0212 C.ar      1 <0>         0.4010
      6 C5         -1.1952    3.1436    0.0294 C.ar      1 <0>        -0.2417
      7 N2          0.0730    5.1872    0.0283 N.pl3     1 <0>        -0.8532
      8 H1         -2.1588    1.2259    0.0192 H         1 <0>         0.1330
      9 H2          0.0021   -0.0041    0.0020 H         1 <0>         0.1322
     10 H3          2.1107    1.2603   -0.0113 H         1 <0>         0.1560
     11 H4         -2.1160    3.7079    0.0405 H         1 <0>         0.1298
     12 H5          0.9267    5.6477    0.0230 H         1 <0>         0.4041
     13 H6         -0.7526    5.6963    0.0386 H         1 <0>         0.4081
@<TRIPOS>BOND
     1    1    6 ar
     2    1    2 ar
     3    1    8 1
     4    2    3 ar
     5    2    9 1
     6    3    4 ar
     7    3   10 1
     8    4    5 ar
     9    5    6 ar
    10    5    7 1
    11    6   11 1
    12    7   12 1
    13    7   13 1
@<TRIPOS>MOLECULE
ZINC19796052
   28    27     0     0     0
SMALL
USER_CHARGES

@<TRIPOS>ATOM
      1 C1         -0.0117    1.5287   -0.1466 C.3       1 <0>        -0.1446
      2 C2          0.0130    0.0014   -0.2331 C.3       1 <0>        -0.1246
      3 C3         -1.4208   -0.5325   -0.2382 C.3       1 <0>        -0.0498
      4 H1         -1.9814   -0.0605   -1.0450 H         1 <0>         0.1365
      5 C4         -1.4005   -2.0248   -0.4467 C.2       1 <0>         0.4883
      6 O1         -1.7056   -2.7722    0.4670 O.co2     1 <0>        -0.6698
      7 O2         -1.0790   -2.4848   -1.5291 O.co2     1 <0>        -0.6325
      8 N1         -2.0618   -0.2264    1.0477 N.4       1 <0>        -0.6145
      9 C5          1.4221    2.0625   -0.1416 C.3       1 <0>         0.1026
     10 N2          1.3984    3.5250   -0.0588 N.pl3     1 <0>        -0.6811
     11 C6          2.5553    4.2182   -0.0399 C.2       1 <0>         0.7149
     12 N3          3.7340    3.5650   -0.0974 N.pl3     1 <0>        -0.8398
     13 N4          2.5335    5.5627    0.0362 N.2       1 <0>        -0.5046
     14 N5          3.6342    6.2311   -0.0411 N.pl3     1 <0>         0.1932
     15 O3          4.0483    6.6853   -1.2058 O.2       1 <0>        -0.2350
     16 O4          4.3437    6.4591    1.0447 O.3       1 <0>        -0.2457
     17 H2         -0.5468    1.9327   -1.0060 H         1 <0>         0.0930
     18 H3         -0.5157    1.8325    0.7708 H         1 <0>         0.0705
     19 H4          0.5171   -0.3025   -1.1506 H         1 <0>         0.1174
     20 H5          0.5481   -0.4026    0.6263 H         1 <0>         0.0885
     21 H6         -1.5428   -0.6633    1.7946 H         1 <0>         0.4324
     22 H7         -2.0754    0.7728    1.1873 H         1 <0>         0.4115
     23 H8          1.9572    1.6586    0.7178 H         1 <0>         0.0859
     24 H9          1.9262    1.7587   -1.0591 H         1 <0>         0.0912
     25 H10         0.5508    3.9948   -0.0175 H         1 <0>         0.4331
     26 H11         3.7538    2.5960   -0.0591 H         1 <0>         0.4203
     27 H12         4.5618    4.0643   -0.1769 H         1 <0>         0.4280
     28 H13        -3.0073   -0.5784    1.0444 H         1 <0>         0.4349
@<TRIPOS>BOND
     1    1    2 1
     2    1    9 1
     3    1   17 1
     4    1   18 1
     5    2    3 1
     6    2   19 1
     7    2   20 1
     8    3    4 1
     9    3    5 1
    10    3    8 1
    11    5    6 2
    12    5    7 1
    13    8   21 1
    14    8   22 1
    15    8   28 1
    16    9   10 1
    17    9   23 1
    18    9   24 1
    19   10   11 1
    20   10   25 1
    21   11   12 1
    22   11   13 2
    23   12   26 1
    24   12   27 1
    25   13   14 1
    26   14   15 2
    27   14   16 1
@<TRIPOS>MOLECULE
ZINC19796052
   27    26     0     0     0
SMALL
USER_CHARGES

@<TRIPOS>ATOM
      1 C1         -0.0187    1.5258    0.0104 C.3       1 <0>        -0.1050
      2 C2          0.0021   -0.0041    0.0020 C.3       1 <0>        -0.1256
      3 C3         -1.4333   -0.5336    0.0129 C.3       1 <0>        -0.0468
      4 H1         -1.9862   -0.1019   -0.8214 H         1 <0>         0.1327
      5 C4         -1.4159   -2.0348   -0.1192 C.2       1 <0>         0.4921
      6 O1         -1.7304   -2.7338    0.8289 O.co2     1 <0>        -0.6808
      7 O2         -1.0874   -2.5501   -1.1742 O.co2     1 <0>        -0.6408
      8 N1         -2.0833   -0.1607    1.2764 N.4       1 <0>        -0.6128
      9 C5          1.4167    2.0553   -0.0004 C.3       1 <0>         0.0578
     10 N2          1.3968    3.5202    0.0076 N.2       1 <0>        -0.6142
     11 C6          2.5556    4.2104    0.0003 C.2       1 <0>         0.5440
     12 N3          3.7327    3.5520   -0.0145 N.pl3     1 <0>        -0.8545
     13 N4          2.5374    5.5571    0.0077 N.2       1 <0>        -0.4280
     14 N5          1.4116    6.1868    0.0218 N.pl3     1 <0>         0.2692
     15 O3          0.2801    5.5129    0.0290 O.2       1 <0>        -0.3868
     16 O4          1.3938    7.5037    0.0290 O.3       1 <0>        -0.4347
     17 H2         -0.5459    1.8868   -0.8726 H         1 <0>         0.0743
     18 H3         -0.5289    1.8773    0.9072 H         1 <0>         0.0541
     19 H4          0.5123   -0.3556   -0.8948 H         1 <0>         0.1045
     20 H5          0.5293   -0.3651    0.8851 H         1 <0>         0.0750
     21 H6         -2.0949    0.8443    1.3648 H         1 <0>         0.4188
     22 H7         -3.0299   -0.5100    1.2835 H         1 <0>         0.4273
     23 H8          1.9439    1.6943    0.8826 H         1 <0>         0.0266
     24 H9          1.9269    1.7038   -0.8972 H         1 <0>         0.0313
     25 H10         3.7459    2.5821   -0.0198 H         1 <0>         0.4001
     26 H11         4.5661    4.0484   -0.0198 H         1 <0>         0.3937
     27 H12        -1.5715   -0.5604    2.0487 H         1 <0>         0.4287
@<TRIPOS>BOND
     1    1    2 1
     2    1    9 1
     3    1   17 1
     4    1   18 1
     5    2    3 1
     6    2   19 1
     7    2   20 1
     8    3    4 1
     9    3    5 1
    10    3    8 1
    11    5    6 2
    12    5    7 1
    13    8   21 1
    14    8   22 1
    15    8   27 1
    16    9   10 1
    17    9   23 1
    18    9   24 1
    19   10   11 1
    20   11   12 1
    21   11   13 2
    22   12   25 1
    23   12   26 1
    24   13   14 1
    25   14   15 2
    26   14   16 1
@<TRIPOS>MOLECULE
ZINC24773728
   40    39     0     0     0
SMALL
USER_CHARGES

@<TRIPOS>ATOM
      1 C1         -0.0117    1.5287   -0.1466 C.3       1 <0>        -0.1482
      2 C2          0.0130    0.0014   -0.2331 C.3       1 <0>        -0.1458
      3 C3         -1.4208   -0.5325   -0.2382 C.3       1 <0>         0.0354
      4 H1         -1.9814   -0.0605   -1.0450 H         1 <0>         0.1594
      5 C4         -1.4002   -2.0476   -0.4499 C.3       1 <0>         0.0315
      6 N1         -2.7658   -2.5767   -0.3355 N.3       1 <0>        -0.6879
      7 C5         -2.7848   -4.0321   -0.5335 C.3       1 <0>         0.0273
      8 C6         -4.2207   -4.5453   -0.4073 C.3       1 <0>        -0.0101
      9 N2         -4.2397   -6.0007   -0.6053 N.4       1 <0>        -0.6360
     10 N3         -2.0618   -0.2264    1.0477 N.4       1 <0>        -0.6435
     11 C7          1.4221    2.0625   -0.1416 C.3       1 <0>         0.1054
     12 N4          1.3984    3.5250   -0.0588 N.pl3     1 <0>        -0.6888
     13 C8          2.5553    4.2182   -0.0399 C.2       1 <0>         0.7115
     14 N5          3.7340    3.5650   -0.0974 N.pl3     1 <0>        -0.8398
     15 N6          2.5335    5.5627    0.0362 N.2       1 <0>        -0.4947
     16 N7          3.6342    6.2311   -0.0411 N.pl3     1 <0>         0.1835
     17 O1          4.0483    6.6853   -1.2058 O.2       1 <0>        -0.2223
     18 O2          4.3437    6.4591    1.0447 O.3       1 <0>        -0.2332
     19 H2         -0.5468    1.9327   -1.0060 H         1 <0>         0.1004
     20 H3         -0.5157    1.8325    0.7708 H         1 <0>         0.0759
     21 H4          0.5171   -0.3025   -1.1506 H         1 <0>         0.1254
     22 H5          0.5481   -0.4026    0.6263 H         1 <0>         0.0997
     23 H6         -1.0060   -2.2706   -1.4413 H         1 <0>         0.1313
     24 H7         -0.7663   -2.5115    0.3059 H         1 <0>         0.0719
     25 H8         -3.1772   -2.3270    0.5514 H         1 <0>         0.3368
     26 H9         -2.4003   -4.2689   -1.5255 H         1 <0>         0.1104
     27 H10        -2.1606   -4.5098    0.2217 H         1 <0>         0.0678
     28 H11        -4.6053   -4.3085    0.5847 H         1 <0>         0.1336
     29 H12        -4.8449   -4.0677   -1.1625 H         1 <0>         0.1474
     30 H13        -5.1866   -6.3391   -0.5221 H         1 <0>         0.4488
     31 H14        -3.8837   -6.2199   -1.5237 H         1 <0>         0.4411
     32 H15        -3.0073   -0.5785    1.0444 H         1 <0>         0.4341
     33 H16        -1.5428   -0.6633    1.7946 H         1 <0>         0.4339
     34 H17         1.9572    1.6586    0.7178 H         1 <0>         0.0848
     35 H18         1.9262    1.7587   -1.0591 H         1 <0>         0.0902
     36 H19         0.5508    3.9948   -0.0175 H         1 <0>         0.4340
     37 H20         3.7538    2.5960   -0.0591 H         1 <0>         0.4165
     38 H21         4.5618    4.0643   -0.1769 H         1 <0>         0.4318
     39 H22        -3.6619   -6.4429    0.0937 H         1 <0>         0.4377
     40 H23        -2.0754    0.7728    1.1873 H         1 <0>         0.4431
@<TRIPOS>BOND
     1    1    2 1
     2    1   11 1
     3    1   19 1
     4    1   20 1
     5    2    3 1
     6    2   21 1
     7    2   22 1
     8    3    4 1
     9    3    5 1
    10    3   10 1
    11    5    6 1
    12    5   23 1
    13    5   24 1
    14    6    7 1
    15    6   25 1
    16    7    8 1
    17    7   26 1
    18    7   27 1
    19    8    9 1
    20    8   28 1
    21    8   29 1
    22    9   30 1
    23    9   31 1
    24    9   39 1
    25   10   32 1
    26   10   33 1
    27   10   40 1
    28   11   12 1
    29   11   34 1
    30   11   35 1
    31   12   13 1
    32   12   36 1
    33   13   14 1
    34   13   15 2
    35   14   37 1
    36   14   38 1
    37   15   16 1
    38   16   17 2
    39   16   18 1
@<TRIPOS>MOLECULE
ZINC24773728
   39    38     0     0     0
SMALL
USER_CHARGES

@<TRIPOS>ATOM
      1 C1         -0.0187    1.5258    0.0104 C.3       1 <0>        -0.1086
      2 C2          0.0021   -0.0041    0.0020 C.3       1 <0>        -0.1468
      3 C3         -1.4333   -0.5336    0.0129 C.3       1 <0>         0.0357
      4 H1         -1.9862   -0.1019   -0.8214 H         1 <0>         0.1556
      5 C4         -1.4157   -2.0577   -0.1212 C.3       1 <0>         0.0340
      6 N1         -2.7838   -2.5766    0.0092 N.3       1 <0>        -0.6881
      7 C5         -2.8057   -4.0402   -0.1146 C.3       1 <0>         0.0276
      8 C6         -4.2440   -4.5424    0.0262 C.3       1 <0>        -0.0103
      9 N2         -4.2660   -6.0060   -0.0976 N.4       1 <0>        -0.6355
     10 N3         -2.0833   -0.1607    1.2764 N.4       1 <0>        -0.6408
     11 C7          1.4167    2.0553   -0.0004 C.3       1 <0>         0.0584
     12 N4          1.3968    3.5202    0.0076 N.2       1 <0>        -0.6320
     13 C8          2.5556    4.2104    0.0003 C.2       1 <0>         0.5601
     14 N5          3.7327    3.5520   -0.0145 N.pl3     1 <0>        -0.8521
     15 N6          2.5374    5.5571    0.0077 N.2       1 <0>        -0.4293
     16 N7          1.4116    6.1868    0.0218 N.pl3     1 <0>         0.2675
     17 O1          0.2801    5.5129    0.0290 O.2       1 <0>        -0.3860
     18 O2          1.3938    7.5037    0.0290 O.3       1 <0>        -0.4138
     19 H2         -0.5459    1.8868   -0.8726 H         1 <0>         0.0816
     20 H3         -0.5289    1.8773    0.9072 H         1 <0>         0.0594
     21 H4          0.5123   -0.3556   -0.8948 H         1 <0>         0.1122
     22 H5          0.5293   -0.3651    0.8851 H         1 <0>         0.0863
     23 H6         -1.0145   -2.3319   -1.0969 H         1 <0>         0.1280
     24 H7         -0.7891   -2.4841    0.6622 H         1 <0>         0.0688
     25 H8         -3.2013   -2.2809    0.8789 H         1 <0>         0.3365
     26 H9         -2.4142   -4.3282   -1.0902 H         1 <0>         0.1084
     27 H10        -2.1888   -4.4804    0.6688 H         1 <0>         0.0652
     28 H11        -4.6356   -4.2544    1.0018 H         1 <0>         0.1334
     29 H12        -4.8609   -4.1022   -0.7572 H         1 <0>         0.1473
     30 H13        -3.9035   -6.2726   -1.0007 H         1 <0>         0.4402
     31 H14        -3.6949   -6.4135    0.6277 H         1 <0>         0.4368
     32 H15        -3.0299   -0.5100    1.2835 H         1 <0>         0.4262
     33 H16        -1.5715   -0.5604    2.0487 H         1 <0>         0.4298
     34 H17         1.9439    1.6943    0.8826 H         1 <0>         0.0234
     35 H18         1.9269    1.7038   -0.8972 H         1 <0>         0.0281
     36 H19         3.7459    2.5821   -0.0198 H         1 <0>         0.3977
     37 H20         4.5661    4.0484   -0.0198 H         1 <0>         0.3991
     38 H21        -2.0949    0.8443    1.3648 H         1 <0>         0.4497
     39 H22        -5.2145   -6.3372   -0.0047 H         1 <0>         0.4465
@<TRIPOS>BOND
     1    1    2 1
     2    1   11 1
     3    1   19 1
     4    1   20 1
     5    2    3 1
     6    2   21 1
     7    2   22 1
     8    3    4 1
     9    3    5 1
    10    3   10 1
    11    5    6 1
    12    5   23 1
    13    5   24 1
    14    6    7 1
    15    6   25 1
    16    7    8 1
    17    7   26 1
    18    7   27 1
    19    8    9 1
    20    8   28 1
    21    8   29 1
    22    9   30 1
    23    9   31 1
    24    9   39 1
    25   10   32 1
    26   10   33 1
    27   10   38 1
    28   11   12 1
    29   11   34 1
    30   11   35 1
    31   12   13 1
    32   13   14 1
    33   13   15 2
    34   14   36 1
    35   14   37 1
    36   15   16 1
    37   16   17 2
    38   16   18 1
@<TRIPOS>MOLECULE
ZINC13454194
   17    18     0     0     0
SMALL
USER_CHARGES

@<TRIPOS>ATOM
      1 C1         -0.0168    1.3850    0.0097 C.ar      1 <0>        -0.1666
      2 C2         -1.2006    2.0644    0.0189 C.ar      1 <0>         0.0241
      3 C3         -2.4059    1.3541    0.0208 C.ar      1 <0>        -0.1862
      4 C4         -3.8125    1.7428    0.0295 C.2       1 <0>         0.0945
      5 N1         -4.5264    0.6535    0.0270 N.2       1 <0>        -0.2351
      6 H1         -3.9888   -1.3916    0.0128 H         1 <0>         0.4549
      7 N2         -3.6911   -0.4684    0.0170 N.pl3     1 <0>        -0.4844
      8 C5         -2.3847   -0.0542    0.0130 C.ar      1 <0>         0.1746
      9 C6         -1.1617   -0.7198    0.0037 C.ar      1 <0>        -0.0766
     10 C7          0.0021   -0.0041    0.0020 C.ar      1 <0>         0.0103
     11 N3         -1.1225   -2.1994   -0.0048 N.pl3     1 <0>         0.0435
     12 O1         -0.0599   -2.7759   -0.0129 O.2       1 <0>        -0.1481
     13 O2         -2.1532   -2.8314   -0.0035 O.3       1 <0>        -0.1865
     14 H2          0.9141    1.9326    0.0037 H         1 <0>         0.1549
     15 H3         -1.2069    3.1444    0.0252 H         1 <0>         0.1523
     16 H4         -4.1935    2.7534    0.0373 H         1 <0>         0.2117
     17 H5          0.9483   -0.5246   -0.0098 H         1 <0>         0.1626
@<TRIPOS>BOND
     1    1   10 ar
     2    1   14 1
     3    1    2 ar
     4    2   15 1
     5    2    3 ar
     6    3    8 ar
     7    3    4 1
     8    4    5 2
     9    4   16 1
    10    5    7 1
    11    6    7 1
    12    7    8 1
    13    8    9 ar
    14    9   11 1
    15    9   10 ar
    16   10   17 1
    17   11   12 2
    18   11   13 1
@<TRIPOS>MOLECULE
ZINC13476776
   22    22     0     0     0
SMALL
USER_CHARGES

@<TRIPOS>ATOM
      1 C1         -0.0187    1.5258    0.0104 C.3       1 <0>        -0.1518
      2 C2          0.0021   -0.0041    0.0020 C.3       1 <0>        -0.1172
      3 C3          0.7074   -0.4901   -1.2379 C.2       1 <0>         0.0542
      4 C4          1.9938   -0.7840   -1.1577 C.2       1 <0>        -0.2447
      5 C5          2.7260   -1.2506   -2.3564 C.cat     1 <0>         0.5884
      6 N1          4.0192   -1.4196   -2.3465 N.pl3     1 <0>        -0.7179
      7 N2          1.9645   -1.5005   -3.4951 N.pl3     1 <0>        -0.7175
      8 C6          0.8362   -0.5808   -3.7298 C.3       1 <0>         0.1112
      9 C7         -0.0838   -0.6243   -2.5062 C.3       1 <0>        -0.1436
     10 H1          1.0039    1.9031    0.0027 H         1 <0>         0.0621
     11 H2         -0.5459    1.8868   -0.8726 H         1 <0>         0.0639
     12 H3         -0.5289    1.8773    0.9072 H         1 <0>         0.0777
     13 H4          0.5293   -0.3651    0.8851 H         1 <0>         0.0918
     14 H5         -1.0205   -0.3814    0.0098 H         1 <0>         0.0970
     15 H6          2.5118   -0.6830   -0.2155 H         1 <0>         0.1688
     16 H7          4.5259   -1.2384   -1.5394 H         1 <0>         0.4484
     17 H8          2.1642   -2.2344   -4.0971 H         1 <0>         0.4342
     18 H9          1.2129    0.4319   -3.8735 H         1 <0>         0.0958
     19 H10         0.2830   -0.8979   -4.6139 H         1 <0>         0.1236
     20 H11        -0.6236   -1.5712   -2.4931 H         1 <0>         0.1175
     21 H12        -0.8005    0.1946   -2.5695 H         1 <0>         0.1238
     22 H13         4.4744   -1.7264   -3.1462 H         1 <0>         0.4342
@<TRIPOS>BOND
     1    1    2 1
     2    1   10 1
     3    1   11 1
     4    1   12 1
     5    2    3 1
     6    2   13 1
     7    2   14 1
     8    3    9 1
     9    3    4 2
    10    4    5 1
    11    4   15 1
    12    5    6 2
    13    5    7 1
    14    6   16 1
    15    6   22 1
    16    7    8 1
    17    7   17 1
    18    8    9 1
    19    8   18 1
    20    8   19 1
    21    9   20 1
    22    9   21 1
@<TRIPOS>MOLECULE
ZINC13776735
   21    21     0     0     0
SMALL
USER_CHARGES
(6R)-6-methyl-3,4,5,6-tetrahydropyridin-2-amine
@<TRIPOS>ATOM
      1 C1         -0.7415    2.0137    1.2675 C.3       1 <0>        -0.1745
      2 C2         -0.0187    1.5255    0.0104 C.3       1 <0>         0.1164
      3 H1         -0.5018    1.9033   -0.9028 H         1 <0>         0.1134
      4 C3          0.0021   -0.0041    0.0020 C.3       1 <0>        -0.1490
      5 C4          0.9404   -0.4703   -1.1191 C.3       1 <0>        -0.1334
      6 C5          2.3661   -0.0458   -0.7561 C.3       1 <0>        -0.1210
      7 C6          2.3784    1.3942   -0.3323 C.cat     1 <0>         0.5357
      8 N1          1.3386    2.0545    0.0003 N.pl3     1 <0>        -0.6257
      9 N2          3.5852    2.0418   -0.3004 N.pl3     1 <0>        -0.8361
     10 H2         -1.7671    1.6161    1.2785 H         1 <0>         0.0987
     11 H3         -0.7745    3.1132    1.2678 H         1 <0>         0.0755
     12 H4         -0.2026    1.6628    2.1599 H         1 <0>         0.0742
     13 H5          0.3652   -0.3712    0.9733 H         1 <0>         0.0882
     14 H6         -1.0148   -0.3837   -0.1765 H         1 <0>         0.1114
     15 H7          0.8839   -1.5648   -1.2131 H         1 <0>         0.1075
     16 H8          0.6372   -0.0047   -2.0684 H         1 <0>         0.0861
     17 H9          2.7353   -0.6704    0.0707 H         1 <0>         0.1337
     18 H10         3.0203   -0.1719   -1.6314 H         1 <0>         0.1300
     19 H11         3.6350    3.0974    0.0049 H         1 <0>         0.4483
     20 H12         4.5044    1.5062   -0.5801 H         1 <0>         0.4695
     21 H13         1.4304    3.1062    0.3093 H         1 <0>         0.4512
@<TRIPOS>BOND
     1    1    2 1
     2    1   10 1
     3    1   11 1
     4    1   12 1
     5    2    3 1
     6    2    8 1
     7    2    4 1
     8    4    5 1
     9    4   13 1
    10    4   14 1
    11    5    6 1
    12    5   15 1
    13    5   16 1
    14    6    7 1
    15    6   17 1
    16    6   18 1
    17    7    8 2
    18    7    9 1
    19    8   21 1
    20    9   19 1
    21    9   20 1
@<TRIPOS>MOLECULE
ZINC13776737
   21    21     0     0     0
SMALL
USER_CHARGES
(6S)-6-methyl-3,4,5,6-tetrahydropyridin-2-amine
@<TRIPOS>ATOM
      1 C1         -4.1893    1.7285   -0.3600 C.3       1 <0>        -0.1745
      2 C2         -2.7641    2.1688   -0.0196 C.3       1 <0>         0.1164
      3 H1         -2.7294    3.2302    0.2672 H         1 <0>         0.1134
      4 C3         -2.2244    1.2978    1.1162 C.3       1 <0>        -0.1488
      5 C4         -0.7258    1.5778    1.2706 C.3       1 <0>        -0.1336
      6 C5         -0.0127    1.0858    0.0080 C.3       1 <0>        -0.1210
      7 C6         -0.7352    1.5813   -1.2109 C.cat     1 <0>         0.5357
      8 N1         -1.9256    2.0405   -1.2040 N.pl3     1 <0>        -0.6257
      9 N2         -0.0732    1.5373   -2.4095 N.pl3     1 <0>        -0.8361
     10 H2         -4.8255    1.8240    0.5322 H         1 <0>         0.0987
     11 H3         -4.1795    0.6801   -0.6928 H         1 <0>         0.0742
     12 H4         -4.5874    2.3648   -1.1641 H         1 <0>         0.0755
     13 H5         -2.7514    1.5446    2.0497 H         1 <0>         0.1115
     14 H6         -2.3859    0.2371    0.8734 H         1 <0>         0.0882
     15 H7         -0.5659    2.6587    1.3974 H         1 <0>         0.0860
     16 H8         -0.3421    1.0445    2.1528 H         1 <0>         0.1074
     17 H9          1.0195    1.4659   -0.0018 H         1 <0>         0.1301
     18 H10         0.0015   -0.0141   -0.0001 H         1 <0>         0.1337
     19 H11        -0.5693    1.8915   -3.3252 H         1 <0>         0.4483
     20 H12         0.9545    1.1478   -2.4562 H         1 <0>         0.4695
     21 H13        -2.3912    2.3758   -2.1425 H         1 <0>         0.4512
@<TRIPOS>BOND
     1    1    2 1
     2    1   10 1
     3    1   11 1
     4    1   12 1
     5    2    3 1
     6    2    8 1
     7    2    4 1
     8    4    5 1
     9    4   13 1
    10    4   14 1
    11    5    6 1
    12    5   15 1
    13    5   16 1
    14    6    7 1
    15    6   17 1
    16    6   18 1
    17    7    8 2
    18    7    9 1
    19    8   21 1
    20    9   19 1
    21    9   20 1
@<TRIPOS>MOLECULE
ZINC13776730
   21    21     0     0     0
SMALL
USER_CHARGES
(3R)-3-methyl-3,4,5,6-tetrahydropyridin-2-amine
@<TRIPOS>ATOM
      1 C1         -0.2494    0.8801   -2.4706 C.3       1 <0>        -0.1580
      2 C2         -0.7655    1.5991   -1.2226 C.3       1 <0>        -0.0841
      3 H1         -0.6197    2.6849   -1.3212 H         1 <0>         0.1358
      4 C3         -0.0127    1.0858    0.0080 C.3       1 <0>        -0.1310
      5 C4         -0.7434    1.5869    1.2609 C.3       1 <0>        -0.1528
      6 C5         -2.1195    0.9193    1.3168 C.3       1 <0>         0.0816
      7 N1         -2.8028    1.0486    0.0367 N.pl3     1 <0>        -0.6257
      8 C6         -2.2353    1.3353   -1.0694 C.cat     1 <0>         0.5367
      9 N2         -3.0189    1.4077   -2.1909 N.pl3     1 <0>        -0.8331
     10 H2          0.8277    1.0719   -2.5851 H         1 <0>         0.0961
     11 H3         -0.7845    1.2532   -3.3563 H         1 <0>         0.0700
     12 H4         -0.4203   -0.2016   -2.3676 H         1 <0>         0.0745
     13 H5          0.0045   -0.0140   -0.0050 H         1 <0>         0.0869
     14 H6          1.0184    1.4688   -0.0067 H         1 <0>         0.1067
     15 H7         -0.1604    1.3229    2.1556 H         1 <0>         0.1128
     16 H8         -0.8571    2.6797    1.2066 H         1 <0>         0.0871
     17 H9         -1.9996   -0.1487    1.5511 H         1 <0>         0.1088
     18 H10        -2.7287    1.3996    2.0967 H         1 <0>         0.1174
     19 H11        -4.1005    1.2208   -2.1191 H         1 <0>         0.4484
     20 H12        -2.5664    1.6527   -3.1631 H         1 <0>         0.4676
     21 H13        -3.8891    0.8785    0.0697 H         1 <0>         0.4543
@<TRIPOS>BOND
     1    1    2 1
     2    1   10 1
     3    1   11 1
     4    1   12 1
     5    2    3 1
     6    2    8 1
     7    2    4 1
     8    4    5 1
     9    4   13 1
    10    4   14 1
    11    5    6 1
    12    5   15 1
    13    5   16 1
    14    6    7 1
    15    6   17 1
    16    6   18 1
    17    7    8 2
    18    7   21 1
    19    8    9 1
    20    9   19 1
    21    9   20 1
@<TRIPOS>MOLECULE
ZINC13776732
   21    21     0     0     0
SMALL
USER_CHARGES
(3S)-3-methyl-3,4,5,6-tetrahydropyridin-2-amine
@<TRIPOS>ATOM
      1 C1          2.8385   -0.9436   -1.9754 C.3       1 <0>        -0.1580
      2 C2          2.3337   -0.1682   -0.7569 C.3       1 <0>        -0.0842
      3 H1          3.0356   -0.2793    0.0827 H         1 <0>         0.1358
      4 C3          2.1909    1.3121   -1.1218 C.3       1 <0>        -0.1309
      5 C4          1.4076    2.0081   -0.0006 C.3       1 <0>        -0.1530
      6 C5         -0.0177    1.4526    0.0100 C.3       1 <0>         0.0818
      7 N1          0.0021   -0.0041    0.0020 N.pl3     1 <0>        -0.6257
      8 C6          1.0044   -0.7200   -0.3305 C.cat     1 <0>         0.5367
      9 N2          0.8578   -2.0817   -0.2965 N.pl3     1 <0>        -0.8330
     10 H2          3.8127   -0.5402   -2.2889 H         1 <0>         0.0961
     11 H3          2.1170   -0.8417   -2.7995 H         1 <0>         0.0745
     12 H4          2.9487   -2.0063   -1.7138 H         1 <0>         0.0700
     13 H5          3.1892    1.7630   -1.2220 H         1 <0>         0.1067
     14 H6          1.6496    1.4042   -2.0750 H         1 <0>         0.0870
     15 H7          1.8957    1.8101    0.9651 H         1 <0>         0.0871
     16 H8          1.3874    3.0922   -0.1858 H         1 <0>         0.1127
     17 H9         -0.5390    1.7978    0.9150 H         1 <0>         0.1174
     18 H10        -0.5562    1.8074   -0.8811 H         1 <0>         0.1088
     19 H11        -0.1013   -2.5241    0.0107 H         1 <0>         0.4484
     20 H12         1.6992   -2.7326   -0.5764 H         1 <0>         0.4676
     21 H13        -0.9377   -0.4840    0.3126 H         1 <0>         0.4543
@<TRIPOS>BOND
     1    1    2 1
     2    1   10 1
     3    1   11 1
     4    1   12 1
     5    2    3 1
     6    2    8 1
     7    2    4 1
     8    4    5 1
     9    4   13 1
    10    4   14 1
    11    5    6 1
    12    5   15 1
    13    5   16 1
    14    6    7 1
    15    6   17 1
    16    6   18 1
    17    7    8 2
    18    7   21 1
    19    8    9 1
    20    9   19 1
    21    9   20 1
@<TRIPOS>MOLECULE
ZINC02141055
   18    18     0     0     0
SMALL
USER_CHARGES

@<TRIPOS>ATOM
      1 C1         -0.0187    1.5287    0.0104 C.3       1 <0>        -0.1250
      2 C2          1.4193    2.0538   -0.0005 C.3       1 <0>        -0.1549
      3 C3          2.1181    1.6037   -1.2870 C.3       1 <0>         0.1091
      4 N1          2.0558    0.1366   -1.3716 N.pl3     1 <0>        -0.7233
      5 C4          0.8280   -0.4643   -1.1803 C.cat     1 <0>         0.5604
      6 N2          0.3997   -1.3856   -1.9804 N.pl3     1 <0>        -0.7013
      7 C5          0.0021   -0.0041    0.0020 C.3       1 <0>        -0.1259
      8 H1         -0.5279    1.8809    0.9076 H         1 <0>         0.1050
      9 H2         -0.5449    1.8904   -0.8730 H         1 <0>         0.0836
     10 H3          1.4087    3.1428    0.0453 H         1 <0>         0.1043
     11 H4          1.9566    1.6593    0.8619 H         1 <0>         0.0868
     12 H5          1.6140    2.0411   -2.1488 H         1 <0>         0.0910
     13 H6          3.1596    1.9248   -1.2686 H         1 <0>         0.1146
     14 H7          2.8495   -0.3900   -1.5549 H         1 <0>         0.4325
     15 H8          0.9443   -1.6667   -2.7323 H         1 <0>         0.4339
     16 H9          0.4487   -0.3702    0.9265 H         1 <0>         0.1408
     17 H10        -1.0152   -0.3844   -0.0906 H         1 <0>         0.1193
     18 H11        -0.4663   -1.7955   -1.8287 H         1 <0>         0.4491
@<TRIPOS>BOND
     1    1    7 1
     2    1    2 1
     3    1    8 1
     4    1    9 1
     5    2    3 1
     6    2   10 1
     7    2   11 1
     8    3    4 1
     9    3   12 1
    10    3   13 1
    11    4    5 1
    12    4   14 1
    13    5    6 2
    14    5    7 1
    15    6   15 1
    16    6   18 1
    17    7   16 1
    18    7   17 1
@<TRIPOS>MOLECULE
ZINC06266252
   24    24     0     0     0
SMALL
USER_CHARGES
4,6-dimethyl-3,4,5,6-tetrahydropyridin-2-amine
@<TRIPOS>ATOM
      1 C1         -2.9264    1.6016    2.4589 C.3       1 <0>        -0.1541
      2 C2         -2.2143    1.2579    1.1491 C.3       1 <0>        -0.0973
      3 H1         -2.3496    0.2002    0.9234 H         1 <0>         0.0952
      4 C3         -0.7186    1.5741    1.2742 C.3       1 <0>        -0.1379
      5 C4         -0.0127    1.0858    0.0080 C.3       1 <0>         0.1192
      6 H2          0.0021   -0.0041    0.0020 H         1 <0>         0.1155
      7 C5         -1.9057    2.0025   -1.1990 C.cat     1 <0>         0.5391
      8 C6         -2.7879    2.1066    0.0109 C.3       1 <0>        -0.1098
      9 N1         -2.4207    2.4045   -2.4032 N.pl3     1 <0>        -0.8042
     10 C7          1.4246    1.6102   -0.0029 C.3       1 <0>        -0.1775
     11 H3         -3.9922    1.3968    2.3576 H         1 <0>         0.0701
     12 H4         -2.5151    0.9954    3.2660 H         1 <0>         0.0748
     13 H5         -2.7793    2.6574    2.6863 H         1 <0>         0.0668
     14 H6         -0.3077    1.0618    2.1442 H         1 <0>         0.1165
     15 H7         -0.5783    2.6498    1.3810 H         1 <0>         0.0898
     16 H8         -2.8449    3.1477    0.3289 H         1 <0>         0.1406
     17 H9         -3.7870    1.7488   -0.2376 H         1 <0>         0.1358
     18 H10        -1.8778    2.3503   -3.2053 H         1 <0>         0.4242
     19 H11        -3.3282    2.7433   -2.4538 H         1 <0>         0.4384
     20 H12         1.4137    2.7002    0.0031 H         1 <0>         0.0733
     21 H13         1.9505    1.2473    0.8802 H         1 <0>         0.0968
     22 H14         1.9335    1.2568   -0.8997 H         1 <0>         0.0739
     23 N2         -0.6584    1.5632   -1.2716 N.pl3     1 <0>        -0.6386
     24 H15        -0.1498    1.5477   -2.1634 H         1 <0>         0.4494
@<TRIPOS>BOND
     1    1    2 1
     2    1   11 1
     3    1   12 1
     4    1   13 1
     5    2    3 1
     6    2    8 1
     7    2    4 1
     8    4    5 1
     9    4   14 1
    10    4   15 1
    11    5    6 1
    12    5   10 1
    13    5   23 1
    14    7    8 1
    15    7    9 1
    16    7   23 2
    17    8   16 1
    18    8   17 1
    19    9   18 1
    20    9   19 1
    21   10   20 1
    22   10   21 1
    23   10   22 1
    24   23   24 1
@<TRIPOS>MOLECULE
ZINC06268312
   24    24     0     0     0
SMALL
USER_CHARGES
4,6-dimethyl-3,4,5,6-tetrahydropyridin-2-amine
@<TRIPOS>ATOM
      1 C1          0.8717   -1.9931   -1.2499 C.3       1 <0>        -0.1539
      2 C2          0.9404   -0.4703   -1.1191 C.3       1 <0>        -0.0989
      3 H1          0.6471   -0.0066   -2.0609 H         1 <0>         0.0966
      4 C3          0.0021   -0.0041    0.0020 C.3       1 <0>        -0.1376
      5 C4         -0.0187    1.5255    0.0104 C.3       1 <0>         0.1188
      6 H2         -0.5336    1.8733    0.9060 H         1 <0>         0.1178
      7 C5          2.3784    1.3942   -0.3323 C.cat     1 <0>         0.5397
      8 C6          2.3661   -0.0458   -0.7561 C.3       1 <0>        -0.1098
      9 N1          3.5852    2.0418   -0.3004 N.pl3     1 <0>        -0.8040
     10 C7         -0.7653    2.0271   -1.2272 C.3       1 <0>        -0.1775
     11 H3         -0.1496   -2.2918   -1.4863 H         1 <0>         0.0747
     12 H4          1.5395   -2.3198   -2.0471 H         1 <0>         0.0698
     13 H5          1.1762   -2.4527   -0.3097 H         1 <0>         0.0667
     14 H6          0.3659   -0.3714    0.9616 H         1 <0>         0.0894
     15 H7         -1.0034   -0.3837   -0.1794 H         1 <0>         0.1167
     16 H8          2.7318   -0.6669    0.0615 H         1 <0>         0.1409
     17 H9          3.0138   -0.1733   -1.6235 H         1 <0>         0.1357
     18 H10         4.3958    1.5695   -0.5472 H         1 <0>         0.4384
     19 H11         3.6292    2.9727   -0.0312 H         1 <0>         0.4243
     20 H12        -1.7871    1.6480   -1.2136 H         1 <0>         0.0961
     21 H13        -0.7821    3.1170   -1.2246 H         1 <0>         0.0727
     22 H14        -0.2586    1.6737   -2.1253 H         1 <0>         0.0717
     23 N2          1.3552    2.1537    0.0284 N.pl3     1 <0>        -0.6387
     24 H15         1.4904    3.1319    0.3096 H         1 <0>         0.4503
@<TRIPOS>BOND
     1    1    2 1
     2    1   11 1
     3    1   12 1
     4    1   13 1
     5    2    3 1
     6    2    8 1
     7    2    4 1
     8    4    5 1
     9    4   14 1
    10    4   15 1
    11    5    6 1
    12    5   10 1
    13    5   23 1
    14    7    8 1
    15    7    9 1
    16    7   23 2
    17    8   16 1
    18    8   17 1
    19    9   18 1
    20    9   19 1
    21   10   20 1
    22   10   21 1
    23   10   22 1
    24   23   24 1
@<TRIPOS>MOLECULE
ZINC06268382
   24    24     0     0     0
SMALL
USER_CHARGES
4,6-dimethyl-3,4,5,6-tetrahydropyridin-2-amine
@<TRIPOS>ATOM
      1 C1         -2.8076   -2.6233    0.1051 C.3       1 <0>        -0.1541
      2 C2         -1.3990   -2.0427    0.2457 C.3       1 <0>        -0.0973
      3 H1         -0.7323   -2.5166   -0.4747 H         1 <0>         0.0952
      4 C3         -1.4350   -0.5284    0.0004 C.3       1 <0>        -0.1379
      5 C4          0.0021   -0.0041    0.0020 C.3       1 <0>         0.1191
      6 H2          0.5129   -0.3519   -0.8959 H         1 <0>         0.1155
      7 C5          0.3557   -1.4658    1.9044 C.cat     1 <0>         0.5391
      8 C6         -0.8803   -2.2835    1.6661 C.3       1 <0>        -0.1098
      9 N1          1.1472   -1.7983    2.9720 N.pl3     1 <0>        -0.8041
     10 C7         -0.0187    1.5258    0.0104 C.3       1 <0>        -0.1775
     11 H3         -3.4732   -2.1389    0.8195 H         1 <0>         0.0668
     12 H4         -3.1728   -2.4496   -0.9072 H         1 <0>         0.0748
     13 H5         -2.7803   -3.6948    0.3026 H         1 <0>         0.0701
     14 H6         -2.0043   -0.0411    0.7920 H         1 <0>         0.0898
     15 H7         -1.8989   -0.3245   -0.9647 H         1 <0>         0.1166
     16 H8         -0.6448   -3.3404    1.7912 H         1 <0>         0.1358
     17 H9         -1.6479   -1.9974    2.3852 H         1 <0>         0.1405
     18 H10         1.9535   -1.2909    3.1546 H         1 <0>         0.4242
     19 H11         0.9014   -2.5412    3.5452 H         1 <0>         0.4384
     20 H12         1.0039    1.9031    0.0027 H         1 <0>         0.0739
     21 H13        -0.5459    1.8868   -0.8726 H         1 <0>         0.0967
     22 H14        -0.5289    1.8773    0.9072 H         1 <0>         0.0733
     23 N2          0.8056   -0.4336    1.2071 N.pl3     1 <0>        -0.6386
     24 H15         1.6674    0.0559    1.4752 H         1 <0>         0.4494
@<TRIPOS>BOND
     1    1    2 1
     2    1   11 1
     3    1   12 1
     4    1   13 1
     5    2    3 1
     6    2    8 1
     7    2    4 1
     8    4    5 1
     9    4   14 1
    10    4   15 1
    11    5    6 1
    12    5   10 1
    13    5   23 1
    14    7    8 1
    15    7    9 1
    16    7   23 2
    17    8   16 1
    18    8   17 1
    19    9   18 1
    20    9   19 1
    21   10   20 1
    22   10   21 1
    23   10   22 1
    24   23   24 1
@<TRIPOS>MOLECULE
ZINC25968090
   24    24     0     0     0
SMALL
USER_CHARGES
(4R,6R)-4,6-dimethyl-3,4,5,6-tetrahydropyridin-2-amine
@<TRIPOS>ATOM
      1 C1         -0.7650    1.5986   -1.2216 C.3       1 <0>        -0.1559
      2 C2         -0.0127    1.0858    0.0080 C.3       1 <0>        -0.0993
      3 H1         -0.0077   -0.0139   -0.0173 H         1 <0>         0.0949
      4 C3         -0.7017    1.5873    1.2841 C.3       1 <0>        -0.1448
      5 C4         -0.0166    0.9409    2.4895 C.3       1 <0>         0.1187
      6 H2         -0.3194    1.4500    3.4164 H         1 <0>         0.1220
      7 N1          1.4293    1.0926    2.3970 N.pl3     1 <0>        -0.6251
      8 C5          2.0676    1.3805    1.3304 C.cat     1 <0>         0.5371
      9 C6          1.4215    1.6221   -0.0028 C.3       1 <0>        -0.1196
     10 N2          3.4321    1.4758    1.4071 N.pl3     1 <0>        -0.8358
     11 C7         -0.3666   -0.5480    2.5298 C.3       1 <0>        -0.1770
     12 H3         -1.7944    1.2110   -1.2097 H         1 <0>         0.0739
     13 H4         -0.2544    1.2552   -2.1334 H         1 <0>         0.0694
     14 H5         -0.7870    2.6983   -1.2057 H         1 <0>         0.0656
     15 H6         -0.6122    2.6821    1.3431 H         1 <0>         0.0878
     16 H7         -1.7652    1.3071    1.2610 H         1 <0>         0.1118
     17 H8          1.9995    1.1075   -0.7845 H         1 <0>         0.1297
     18 H9          1.4074    2.7026   -0.2086 H         1 <0>         0.1345
     19 H10         4.0176    1.7222    0.5090 H         1 <0>         0.4693
     20 H11         3.9422    1.3060    2.3667 H         1 <0>         0.4485
     21 H12         0.1243   -1.0167    3.3955 H         1 <0>         0.0735
     22 H13        -0.0190   -1.0315    1.6049 H         1 <0>         0.0719
     23 H14        -1.4567   -0.6661    2.6180 H         1 <0>         0.0959
     24 H15         1.9747    0.9392    3.3399 H         1 <0>         0.4530
@<TRIPOS>BOND
     1    1    2 1
     2    1   12 1
     3    1   13 1
     4    1   14 1
     5    2    3 1
     6    2    9 1
     7    2    4 1
     8    4    5 1
     9    4   15 1
    10    4   16 1
    11    5    6 1
    12    5    7 1
    13    5   11 1
    14    7    8 2
    15    7   24 1
    16    8    9 1
    17    8   10 1
    18    9   17 1
    19    9   18 1
    20   10   19 1
    21   10   20 1
    22   11   21 1
    23   11   22 1
    24   11   23 1
@<TRIPOS>MOLECULE
ZINC22779407
   41    42     0     0     0
SMALL
USER_CHARGES
N-[(5-chloro-2-nitro-phenyl)methyl]-N,1-dimethyl-piperidin-4-amine
@<TRIPOS>ATOM
      1 C1         -7.7433    6.8744    2.6007 C.3       1 <0>        -0.0458
      2 N1         -6.4207    6.2519    2.4550 N.4       1 <0>        -0.4003
      3 C2         -6.4501    4.8475    2.8829 C.3       1 <0>        -0.0025
      4 C3         -5.0312    4.2748    2.8557 C.3       1 <0>        -0.1412
      5 C4         -4.4693    4.3834    1.4355 C.3       1 <0>         0.0767
      6 C5         -4.4947    5.8499    0.9957 C.3       1 <0>        -0.1890
      7 C6         -5.9292    6.3769    1.0769 C.3       1 <0>         0.0023
      8 N2         -3.0862    3.8888    1.4155 N.3       1 <0>        -0.5151
      9 C7         -2.2286    4.6879    2.3009 C.3       1 <0>        -0.0013
     10 C8         -2.5545    3.8674    0.0463 C.3       1 <0>         0.0742
     11 C9         -1.2388    3.1326    0.0298 C.ar      1 <0>        -0.0097
     12 C10        -0.0518    3.8410    0.0223 C.ar      1 <0>        -0.1106
     13 C11         1.1558    3.1665    0.0076 C.ar      1 <0>         0.0112
     14 C12         1.1747    1.7828    0.0004 C.ar      1 <0>        -0.1043
     15 C13        -0.0126    1.0758    0.0080 C.ar      1 <0>        -0.0388
     16 C14        -1.2193    1.7507    0.0173 C.ar      1 <0>        -0.0248
     17 N3         -2.4907    0.9929    0.0192 N.pl3     1 <0>         0.0341
     18 O1         -2.4737   -0.2250    0.0125 O.2       1 <0>        -0.1622
     19 O2         -3.5538    1.5871    0.0275 O.3       1 <0>        -0.1405
     20 Cl1         2.6469    4.0553   -0.0025 Cl        1 <0>        -0.0272
     21 H1         -8.0868    6.7665    3.6401 H         1 <0>         0.1246
     22 H2         -8.4574    6.3805    1.9254 H         1 <0>         0.1198
     23 H3         -7.6760    7.9423    2.3457 H         1 <0>         0.1234
     24 H4         -6.8511    4.7840    3.9052 H         1 <0>         0.1339
     25 H5         -7.0914    4.2697    2.2010 H         1 <0>         0.1299
     26 H6         -4.3932    4.8428    3.5487 H         1 <0>         0.0890
     27 H7         -5.0561    3.2187    3.1623 H         1 <0>         0.1224
     28 H8         -5.0464    3.7574    0.7390 H         1 <0>         0.1134
     29 H9         -3.8464    6.4425    1.6579 H         1 <0>         0.0925
     30 H10        -4.1313    5.9286   -0.0396 H         1 <0>         0.1118
     31 H11        -6.5729    5.7919    0.4036 H         1 <0>         0.1288
     32 H12        -5.9484    7.4346    0.7753 H         1 <0>         0.1303
     33 H13        -1.2010    4.2968    2.2669 H         1 <0>         0.0752
     34 H14        -2.6094    4.6290    3.3312 H         1 <0>         0.0782
     35 H15        -2.2332    5.7362    1.9676 H         1 <0>         0.0367
     36 H16        -3.2684    3.3562   -0.6163 H         1 <0>         0.1243
     37 H17        -2.4028    4.8989   -0.3043 H         1 <0>         0.0570
     38 H18        -0.0672    4.9209    0.0275 H         1 <0>         0.1537
     39 H19         2.1172    1.2556   -0.0114 H         1 <0>         0.1622
     40 H20         0.0021   -0.0041    0.0020 H         1 <0>         0.1669
     41 H21        -5.7189    6.7876    3.1111 H         1 <0>         0.4409
@<TRIPOS>BOND
     1    1    2 1
     2    1   21 1
     3    1   22 1
     4    1   23 1
     5    2    7 1
     6    2    3 1
     7    2   41 1
     8    3    4 1
     9    3   24 1
    10    3   25 1
    11    4    5 1
    12    4   26 1
    13    4   27 1
    14    5    6 1
    15    5    8 1
    16    5   28 1
    17    6    7 1
    18    6   29 1
    19    6   30 1
    20    7   31 1
    21    7   32 1
    22    8    9 1
    23    8   10 1
    24    9   33 1
    25    9   34 1
    26    9   35 1
    27   10   11 1
    28   10   36 1
    29   10   37 1
    30   11   16 ar
    31   11   12 ar
    32   12   13 ar
    33   12   38 1
    34   13   14 ar
    35   13   20 1
    36   14   15 ar
    37   14   39 1
    38   15   16 ar
    39   15   40 1
    40   16   17 1
    41   17   18 2
    42   17   19 1
@<TRIPOS>MOLECULE
ZINC22779407
   41    42     0     0     0
SMALL
USER_CHARGES
N-[(5-chloro-2-nitro-phenyl)methyl]-N,1-dimethyl-piperidin-4-amine
@<TRIPOS>ATOM
      1 C1         -7.7433    6.8744    2.6007 C.3       1 <0>         0.0187
      2 N1         -6.4207    6.2519    2.4550 N.3       1 <0>        -0.5447
      3 C2         -6.4501    4.8475    2.8829 C.3       1 <0>         0.0537
      4 C3         -5.0312    4.2748    2.8557 C.3       1 <0>        -0.1374
      5 C4         -4.4693    4.3834    1.4355 C.3       1 <0>         0.0332
      6 C5         -4.4947    5.8499    0.9957 C.3       1 <0>        -0.1381
      7 C6         -5.9292    6.3769    1.0769 C.3       1 <0>         0.0531
      8 N2         -3.0862    3.8888    1.4155 N.4       1 <0>        -0.3919
      9 C7         -2.2286    4.6879    2.3009 C.3       1 <0>        -0.0649
     10 C8         -2.5545    3.8674    0.0463 C.3       1 <0>         0.0250
     11 C9         -1.2388    3.1326    0.0298 C.ar      1 <0>        -0.0739
     12 C10        -0.0518    3.8410    0.0223 C.ar      1 <0>        -0.0864
     13 C11         1.1558    3.1665    0.0076 C.ar      1 <0>         0.0122
     14 C12         1.1747    1.7828    0.0004 C.ar      1 <0>        -0.0798
     15 C13        -0.0126    1.0758    0.0080 C.ar      1 <0>        -0.0272
     16 C14        -1.2193    1.7507    0.0173 C.ar      1 <0>        -0.0338
     17 N3         -2.4907    0.9929    0.0192 N.pl3     1 <0>         0.0242
     18 O1         -2.4737   -0.2250    0.0125 O.2       1 <0>        -0.0865
     19 O2         -3.5538    1.5871    0.0275 O.3       1 <0>        -0.2045
     20 Cl1         2.6469    4.0553   -0.0025 Cl        1 <0>        -0.0030
     21 H1         -8.0868    6.7665    3.6401 H         1 <0>         0.0780
     22 H2         -8.4574    6.3805    1.9254 H         1 <0>         0.0347
     23 H3         -7.6760    7.9423    2.3457 H         1 <0>         0.0780
     24 H4         -6.8511    4.7840    3.9052 H         1 <0>         0.0983
     25 H5         -7.0914    4.2697    2.2010 H         1 <0>         0.0493
     26 H6         -4.3932    4.8428    3.5487 H         1 <0>         0.0967
     27 H7         -5.0561    3.2187    3.1623 H         1 <0>         0.0935
     28 H8         -5.0464    3.7574    0.7390 H         1 <0>         0.1420
     29 H9         -3.8464    6.4425    1.6579 H         1 <0>         0.0973
     30 H10        -4.1313    5.9286   -0.0396 H         1 <0>         0.0904
     31 H11        -6.5729    5.7919    0.4036 H         1 <0>         0.0483
     32 H12        -5.9484    7.4346    0.7753 H         1 <0>         0.0972
     33 H13        -1.2010    4.2968    2.2669 H         1 <0>         0.1169
     34 H14        -2.6094    4.6290    3.3312 H         1 <0>         0.1326
     35 H15        -2.2332    5.7362    1.9676 H         1 <0>         0.1295
     36 H16        -3.2684    3.3562   -0.6163 H         1 <0>         0.1678
     37 H17        -2.4028    4.8989   -0.3043 H         1 <0>         0.1467
     38 H18        -0.0672    4.9209    0.0275 H         1 <0>         0.1684
     39 H19         2.1172    1.2556   -0.0114 H         1 <0>         0.1732
     40 H20         0.0021   -0.0041    0.0020 H         1 <0>         0.1783
     41 H21        -3.0912    2.8553    1.7922 H         1 <0>         0.4351
@<TRIPOS>BOND
     1    1    2 1
     2    1   21 1
     3    1   22 1
     4    1   23 1
     5    2    7 1
     6    2    3 1
     7    3    4 1
     8    3   24 1
     9    3   25 1
    10    4    5 1
    11    4   26 1
    12    4   27 1
    13    5    6 1
    14    5    8 1
    15    5   28 1
    16    6    7 1
    17    6   29 1
    18    6   30 1
    19    7   31 1
    20    7   32 1
    21    8    9 1
    22    8   10 1
    23    8   41 1
    24    9   33 1
    25    9   34 1
    26    9   35 1
    27   10   11 1
    28   10   36 1
    29   10   37 1
    30   11   16 ar
    31   11   12 ar
    32   12   13 ar
    33   12   38 1
    34   13   14 ar
    35   13   20 1
    36   14   15 ar
    37   14   39 1
    38   15   16 ar
    39   15   40 1
    40   16   17 1
    41   17   18 2
    42   17   19 1
@<TRIPOS>MOLECULE
ZINC00402702
   17    17     0     0     0
SMALL
USER_CHARGES

@<TRIPOS>ATOM
      1 C1         -0.0184    1.5028    0.0103 C.3       1 <0>        -0.1211
      2 C2          0.0021   -0.0041    0.0020 C.ar      1 <0>        -0.1535
      3 C3          0.0059   -0.6986   -1.1944 C.ar      1 <0>         0.0292
      4 C4          0.0249   -2.0863   -1.1549 C.ar      1 <0>        -0.1604
      5 C5          0.0393   -2.7279    0.0675 C.ar      1 <0>         0.1394
      6 N1          0.0348   -2.0396    1.1931 N.ar      1 <0>        -0.4976
      7 C6          0.0231   -0.7154    1.1972 C.ar      1 <0>         0.4449
      8 N2          0.0253   -0.0302    2.4066 N.pl3     1 <0>        -0.8217
      9 H1          1.0042    1.8801    0.0026 H         1 <0>         0.0952
     10 H2         -0.5455    1.8639   -0.8728 H         1 <0>         0.0981
     11 H3         -0.5286    1.8543    0.9071 H         1 <0>         0.0774
     12 H4         -0.0059   -0.1732   -2.1379 H         1 <0>         0.1749
     13 H5          0.0281   -2.6581   -2.0711 H         1 <0>         0.1825
     14 H6          0.0541   -3.8072    0.1028 H         1 <0>         0.2082
     15 H7          0.0122    0.9397    2.4146 H         1 <0>         0.4392
     16 H8          0.0399   -0.5219    3.2426 H         1 <0>         0.4218
     17 H9          0.0448   -2.5151    2.0385 H         1 <0>         0.4435
@<TRIPOS>BOND
     1    1    2 1
     2    1    9 1
     3    1   10 1
     4    1   11 1
     5    2    7 ar
     6    2    3 ar
     7    3    4 ar
     8    3   12 1
     9    4    5 ar
    10    4   13 1
    11    5    6 ar
    12    5   14 1
    13    6    7 ar
    14    6   17 1
    15    7    8 1
    16    8   15 1
    17    8   16 1
@<TRIPOS>MOLECULE
ZINC00402702
   16    16     0     0     0
SMALL
USER_CHARGES

@<TRIPOS>ATOM
      1 C1         -0.0184    1.5028    0.0103 C.3       1 <0>        -0.1031
      2 C2          0.0021   -0.0041    0.0020 C.ar      1 <0>        -0.2077
      3 C3          0.0059   -0.6986   -1.1944 C.ar      1 <0>        -0.0363
      4 C4          0.0249   -2.0863   -1.1549 C.ar      1 <0>        -0.2310
      5 C5          0.0393   -2.7279    0.0675 C.ar      1 <0>         0.1427
      6 N1          0.0348   -2.0396    1.1931 N.ar      1 <0>        -0.5450
      7 C6          0.0231   -0.7154    1.1972 C.ar      1 <0>         0.4025
      8 N2          0.0253   -0.0302    2.4066 N.pl3     1 <0>        -0.8525
      9 H1          1.0042    1.8801    0.0026 H         1 <0>         0.0685
     10 H2         -0.5455    1.8639   -0.8728 H         1 <0>         0.0696
     11 H3         -0.5286    1.8543    0.9071 H         1 <0>         0.0612
     12 H4         -0.0059   -0.1732   -2.1379 H         1 <0>         0.1323
     13 H5          0.0281   -2.6581   -2.0711 H         1 <0>         0.1321
     14 H6          0.0541   -3.8072    0.1028 H         1 <0>         0.1556
     15 H7          0.0122    0.9397    2.4146 H         1 <0>         0.4073
     16 H8          0.0399   -0.5219    3.2426 H         1 <0>         0.4037
@<TRIPOS>BOND
     1    1    2 1
     2    1    9 1
     3    1   10 1
     4    1   11 1
     5    2    7 ar
     6    2    3 ar
     7    3    4 ar
     8    3   12 1
     9    4    5 ar
    10    4   13 1
    11    5    6 ar
    12    5   14 1
    13    6    7 ar
    14    7    8 1
    15    8   15 1
    16    8   16 1
@<TRIPOS>MOLECULE
ZINC26144132
   23    23     0     0     0
SMALL
USER_CHARGES

@<TRIPOS>ATOM
      1 C1         -0.0187    1.5258    0.0104 C.3       1 <0>        -0.1576
      2 C2          0.0021   -0.0041    0.0020 C.3       1 <0>        -0.0861
      3 C3          0.7074   -0.4901   -1.2379 C.ar      1 <0>        -0.1622
      4 C4         -0.0019   -0.7216   -2.4028 C.ar      1 <0>         0.0702
      5 C5          0.6886   -1.1689   -3.5212 C.ar      1 <0>        -0.1657
      6 C6          2.0523   -1.3682   -3.4391 C.ar      1 <0>         0.1435
      7 N1          2.7031   -1.1395   -2.3143 N.ar      1 <0>        -0.5033
      8 C7          2.0814   -0.7065   -1.2282 C.ar      1 <0>         0.4523
      9 N2          2.8074   -0.4724   -0.0661 N.pl3     1 <0>        -0.8224
     10 C8         -1.4906   -0.4939   -2.4565 C.3       1 <0>        -0.1447
     11 H1          1.0039    1.9031    0.0027 H         1 <0>         0.0568
     12 H2         -0.5459    1.8868   -0.8726 H         1 <0>         0.0660
     13 H3         -0.5289    1.8773    0.9072 H         1 <0>         0.0781
     14 H4          0.5293   -0.3651    0.8851 H         1 <0>         0.0815
     15 H5         -1.0205   -0.3814    0.0098 H         1 <0>         0.1033
     16 H6          0.1642   -1.3594   -4.4459 H         1 <0>         0.1814
     17 H7          2.5933   -1.7161   -4.3066 H         1 <0>         0.2082
     18 H8          2.3557   -0.1595    0.7332 H         1 <0>         0.4384
     19 H9          3.7658   -0.6219   -0.0546 H         1 <0>         0.4215
     20 H10        -1.6902    0.5339   -2.7598 H         1 <0>         0.1070
     21 H11        -1.9371   -1.1787   -3.1774 H         1 <0>         0.0960
     22 H12        -1.9212   -0.6721   -1.4712 H         1 <0>         0.0950
     23 H13         3.6612   -1.2879   -2.2836 H         1 <0>         0.4429
@<TRIPOS>BOND
     1    1    2 1
     2    1   11 1
     3    1   12 1
     4    1   13 1
     5    2    3 1
     6    2   14 1
     7    2   15 1
     8    3    8 ar
     9    3    4 ar
    10    4    5 ar
    11    4   10 1
    12    5    6 ar
    13    5   16 1
    14    6    7 ar
    15    6   17 1
    16    7    8 ar
    17    7   23 1
    18    8    9 1
    19    9   18 1
    20    9   19 1
    21   10   20 1
    22   10   21 1
    23   10   22 1
@<TRIPOS>MOLECULE
ZINC14985912
   20    20     0     0     0
SMALL
USER_CHARGES

@<TRIPOS>ATOM
      1 C1         -0.0184    1.5028    0.0103 C.3       1 <0>        -0.1450
      2 C2          0.0021   -0.0041    0.0020 C.ar      1 <0>         0.0732
      3 C3          0.0061   -0.7048   -1.1908 C.ar      1 <0>        -0.1999
      4 C4          0.0257   -2.0952   -1.1584 C.ar      1 <0>         0.4484
      5 N1          0.0402   -2.7423   -0.0031 N.ar      1 <0>        -0.5024
      6 C5          0.0363   -2.1002    1.1495 C.ar      1 <0>         0.1403
      7 C6          0.0231   -0.7202    1.1913 C.ar      1 <0>        -0.1296
      8 C7          0.0253    0.0013    2.5143 C.3       1 <0>        -0.1220
      9 N2          0.0295   -2.8120   -2.3495 N.pl3     1 <0>        -0.8234
     10 H1          1.0042    1.8801    0.0026 H         1 <0>         0.1074
     11 H2         -0.5455    1.8639   -0.8728 H         1 <0>         0.0945
     12 H3         -0.5286    1.8543    0.9071 H         1 <0>         0.0971
     13 H4         -0.0060   -0.1794   -2.1343 H         1 <0>         0.1795
     14 H5          0.0482   -2.6613    2.0722 H         1 <0>         0.2067
     15 H6         -1.0017    0.1609    2.8428 H         1 <0>         0.0933
     16 H7          0.5544   -0.5988    3.2546 H         1 <0>         0.0868
     17 H8          0.5247    0.9637    2.4025 H         1 <0>         0.0907
     18 H9          0.0186   -2.3424   -3.1981 H         1 <0>         0.4401
     19 H10         0.0431   -3.7817   -2.3319 H         1 <0>         0.4214
     20 H11         0.0537   -3.7122   -0.0043 H         1 <0>         0.4429
@<TRIPOS>BOND
     1    1    2 1
     2    1   10 1
     3    1   11 1
     4    1   12 1
     5    2    7 ar
     6    2    3 ar
     7    3    4 ar
     8    3   13 1
     9    4    5 ar
    10    4    9 1
    11    5    6 ar
    12    5   20 1
    13    6    7 ar
    14    6   14 1
    15    7    8 1
    16    8   15 1
    17    8   16 1
    18    8   17 1
    19    9   18 1
    20    9   19 1
@<TRIPOS>MOLECULE
ZINC24687750
   46    48     0     0     0
SMALL
USER_CHARGES

@<TRIPOS>ATOM
      1 C1         -0.2646    1.5888    0.6542 C.ar      1 <0>        -0.1050
      2 C2          0.8961    2.3393    0.6234 C.ar      1 <0>        -0.1103
      3 C3          2.0953    1.7448    0.2785 C.ar      1 <0>        -0.0789
      4 C4          2.1346    0.3993   -0.0364 C.ar      1 <0>        -0.0885
      5 C5          0.9736   -0.3521   -0.0057 C.ar      1 <0>        -0.0349
      6 C6         -0.2265    0.2436    0.3401 C.ar      1 <0>        -0.1064
      7 Cl1         1.0221   -2.0417   -0.4015 Cl        1 <0>        -0.0645
      8 C7          3.3600    2.5635    0.2451 C.3       1 <0>         0.1014
      9 N1          4.0030    2.5254    1.5654 N.3       1 <0>        -0.6856
     10 C8          5.2420    3.3146    1.5705 C.3       1 <0>         0.0649
     11 C9          5.8814    3.2510    2.9590 C.3       1 <0>        -0.0911
     12 C10         7.1524    4.0606    2.9643 C.ar      1 <0>        -0.0534
     13 C11         8.3534    3.4615    2.6312 C.ar      1 <0>        -0.0809
     14 C12         9.5201    4.2006    2.6351 C.ar      1 <0>        -0.1509
     15 C13         9.4861    5.5472    2.9740 C.ar      1 <0>         0.0715
     16 C14         8.2781    6.1459    3.3081 C.ar      1 <0>        -0.1021
     17 C15         7.1143    5.4024    3.2968 C.ar      1 <0>        -0.0838
     18 N2         10.6653    6.2982    2.9794 N.pl3     1 <0>        -0.6058
     19 C16        11.6115    6.1053    1.9917 C.cat     1 <0>         0.6430
     20 N3         11.3554    5.3084    0.9883 N.pl3     1 <0>        -0.7345
     21 C17        12.9074    6.7968    2.0695 C.2       1 <0>        -0.3329
     22 C18        14.1410    6.3937    1.5903 C.2       1 <0>        -0.0240
     23 C19        15.1842    7.2635    1.8162 C.2       1 <0>        -0.1939
     24 C20        14.9433    8.4228    2.4729 C.2       1 <0>        -0.1723
     25 S1         13.2960    8.3763    2.7989 S.3       1 <0>         0.3085
     26 H1         -1.2006    2.0529    0.9282 H         1 <0>         0.1344
     27 H2          0.8658    3.3907    0.8686 H         1 <0>         0.1256
     28 H3          3.0715   -0.0650   -0.3066 H         1 <0>         0.1335
     29 H4         -1.1333   -0.3426    0.3642 H         1 <0>         0.1355
     30 H5          4.0392    2.1527   -0.5018 H         1 <0>         0.0843
     31 H6          3.1184    3.5950   -0.0117 H         1 <0>         0.0448
     32 H7          3.3702    2.8411    2.2850 H         1 <0>         0.3466
     33 H8          5.9342    2.9090    0.8328 H         1 <0>         0.0758
     34 H9          5.0135    4.3512    1.3229 H         1 <0>         0.0341
     35 H10         5.1891    3.6566    3.6968 H         1 <0>         0.0828
     36 H11         6.1099    2.2144    3.2066 H         1 <0>         0.0932
     37 H12         8.3792    2.4144    2.3681 H         1 <0>         0.1453
     38 H13        10.4578    3.7320    2.3752 H         1 <0>         0.1342
     39 H14         8.2483    7.1927    3.5721 H         1 <0>         0.1421
     40 H15         6.1740    5.8684    3.5518 H         1 <0>         0.1438
     41 H16        10.8190    6.9548    3.6767 H         1 <0>         0.4446
     42 H17        12.0500    5.1018    0.3435 H         1 <0>         0.4462
     43 H18        14.2772    5.4559    1.0722 H         1 <0>         0.1582
     44 H19        16.1805    7.0243    1.4746 H         1 <0>         0.1589
     45 H20        15.6480    9.2014    2.7251 H         1 <0>         0.2090
     46 H21        10.4707    4.9234    0.8882 H         1 <0>         0.4371
@<TRIPOS>BOND
     1    1    6 ar
     2    1    2 ar
     3    1   26 1
     4    2    3 ar
     5    2   27 1
     6    3    4 ar
     7    3    8 1
     8    4    5 ar
     9    4   28 1
    10    5    6 ar
    11    5    7 1
    12    6   29 1
    13    8    9 1
    14    8   30 1
    15    8   31 1
    16    9   10 1
    17    9   32 1
    18   10   11 1
    19   10   33 1
    20   10   34 1
    21   11   12 1
    22   11   35 1
    23   11   36 1
    24   12   17 ar
    25   12   13 ar
    26   13   14 ar
    27   13   37 1
    28   14   15 ar
    29   14   38 1
    30   15   16 ar
    31   15   18 1
    32   16   17 ar
    33   16   39 1
    34   17   40 1
    35   18   19 1
    36   18   41 1
    37   19   20 2
    38   19   21 1
    39   20   42 1
    40   20   46 1
    41   21   25 1
    42   21   22 2
    43   22   23 1
    44   22   43 1
    45   23   24 2
    46   23   44 1
    47   24   25 1
    48   24   45 1
@<TRIPOS>MOLECULE
ZINC24687750
   45    47     0     0     0
SMALL
USER_CHARGES

@<TRIPOS>ATOM
      1 C1          0.3220    0.6145    0.2037 C.ar      1 <0>        -0.1063
      2 C2          1.4885    1.3555    0.1591 C.ar      1 <0>        -0.1104
      3 C3          2.7119    0.7288    0.3031 C.ar      1 <0>        -0.0725
      4 C4          2.7701   -0.6394    0.4915 C.ar      1 <0>        -0.0885
      5 C5          1.6034   -1.3813    0.5362 C.ar      1 <0>        -0.0349
      6 C6          0.3788   -0.7533    0.3923 C.ar      1 <0>        -0.1100
      7 Cl1         1.6756   -3.0997    0.7721 Cl        1 <0>        -0.0686
      8 C7          3.9828    1.5372    0.2544 C.3       1 <0>         0.0986
      9 N1          4.3298    1.9862    1.6094 N.3       1 <0>        -0.6859
     10 C8          5.5664    2.7793    1.6007 C.3       1 <0>         0.0649
     11 C9          5.8945    3.2279    3.0261 C.3       1 <0>        -0.0755
     12 C10         7.1630    4.0415    3.0172 C.ar      1 <0>        -0.1040
     13 C11         8.3855    3.4124    3.1743 C.ar      1 <0>        -0.0926
     14 C12         9.5506    4.1505    3.1676 C.ar      1 <0>        -0.1667
     15 C13         9.4944    5.5367    3.0012 C.ar      1 <0>         0.1205
     16 C14         8.2565    6.1649    2.8426 C.ar      1 <0>        -0.1242
     17 C15         7.1001    5.4132    2.8462 C.ar      1 <0>        -0.0956
     18 N2         10.6451    6.2748    2.9940 N.2       1 <0>        -0.5669
     19 C16        11.6190    5.9672    2.1639 C.2       1 <0>         0.5102
     20 N3         11.4353    4.9766    1.2219 N.pl3     1 <0>        -0.8674
     21 C17        12.9004    6.6781    2.2405 C.2       1 <0>        -0.1898
     22 C18        14.0379    6.5139    1.4666 C.2       1 <0>        -0.1064
     23 C19        15.0962    7.3366    1.7780 C.2       1 <0>        -0.1810
     24 C20        14.9622    8.2269    2.7902 C.2       1 <0>        -0.2473
     25 S1         13.3966    7.9835    3.3485 S.3       1 <0>         0.2819
     26 H1         -0.6339    1.1053    0.0956 H         1 <0>         0.1329
     27 H2          1.4436    2.4244    0.0113 H         1 <0>         0.1261
     28 H3          3.7262   -1.1291    0.6033 H         1 <0>         0.1342
     29 H4         -0.5324   -1.3320    0.4271 H         1 <0>         0.1334
     30 H5          4.7901    0.9215   -0.1422 H         1 <0>         0.0838
     31 H6          3.8373    2.4045   -0.3896 H         1 <0>         0.0436
     32 H7          6.3846    2.1722    1.2134 H         1 <0>         0.0745
     33 H8          5.4318    3.6551    0.9660 H         1 <0>         0.0326
     34 H9          5.0763    3.8351    3.4134 H         1 <0>         0.0704
     35 H10         6.0291    2.3521    3.6608 H         1 <0>         0.0810
     36 H11         8.4274    2.3409    3.3028 H         1 <0>         0.1219
     37 H12        10.5040    3.6583    3.2911 H         1 <0>         0.1195
     38 H13         8.2055    7.2360    2.7139 H         1 <0>         0.1243
     39 H14         6.1428    5.8969    2.7197 H         1 <0>         0.1217
     40 H15        10.5590    4.5784    1.1014 H         1 <0>         0.4087
     41 H16        14.0908    5.7865    0.6701 H         1 <0>         0.1414
     42 H17        16.0208    7.2731    1.2235 H         1 <0>         0.1358
     43 H18        15.6933    8.9344    3.1525 H         1 <0>         0.1888
     44 H19        12.1823    4.6781    0.6799 H         1 <0>         0.4003
     45 H20         3.5703    2.5053    2.0239 H         1 <0>         0.3434
@<TRIPOS>BOND
     1    1    6 ar
     2    1    2 ar
     3    1   26 1
     4    2    3 ar
     5    2   27 1
     6    3    4 ar
     7    3    8 1
     8    4    5 ar
     9    4   28 1
    10    5    6 ar
    11    5    7 1
    12    6   29 1
    13    8    9 1
    14    8   30 1
    15    8   31 1
    16    9   10 1
    17    9   45 1
    18   10   11 1
    19   10   32 1
    20   10   33 1
    21   11   12 1
    22   11   34 1
    23   11   35 1
    24   12   17 ar
    25   12   13 ar
    26   13   14 ar
    27   13   36 1
    28   14   15 ar
    29   14   37 1
    30   15   16 ar
    31   15   18 1
    32   16   17 ar
    33   16   38 1
    34   17   39 1
    35   18   19 2
    36   19   20 1
    37   19   21 1
    38   20   40 1
    39   20   44 1
    40   21   25 1
    41   21   22 2
    42   22   23 1
    43   22   41 1
    44   23   24 2
    45   23   42 1
    46   24   25 1
    47   24   43 1
@<TRIPOS>MOLECULE
ZINC24687750
   46    48     0     0     0
SMALL
USER_CHARGES
N'-[4-[2-[(3-chlorophenyl)methylamino]ethyl]phenyl]thiophene-2-carboxamidine
@<TRIPOS>ATOM
      1 C1         -1.6827  -10.5968   -0.5964 C.ar      1 <0>        -0.0996
      2 C2         -1.6809   -9.2372   -0.8479 C.ar      1 <0>        -0.0905
      3 C3         -2.4298   -8.3865   -0.0568 C.ar      1 <0>        -0.1500
      4 C4         -3.1894   -8.8958    0.9799 C.ar      1 <0>        -0.0886
      5 C5         -3.1957  -10.2565    1.2287 C.ar      1 <0>        -0.0357
      6 C6         -2.4416  -11.1071    0.4397 C.ar      1 <0>        -0.0774
      7 Cl1        -4.1497  -10.8969    2.5300 Cl        1 <0>        -0.0412
      8 C7         -2.4232   -6.9042   -0.3283 C.3       1 <0>         0.0525
      9 N1         -1.3477   -6.2695    0.4451 N.4       1 <0>        -0.5393
     10 C8         -1.3108   -4.8207    0.2049 C.3       1 <0>        -0.0038
     11 C9         -0.1806   -4.1963    1.0256 C.3       1 <0>        -0.0975
     12 C10        -0.1429   -2.7100    0.7792 C.ar      1 <0>        -0.1207
     13 C11        -0.8841   -1.8601    1.5811 C.ar      1 <0>        -0.0932
     14 C12        -0.8544   -0.4988    1.3615 C.ar      1 <0>        -0.0962
     15 C13        -0.0735    0.0215    0.3263 C.ar      1 <0>         0.1832
     16 C14         0.6682   -0.8432   -0.4827 C.ar      1 <0>        -0.1354
     17 C15         0.6332   -2.2018   -0.2476 C.ar      1 <0>        -0.0927
     18 N2         -0.0396    1.3697    0.1025 N.pl3     1 <0>        -0.6423
     19 C16         0.2720    2.1918    1.0820 C.2       1 <0>         0.4744
     20 C17         0.1876    3.6424    0.8772 C.2       1 <0>        -0.2095
     21 C18         0.4670    4.6672    1.7661 C.2       1 <0>        -0.0951
     22 C19         0.3020    5.9533    1.3099 C.2       1 <0>        -0.1703
     23 C20        -0.1187    6.1554    0.0352 C.2       1 <0>        -0.1768
     24 S1         -0.2943    4.5456   -0.5839 S.3       1 <0>         0.1269
     25 N3          0.6779    1.6898    2.3008 N.2       1 <0>        -0.7502
     26 H1         -1.0941  -11.2606   -1.2123 H         1 <0>         0.1459
     27 H2         -1.0912   -8.8394   -1.6605 H         1 <0>         0.1385
     28 H3         -3.7775   -8.2314    1.5956 H         1 <0>         0.1419
     29 H4         -2.4464  -12.1696    0.6332 H         1 <0>         0.1463
     30 H5         -2.2560   -6.7287   -1.4013 H         1 <0>         0.1382
     31 H6         -3.3910   -6.4730   -0.0327 H         1 <0>         0.1368
     32 H7         -1.5150   -6.4450    1.5181 H         1 <0>         0.4496
     33 H8         -1.1357   -4.6307   -0.8643 H         1 <0>         0.1303
     34 H9         -2.2708   -4.3748    0.5042 H         1 <0>         0.1302
     35 H10        -0.3556   -4.3864    2.0948 H         1 <0>         0.0945
     36 H11         0.7794   -4.6421    0.7263 H         1 <0>         0.0944
     37 H12        -1.4870   -2.2637    2.3811 H         1 <0>         0.1246
     38 H13        -1.4331    0.1634    1.9884 H         1 <0>         0.1278
     39 H14         1.2708   -0.4484   -1.2873 H         1 <0>         0.1297
     40 H15         1.2094   -2.8711   -0.8693 H         1 <0>         0.1256
     41 H16         0.7995    4.4647    2.7734 H         1 <0>         0.1426
     42 H17         0.5050    6.7931    1.9579 H         1 <0>         0.1434
     43 H18        -0.2962    7.0922   -0.4720 H         1 <0>         0.1931
     44 H19         0.9383    2.3768    3.1194 H         1 <0>         0.3450
     45 H20        -0.2727    1.7675   -0.8962 H         1 <0>         0.4413
     46 H21        -0.3799   -6.7007    0.1496 H         1 <0>         0.4492
@<TRIPOS>BOND
     1    1    6 ar
     2    1    2 ar
     3    1   26 1
     4    2    3 ar
     5    2   27 1
     6    3    4 ar
     7    3    8 1
     8    4    5 ar
     9    4   28 1
    10    5    6 ar
    11    5    7 1
    12    6   29 1
    13    8    9 1
    14    8   30 1
    15    8   31 1
    16    9   10 1
    17    9   32 1
    18    9   46 1
    19   10   11 1
    20   10   33 1
    21   10   34 1
    22   11   12 1
    23   11   35 1
    24   11   36 1
    25   12   17 ar
    26   12   13 ar
    27   13   14 ar
    28   13   37 1
    29   14   15 ar
    30   14   38 1
    31   15   16 ar
    32   15   18 1
    33   16   17 ar
    34   16   39 1
    35   17   40 1
    36   18   19 1
    37   18   45 1
    38   19   20 1
    39   19   25 2
    40   20   24 1
    41   20   21 2
    42   21   22 1
    43   21   41 1
    44   22   23 2
    45   22   42 1
    46   23   24 1
    47   23   43 1
    48   25   44 1
@<TRIPOS>MOLECULE
ZINC00021813
   23    23     0     0     0
SMALL
USER_CHARGES

@<TRIPOS>ATOM
      1 C1         -0.0187    1.5258    0.0104 C.3       1 <0>        -0.1575
      2 C2          0.0021   -0.0041    0.0020 C.3       1 <0>        -0.1046
      3 C3          0.7074   -0.4901   -1.2379 C.ar      1 <0>         0.1876
      4 C4          0.0020   -0.6163   -2.4179 C.ar      1 <0>        -0.1724
      5 C5          0.6569   -1.0645   -3.5572 C.ar      1 <0>         0.0795
      6 C6          2.0030   -1.3706   -3.4675 C.ar      1 <0>        -0.2113
      7 C7          2.6511   -1.2199   -2.2460 C.ar      1 <0>         0.4562
      8 N1          1.9925   -0.7843   -1.1829 N.ar      1 <0>        -0.5070
      9 N2          4.0034   -1.5243   -2.1416 N.pl3     1 <0>        -0.8232
     10 C8         -0.0822   -1.2146   -4.8619 C.3       1 <0>        -0.1425
     11 H1          1.0039    1.9031    0.0027 H         1 <0>         0.0606
     12 H2         -0.5459    1.8868   -0.8726 H         1 <0>         0.0725
     13 H3         -0.5289    1.8773    0.9072 H         1 <0>         0.0869
     14 H4          0.5293   -0.3651    0.8851 H         1 <0>         0.0977
     15 H5         -1.0205   -0.3814    0.0098 H         1 <0>         0.1219
     16 H6         -1.0488   -0.3692   -2.4544 H         1 <0>         0.1795
     17 H7          2.5432   -1.7222   -4.3340 H         1 <0>         0.1789
     18 H8          4.4908   -1.8403   -2.9184 H         1 <0>         0.4406
     19 H9          4.4596   -1.4208   -1.2918 H         1 <0>         0.4211
     20 H10        -0.0238   -0.2813   -5.4220 H         1 <0>         0.1070
     21 H11         0.3695   -2.0171   -5.4451 H         1 <0>         0.0939
     22 H12        -1.1267   -1.4540   -4.6624 H         1 <0>         0.0958
     23 H13         2.4655   -0.6827   -0.3422 H         1 <0>         0.4389
@<TRIPOS>BOND
     1    1    2 1
     2    1   11 1
     3    1   12 1
     4    1   13 1
     5    2    3 1
     6    2   14 1
     7    2   15 1
     8    3    8 ar
     9    3    4 ar
    10    4    5 ar
    11    4   16 1
    12    5    6 ar
    13    5   10 1
    14    6    7 ar
    15    6   17 1
    16    7    8 ar
    17    7    9 1
    18    8   23 1
    19    9   18 1
    20    9   19 1
    21   10   20 1
    22   10   21 1
    23   10   22 1
@<TRIPOS>MOLECULE
ZINC21982226
   28    27     0     0     0
SMALL
USER_CHARGES

@<TRIPOS>ATOM
      1 C1         -0.0117    1.5287   -0.1466 C.3       1 <0>        -0.1444
      2 C2          0.0130    0.0014   -0.2331 C.3       1 <0>        -0.1255
      3 C3         -1.4208   -0.5325   -0.2382 C.3       1 <0>        -0.0489
      4 H1         -1.9520   -0.1552    0.6357 H         1 <0>         0.1358
      5 C4         -1.3962   -2.0388   -0.1994 C.2       1 <0>         0.4861
      6 O1         -1.3999   -2.6212    0.8717 O.co2     1 <0>        -0.6333
      7 O2         -1.3725   -2.6750   -1.2392 O.co2     1 <0>        -0.6656
      8 N1         -2.1056   -0.0852   -1.4584 N.4       1 <0>        -0.6160
      9 C5          1.4221    2.0625   -0.1416 C.3       1 <0>         0.1026
     10 N2          1.3984    3.5250   -0.0588 N.pl3     1 <0>        -0.6811
     11 C6          2.5553    4.2182   -0.0399 C.2       1 <0>         0.7149
     12 N3          3.7340    3.5650   -0.0974 N.pl3     1 <0>        -0.8398
     13 N4          2.5335    5.5627    0.0362 N.2       1 <0>        -0.5044
     14 N5          3.6342    6.2311   -0.0411 N.pl3     1 <0>         0.1933
     15 O3          4.0483    6.6853   -1.2058 O.2       1 <0>        -0.2370
     16 O4          4.3437    6.4591    1.0447 O.3       1 <0>        -0.2440
     17 H2         -0.5468    1.9327   -1.0060 H         1 <0>         0.0712
     18 H3         -0.5157    1.8325    0.7708 H         1 <0>         0.0928
     19 H4          0.5171   -0.3025   -1.1506 H         1 <0>         0.0916
     20 H5          0.5481   -0.4026    0.6263 H         1 <0>         0.1136
     21 H6         -1.6139   -0.4344   -2.2673 H         1 <0>         0.4340
     22 H7         -3.0512   -0.4372   -1.4617 H         1 <0>         0.4334
     23 H8          1.9572    1.6586    0.7178 H         1 <0>         0.0896
     24 H9          1.9262    1.7587   -1.0591 H         1 <0>         0.0875
     25 H10         0.5508    3.9948   -0.0175 H         1 <0>         0.4331
     26 H11         3.7538    2.5960   -0.0591 H         1 <0>         0.4204
     27 H12         4.5618    4.0643   -0.1769 H         1 <0>         0.4280
     28 H13        -2.1221    0.9234   -1.4843 H         1 <0>         0.4121
@<TRIPOS>BOND
     1    1    2 1
     2    1    9 1
     3    1   17 1
     4    1   18 1
     5    2    3 1
     6    2   19 1
     7    2   20 1
     8    3    4 1
     9    3    5 1
    10    3    8 1
    11    5    6 2
    12    5    7 1
    13    8   21 1
    14    8   22 1
    15    8   28 1
    16    9   10 1
    17    9   23 1
    18    9   24 1
    19   10   11 1
    20   10   25 1
    21   11   12 1
    22   11   13 2
    23   12   26 1
    24   12   27 1
    25   13   14 1
    26   14   15 2
    27   14   16 1
@<TRIPOS>MOLECULE
ZINC21982226
   27    26     0     0     0
SMALL
USER_CHARGES

@<TRIPOS>ATOM
      1 C1         -0.0187    1.5258    0.0104 C.3       1 <0>        -0.1048
      2 C2          0.0021   -0.0041    0.0020 C.3       1 <0>        -0.1266
      3 C3         -1.4333   -0.5336    0.0129 C.3       1 <0>        -0.0459
      4 H1         -1.9701   -0.1109    0.8621 H         1 <0>         0.1321
      5 C4         -1.4136   -2.0361    0.1285 C.2       1 <0>         0.4902
      6 O1         -1.4274   -2.5632    1.2278 O.co2     1 <0>        -0.6431
      7 O2         -1.3838   -2.7245   -0.8773 O.co2     1 <0>        -0.6755
      8 N1         -2.1072   -0.1473   -1.2339 N.4       1 <0>        -0.6142
      9 C5          1.4167    2.0553   -0.0004 C.3       1 <0>         0.0577
     10 N2          1.3968    3.5202    0.0076 N.2       1 <0>        -0.6142
     11 C6          2.5556    4.2104    0.0003 C.2       1 <0>         0.5441
     12 N3          3.7327    3.5520   -0.0145 N.pl3     1 <0>        -0.8545
     13 N4          2.5374    5.5571    0.0077 N.2       1 <0>        -0.4280
     14 N5          1.4116    6.1868    0.0218 N.pl3     1 <0>         0.2691
     15 O3          0.2801    5.5129    0.0290 O.2       1 <0>        -0.3867
     16 O4          1.3938    7.5037    0.0290 O.3       1 <0>        -0.4346
     17 H2         -0.5459    1.8868   -0.8726 H         1 <0>         0.0545
     18 H3         -0.5289    1.8773    0.9072 H         1 <0>         0.0744
     19 H4          0.5123   -0.3556   -0.8948 H         1 <0>         0.0782
     20 H5          0.5293   -0.3651    0.8851 H         1 <0>         0.1007
     21 H6         -3.0538   -0.4965   -1.2267 H         1 <0>         0.4256
     22 H7         -2.1205    0.8587   -1.3113 H         1 <0>         0.4195
     23 H8          1.9439    1.6943    0.8826 H         1 <0>         0.0310
     24 H9          1.9269    1.7038   -0.8972 H         1 <0>         0.0269
     25 H10         3.7459    2.5821   -0.0198 H         1 <0>         0.4001
     26 H11         4.5661    4.0484   -0.0198 H         1 <0>         0.3937
     27 H12        -1.6103   -0.5386   -2.0201 H         1 <0>         0.4304
@<TRIPOS>BOND
     1    1    2 1
     2    1    9 1
     3    1   17 1
     4    1   18 1
     5    2    3 1
     6    2   19 1
     7    2   20 1
     8    3    4 1
     9    3    5 1
    10    3    8 1
    11    5    6 2
    12    5    7 1
    13    8   21 1
    14    8   22 1
    15    8   27 1
    16    9   10 1
    17    9   23 1
    18    9   24 1
    19   10   11 1
    20   11   12 1
    21   11   13 2
    22   12   25 1
    23   12   26 1
    24   13   14 1
    25   14   15 2
    26   14   16 1
@<TRIPOS>MOLECULE
ZINC00021815
   26    26     0     0     0
SMALL
USER_CHARGES

@<TRIPOS>ATOM
      1 C1         -0.0184    1.5028    0.0103 C.3       1 <0>        -0.1423
      2 C2          0.0021   -0.0041    0.0020 C.ar      1 <0>         0.0794
      3 C3          0.0062   -0.7075   -1.1955 C.ar      1 <0>        -0.1712
      4 C4          0.0255   -2.0874   -1.1689 C.ar      1 <0>         0.1912
      5 N1          0.0401   -2.7422   -0.0232 N.ar      1 <0>        -0.5063
      6 C5          0.0364   -2.1079    1.1389 C.ar      1 <0>         0.4563
      7 C6          0.0230   -0.7174    1.1866 C.ar      1 <0>        -0.2107
      8 N2          0.0518   -2.8376    2.3220 N.pl3     1 <0>        -0.8234
      9 C7          0.0295   -2.8562   -2.4651 C.3       1 <0>        -0.0727
     10 C8          0.8754   -4.1210   -2.3052 C.3       1 <0>        -0.1685
     11 C9         -1.4041   -3.2445   -2.8321 C.3       1 <0>        -0.1555
     12 H1          1.0042    1.8801    0.0026 H         1 <0>         0.1071
     13 H2         -0.5455    1.8639   -0.8728 H         1 <0>         0.0957
     14 H3         -0.5286    1.8543    0.9071 H         1 <0>         0.0939
     15 H4         -0.0061   -0.1802   -2.1379 H         1 <0>         0.1796
     16 H5          0.0246   -0.2022    2.1358 H         1 <0>         0.1792
     17 H6          0.0651   -3.8071    2.2937 H         1 <0>         0.4207
     18 H7          0.0491   -2.3773    3.1758 H         1 <0>         0.4407
     19 H8          0.4511   -2.2345   -3.2549 H         1 <0>         0.1279
     20 H9          0.4538   -4.7426   -1.5153 H         1 <0>         0.0550
     21 H10         0.8783   -4.6771   -3.2427 H         1 <0>         0.0938
     22 H11         1.8968   -3.8444   -2.0437 H         1 <0>         0.0716
     23 H12        -2.0068   -2.3434   -2.9461 H         1 <0>         0.0733
     24 H13        -1.4012   -3.8005   -3.7696 H         1 <0>         0.0880
     25 H14        -1.8258   -3.8661   -2.0423 H         1 <0>         0.0598
     26 H15         0.0536   -3.7120   -0.0328 H         1 <0>         0.4372
@<TRIPOS>BOND
     1    1    2 1
     2    1   12 1
     3    1   13 1
     4    1   14 1
     5    2    7 ar
     6    2    3 ar
     7    3    4 ar
     8    3   15 1
     9    4    5 ar
    10    4    9 1
    11    5    6 ar
    12    5   26 1
    13    6    7 ar
    14    6    8 1
    15    7   16 1
    16    8   17 1
    17    8   18 1
    18    9   10 1
    19    9   11 1
    20    9   19 1
    21   10   20 1
    22   10   21 1
    23   10   22 1
    24   11   23 1
    25   11   24 1
    26   11   25 1
@<TRIPOS>MOLECULE
ZINC00021814
   26    26     0     0     0
SMALL
USER_CHARGES

@<TRIPOS>ATOM
      1 C1         -0.0187    1.5258    0.0104 C.3       1 <0>        -0.1589
      2 C2          0.0021   -0.0041    0.0020 C.3       1 <0>        -0.1221
      3 C3          0.7421   -0.5109    1.2415 C.3       1 <0>        -0.1037
      4 C4          0.7625   -2.0177    1.2333 C.ar      1 <0>         0.1884
      5 C5         -0.3140   -2.7166    1.7421 C.ar      1 <0>        -0.1719
      6 C6         -0.2898   -4.1047    1.7320 C.ar      1 <0>         0.0794
      7 C7          0.8208   -4.7419    1.2082 C.ar      1 <0>        -0.2112
      8 C8          1.8697   -3.9746    0.7123 C.ar      1 <0>         0.4562
      9 N1          1.8066   -2.6521    0.7349 N.ar      1 <0>        -0.5069
     10 N2          2.9919   -4.6018    0.1835 N.pl3     1 <0>        -0.8233
     11 C9         -1.4471   -4.8995    2.2797 C.3       1 <0>        -0.1425
     12 H1          1.0039    1.9031    0.0027 H         1 <0>         0.0608
     13 H2         -0.5459    1.8868   -0.8726 H         1 <0>         0.0689
     14 H3         -0.5289    1.8773    0.9072 H         1 <0>         0.0650
     15 H4         -1.0205   -0.3814    0.0098 H         1 <0>         0.0788
     16 H5          0.5123   -0.3556   -0.8948 H         1 <0>         0.0669
     17 H6          1.7647   -0.1336    1.2338 H         1 <0>         0.0982
     18 H7          0.2319   -0.1594    2.1383 H         1 <0>         0.1223
     19 H8         -1.1661   -2.1888    2.1444 H         1 <0>         0.1794
     20 H9          0.8729   -5.8204    1.1850 H         1 <0>         0.1790
     21 H10         3.0411   -5.5703    0.1615 H         1 <0>         0.4406
     22 H11         3.7259   -4.0709   -0.1635 H         1 <0>         0.4210
     23 H12        -2.1653   -5.0920    1.4826 H         1 <0>         0.1070
     24 H13        -1.0820   -5.8469    2.6763 H         1 <0>         0.0939
     25 H14        -1.9312   -4.3346    3.0763 H         1 <0>         0.0957
     26 H15         2.5478   -2.1370    0.3797 H         1 <0>         0.4389
@<TRIPOS>BOND
     1    1    2 1
     2    1   12 1
     3    1   13 1
     4    1   14 1
     5    2    3 1
     6    2   15 1
     7    2   16 1
     8    3    4 1
     9    3   17 1
    10    3   18 1
    11    4    9 ar
    12    4    5 ar
    13    5    6 ar
    14    5   19 1
    15    6    7 ar
    16    6   11 1
    17    7    8 ar
    18    7   20 1
    19    8    9 ar
    20    8   10 1
    21    9   26 1
    22   10   21 1
    23   10   22 1
    24   11   23 1
    25   11   24 1
    26   11   25 1
@<TRIPOS>MOLECULE
ZINC17744492
   16    16     0     0     0
SMALL
USER_CHARGES

@<TRIPOS>ATOM
      1 C1         -0.0188    1.5328    0.0105 C.3       1 <0>        -0.1513
      2 C2          1.4117    2.0544   -0.0004 C.3       1 <0>         0.0739
      3 N1          2.1834    1.6100   -1.1388 N.pl3     1 <0>        -0.6167
      4 C3          1.9931    0.5753   -1.8763 C.cat     1 <0>         0.4763
      5 S1          0.6343   -0.5208   -1.6253 S.3       1 <0>         0.0699
      6 C4          0.0021   -0.0041    0.0020 C.3       1 <0>        -0.1321
      7 N2          2.8786    0.3139   -2.8962 N.pl3     1 <0>        -0.7784
      8 H1         -0.5278    1.8850    0.9077 H         1 <0>         0.1343
      9 H2         -0.5448    1.8946   -0.8730 H         1 <0>         0.1020
     10 H3          1.3852    3.1441   -0.0015 H         1 <0>         0.1309
     11 H4          1.9107    1.7220    0.9099 H         1 <0>         0.1143
     12 H5          0.6593   -0.3711    0.7903 H         1 <0>         0.1243
     13 H6         -1.0067   -0.3902    0.1482 H         1 <0>         0.1548
     14 H7          3.6313    0.9063   -3.0487 H         1 <0>         0.4290
     15 H8          2.7502   -0.4629   -3.4627 H         1 <0>         0.4458
     16 H9          2.9427    2.1647   -1.3770 H         1 <0>         0.4231
@<TRIPOS>BOND
     1    1    6 1
     2    1    2 1
     3    1    8 1
     4    1    9 1
     5    2    3 1
     6    2   10 1
     7    2   11 1
     8    3    4 2
     9    3   16 1
    10    4    5 1
    11    4    7 1
    12    5    6 1
    13    6   12 1
    14    6   13 1
    15    7   14 1
    16    7   15 1
@<TRIPOS>MOLECULE
ZINC03874402
   30    29     0     0     0
SMALL
USER_CHARGES

@<TRIPOS>ATOM
      1 C1         -0.0178    1.4608    0.0101 C.3       1 <0>         0.0454
      2 N1          0.0021   -0.0041    0.0020 N.pl3     1 <0>        -0.6589
      3 C2          0.5659   -0.6428   -0.9844 C.cat     1 <0>         0.7310
      4 N2          1.1420    0.0582   -2.0173 N.pl3     1 <0>        -0.8093
      5 N3          0.5845   -2.0175   -0.9920 N.pl3     1 <0>        -0.7009
      6 C3          1.2183   -2.7353   -2.1007 C.3       1 <0>         0.0965
      7 C4          1.1012   -4.2426   -1.8656 C.3       1 <0>        -0.1470
      8 C5          1.7630   -4.9924   -3.0235 C.3       1 <0>        -0.1248
      9 C6          1.6460   -6.4996   -2.7883 C.3       1 <0>        -0.0511
     10 H1          0.5989   -6.7642   -2.6413 H         1 <0>         0.1368
     11 C7          2.1874   -7.2383   -3.9851 C.2       1 <0>         0.4860
     12 O1          3.2339   -7.8577   -3.8970 O.co2     1 <0>        -0.6647
     13 O2          1.5790   -7.2165   -5.0414 O.co2     1 <0>        -0.6296
     14 N4          2.4170   -6.8703   -1.5941 N.4       1 <0>        -0.6147
     15 H2          1.0048    1.8381    0.0023 H         1 <0>         0.0938
     16 H3         -0.5450    1.8219   -0.8730 H         1 <0>         0.0941
     17 H4         -0.5280    1.8123    0.9069 H         1 <0>         0.1205
     18 H5          1.1288    1.0281   -2.0120 H         1 <0>         0.4381
     19 H6          1.5616   -0.4171   -2.7514 H         1 <0>         0.4371
     20 H7          0.1781   -2.5120   -0.2632 H         1 <0>         0.4333
     21 H8          0.7208   -2.4736   -3.0346 H         1 <0>         0.0989
     22 H9          2.2706   -2.4574   -2.1593 H         1 <0>         0.0949
     23 H10         1.5986   -4.5044   -0.9317 H         1 <0>         0.0719
     24 H11         0.0489   -4.5206   -1.8070 H         1 <0>         0.0940
     25 H12         1.2656   -4.7306   -3.9574 H         1 <0>         0.1188
     26 H13         2.8154   -4.7144   -3.0820 H         1 <0>         0.0902
     27 H14         2.0545   -6.3757   -0.7928 H         1 <0>         0.4083
     28 H15         2.3398   -7.8643   -1.4390 H         1 <0>         0.4381
     29 H16        -0.4044   -0.4986    0.7308 H         1 <0>         0.4402
     30 H17         3.3864   -6.6254   -1.7302 H         1 <0>         0.4332
@<TRIPOS>BOND
     1    1    2 1
     2    1   15 1
     3    1   16 1
     4    1   17 1
     5    2    3 2
     6    2   29 1
     7    3    4 1
     8    3    5 1
     9    4   18 1
    10    4   19 1
    11    5    6 1
    12    5   20 1
    13    6    7 1
    14    6   21 1
    15    6   22 1
    16    7    8 1
    17    7   23 1
    18    7   24 1
    19    8    9 1
    20    8   25 1
    21    8   26 1
    22    9   10 1
    23    9   11 1
    24    9   14 1
    25   11   12 2
    26   11   13 1
    27   14   27 1
    28   14   28 1
    29   14   30 1
@<TRIPOS>MOLECULE
ZINC03874404
   30    29     0     0     0
SMALL
USER_CHARGES
2-amino-5-(amino-methylimino-methyl)amino-pentanoic acid
@<TRIPOS>ATOM
      1 C1         -0.7711    1.5979   -7.4623 C.3       1 <0>         0.0585
      2 C2         -0.1175    1.1516   -5.1302 C.cat     1 <0>         0.7312
      3 N1          0.9602    0.4110   -5.5548 N.pl3     1 <0>        -0.8003
      4 N2         -0.3526    1.3147   -3.7855 N.pl3     1 <0>        -0.7002
      5 C3          0.5452    0.6992   -2.8050 C.3       1 <0>         0.0939
      6 C4          0.0625    1.0325   -1.3918 C.3       1 <0>        -0.1459
      7 C5          1.0001    0.3897   -0.3679 C.3       1 <0>        -0.1246
      8 C6          0.5175    0.7229    1.0452 C.3       1 <0>        -0.0175
      9 H1          0.4306    1.8040    1.1541 H         1 <0>         0.1417
     10 C7          1.5070    0.1946    2.0517 C.2       1 <0>         0.4490
     11 O1          1.2878   -0.8458    2.6257 O.co2     1 <0>        -0.6091
     12 H2         -0.8182    0.5501   -7.7591 H         1 <0>         0.0940
     13 H3         -1.5754    2.1498   -7.9487 H         1 <0>         0.1126
     14 H4          0.1896    2.0173   -7.7608 H         1 <0>         0.0944
     15 H5          1.5545    0.0034   -4.9056 H         1 <0>         0.4390
     16 H6          1.1260    0.2959   -6.5035 H         1 <0>         0.4382
     17 H7         -1.1129    1.8374   -3.4860 H         1 <0>         0.4330
     18 H8          1.5550    1.0852   -2.9445 H         1 <0>         0.0991
     19 H9          0.5472   -0.3820   -2.9427 H         1 <0>         0.0950
     20 H10        -0.9473    0.6466   -1.2524 H         1 <0>         0.0727
     21 H11         0.0605    2.1137   -1.2541 H         1 <0>         0.0948
     22 H12         1.0022   -0.6916   -0.5056 H         1 <0>         0.0919
     23 H13         2.0100    0.7756   -0.5073 H         1 <0>         0.1205
     24 H14        -1.4898    0.4859    0.6540 H         1 <0>         0.4147
     25 H15        -0.7393   -0.9022    1.1792 H         1 <0>         0.4360
     26 N3         -0.9713    1.7371   -5.9787 N.pl3     1 <0>        -0.6871
     27 H16        -1.7630    2.2814   -5.6163 H         1 <0>         0.4541
     28 O2          2.6318    0.8799    2.3104 O.co2     1 <0>        -0.6945
     29 N4         -0.7974    0.1078    1.2984 N.4       1 <0>        -0.6281
     30 H17        -1.0874    0.3153    2.2613 H         1 <0>         0.4430
@<TRIPOS>BOND
     1    1   12 1
     2    1   13 1
     3    1   14 1
     4    1   26 1
     5    2    3 1
     6    2    4 1
     7    2   26 2
     8    3   15 1
     9    3   16 1
    10    4    5 1
    11    4   17 1
    12    5    6 1
    13    5   18 1
    14    5   19 1
    15    6    7 1
    16    6   20 1
    17    6   21 1
    18    7    8 1
    19    7   22 1
    20    7   23 1
    21    8    9 1
    22    8   10 1
    23    8   29 1
    24   10   11 2
    25   10   28 1
    26   24   29 1
    27   25   29 1
    28   26   27 1
    29   29   30 1
@<TRIPOS>MOLECULE
ZINC03806245
   15    14     0     0     0
SMALL
USER_CHARGES

@<TRIPOS>ATOM
      1 C1         -0.0187    1.5258    0.0104 C.3       1 <0>        -0.1480
      2 C2          0.0021   -0.0041    0.0020 C.3       1 <0>        -0.1306
      3 S1         -1.6997   -0.6320    0.0149 S.3       1 <0>         0.0512
      4 C3         -1.5080   -2.3834    0.0037 C.cat     1 <0>         0.4860
      5 N1         -2.4237   -3.1579    0.5855 N.pl3     1 <0>        -0.7373
      6 N2         -0.4472   -2.9340   -0.5867 N.pl3     1 <0>        -0.7652
      7 H1          1.0039    1.9031    0.0027 H         1 <0>         0.1024
      8 H2         -0.5459    1.8868   -0.8726 H         1 <0>         0.0793
      9 H3         -0.5289    1.8773    0.9072 H         1 <0>         0.0802
     10 H4          0.5123   -0.3556   -0.8948 H         1 <0>         0.1073
     11 H5          0.5293   -0.3651    0.8851 H         1 <0>         0.1162
     12 H6         -3.1956   -2.7573    1.0150 H         1 <0>         0.4513
     13 H7          0.2192   -2.3704   -1.0100 H         1 <0>         0.4430
     14 H8         -0.3416   -3.8982   -0.5929 H         1 <0>         0.4314
     15 H9         -2.3181   -4.1222    0.5793 H         1 <0>         0.4328
@<TRIPOS>BOND
     1    1    2 1
     2    1    7 1
     3    1    8 1
     4    1    9 1
     5    2    3 1
     6    2   10 1
     7    2   11 1
     8    3    4 1
     9    4    5 2
    10    4    6 1
    11    5   12 1
    12    5   15 1
    13    6   13 1
    14    6   14 1
@<TRIPOS>MOLECULE
ZINC01677684
   29    28     0     0     0
SMALL
USER_CHARGES

@<TRIPOS>ATOM
      1 C1          0.0902    1.6092   -0.3734 C.3       1 <0>        -0.1649
      2 C2          0.1586    0.1092   -0.6673 C.3       1 <0>        -0.1253
      3 C3         -1.2588   -0.4443   -0.8274 C.3       1 <0>        -0.0511
      4 H1         -1.7868    0.1248   -1.5924 H         1 <0>         0.1389
      5 C4         -1.1891   -1.8928   -1.2373 C.2       1 <0>         0.4841
      6 O1         -1.1632   -2.7664   -0.3872 O.co2     1 <0>        -0.6606
      7 O2         -1.1585   -2.1911   -2.4191 O.co2     1 <0>        -0.6236
      8 N1         -1.9759   -0.3308    0.4497 N.4       1 <0>        -0.6167
      9 C5          1.5075    2.1627   -0.2134 C.3       1 <0>         0.0826
     10 N2          1.4420    3.5989    0.0680 N.pl3     1 <0>        -0.4646
     11 C6          1.3699    4.0399    1.3608 C.cat     1 <0>         0.7509
     12 N3          1.4280    5.3444    1.6237 N.pl3     1 <0>        -0.7547
     13 N4          1.2417    3.1650    2.3568 N.pl3     1 <0>        -0.7655
     14 N5          1.4533    4.5206   -0.9870 N.pl3     1 <0>         0.1828
     15 O3          1.4044    4.1312   -2.1305 O.2       1 <0>        -0.0208
     16 O4          1.5118    5.7055   -0.7539 O.3       1 <0>        -0.1410
     17 H2         -0.4079    2.1187   -1.1983 H         1 <0>         0.1042
     18 H3         -0.4703    1.7739    0.5468 H         1 <0>         0.0659
     19 H4          0.7191   -0.0555   -1.5876 H         1 <0>         0.1242
     20 H5          0.6566   -0.4003    0.1576 H         1 <0>         0.0962
     21 H6         -2.0225    0.6390    0.7242 H         1 <0>         0.4052
     22 H7         -2.9106   -0.6958    0.3441 H         1 <0>         0.4390
     23 H8          2.0056    1.6532    0.6115 H         1 <0>         0.1334
     24 H9          2.0680    1.9979   -1.1336 H         1 <0>         0.1518
     25 H10         1.4299    5.9861    0.8963 H         1 <0>         0.4514
     26 H11         1.1994    2.2150    2.1654 H         1 <0>         0.4430
     27 H12         1.1905    3.4777    3.2736 H         1 <0>         0.4546
     28 H13         1.4683    5.6527    2.5425 H         1 <0>         0.4466
     29 H14        -1.4870   -0.8577    1.1579 H         1 <0>         0.4340
@<TRIPOS>BOND
     1    1    2 1
     2    1    9 1
     3    1   17 1
     4    1   18 1
     5    2    3 1
     6    2   19 1
     7    2   20 1
     8    3    4 1
     9    3    5 1
    10    3    8 1
    11    5    6 2
    12    5    7 1
    13    8   21 1
    14    8   22 1
    15    8   29 1
    16    9   10 1
    17    9   23 1
    18    9   24 1
    19   10   11 1
    20   10   14 1
    21   11   12 2
    22   11   13 1
    23   12   25 1
    24   12   28 1
    25   13   26 1
    26   13   27 1
    27   14   15 2
    28   14   16 1
@<TRIPOS>MOLECULE
ZINC04676170
   12    11     0     0     0
SMALL
USER_CHARGES

@<TRIPOS>ATOM
      1 C1         -0.0225    1.8097    0.0120 C.3       1 <0>        -0.1738
      2 S1          0.0021   -0.0041    0.0020 S.3       1 <0>         0.0636
      3 C2          0.8484   -0.4107   -1.4889 C.cat     1 <0>         0.4827
      4 N1          1.5654   -1.5320   -1.5638 N.pl3     1 <0>        -0.7368
      5 N2          0.7718    0.4029   -2.5420 N.pl3     1 <0>        -0.7652
      6 H1          1.0001    2.1870    0.0043 H         1 <0>         0.1138
      7 H2         -0.5497    2.1708   -0.8711 H         1 <0>         0.1054
      8 H3         -0.5327    2.1613    0.9088 H         1 <0>         0.1513
      9 H4          1.6212   -2.1241   -0.7975 H         1 <0>         0.4514
     10 H5          0.2501    1.2189   -2.4875 H         1 <0>         0.4431
     11 H6          1.2377    0.1791   -3.3628 H         1 <0>         0.4315
     12 H7          2.0313   -1.7558   -2.3846 H         1 <0>         0.4330
@<TRIPOS>BOND
     1    1    2 1
     2    1    6 1
     3    1    7 1
     4    1    8 1
     5    2    3 1
     6    3    4 2
     7    3    5 1
     8    4    9 1
     9    4   12 1
    10    5   10 1
    11    5   11 1
@<TRIPOS>MOLECULE
ZINC18354955
   13    13     0     0     0
SMALL
USER_CHARGES

@<TRIPOS>ATOM
      1 C1         -0.0176    1.4473    0.0100 C.3       1 <0>         0.0711
      2 C2          1.4234    2.0262   -0.0007 C.3       1 <0>        -0.1071
      3 S1          2.2887    0.5781   -0.7452 S.3       1 <0>         0.0321
      4 C3          1.0642   -0.6637   -0.3628 C.cat     1 <0>         0.4903
      5 N1          0.0021   -0.0041    0.0020 N.pl3     1 <0>        -0.6392
      6 N2          1.2115   -2.0294   -0.4377 N.pl3     1 <0>        -0.7450
      7 H1         -0.5355    1.7932    0.9046 H         1 <0>         0.1420
      8 H2         -0.5524    1.8027   -0.8708 H         1 <0>         0.1315
      9 H3          1.4969    2.9083   -0.6368 H         1 <0>         0.1650
     10 H4          1.7808    2.2320    1.0083 H         1 <0>         0.1411
     11 H5          2.0558   -2.4112   -0.7246 H         1 <0>         0.4523
     12 H6          0.4710   -2.6107   -0.2036 H         1 <0>         0.4350
     13 H7         -0.7910   -0.4920    0.2736 H         1 <0>         0.4308
@<TRIPOS>BOND
     1    1    5 1
     2    1    2 1
     3    1    7 1
     4    1    8 1
     5    2    3 1
     6    2    9 1
     7    2   10 1
     8    3    4 1
     9    4    5 2
    10    4    6 1
    11    5   13 1
    12    6   11 1
    13    6   12 1
@<TRIPOS>MOLECULE
ZINC28378768
   24    24     0     0     0
SMALL
USER_CHARGES
(4R,5R)-4-ethyl-5-methyl-4,5-dihydro-3H-pyrrol-2-amine
@<TRIPOS>ATOM
      1 C1         -0.0127    1.0858    0.0080 C.3       1 <0>        -0.1630
      2 C2         -0.7288    1.5792    1.2668 C.3       1 <0>        -0.1327
      3 C3          0.0111    1.0724    2.5063 C.3       1 <0>        -0.1023
      4 H1          1.0479    1.4104    2.3623 H         1 <0>         0.1332
      5 C4         -0.1552   -0.4580    2.6682 C.3       1 <0>        -0.1319
      6 C5         -1.3382   -0.5975    3.6004 C.cat     1 <0>         0.5157
      7 N1         -1.5892    0.5150    4.1972 N.pl3     1 <0>        -0.6259
      8 C6         -0.6602    1.5817    3.8030 C.3       1 <0>         0.1198
      9 H2          0.0505    1.7756    4.6199 H         1 <0>         0.1233
     10 C7         -1.4243    2.8790    3.5311 C.3       1 <0>        -0.1787
     11 N2         -2.0485   -1.7544    3.7848 N.pl3     1 <0>        -0.8127
     12 H3         -0.5447    1.4502   -0.8831 H         1 <0>         0.0680
     13 H4          0.0022   -0.0141    0.0020 H         1 <0>         0.0565
     14 H5          1.0193    1.4665    0.0002 H         1 <0>         0.0656
     15 H6         -0.7437    2.6791    1.2728 H         1 <0>         0.0876
     16 H7         -1.7608    1.1985    1.2746 H         1 <0>         0.0617
     17 H8         -0.3454   -0.9122    1.6846 H         1 <0>         0.1341
     18 H9          0.7641   -0.8834    3.0969 H         1 <0>         0.1408
     19 H10        -1.8958    3.2287    4.4614 H         1 <0>         0.0750
     20 H11        -2.2002    2.6956    2.7732 H         1 <0>         0.0760
     21 H12        -0.7263    3.6454    3.1632 H         1 <0>         0.0978
     22 H13        -2.8983   -1.7727    4.4831 H         1 <0>         0.4546
     23 H14        -1.7690   -2.6650    3.2346 H         1 <0>         0.4743
     24 H15        -2.4243    0.5805    4.9101 H         1 <0>         0.4632
@<TRIPOS>BOND
     1    1    2 1
     2    1   12 1
     3    1   13 1
     4    1   14 1
     5    2    3 1
     6    2   15 1
     7    2   16 1
     8    3    4 1
     9    3    8 1
    10    3    5 1
    11    5    6 1
    12    5   17 1
    13    5   18 1
    14    6    7 2
    15    6   11 1
    16    7    8 1
    17    7   24 1
    18    8    9 1
    19    8   10 1
    20   10   19 1
    21   10   20 1
    22   10   21 1
    23   11   22 1
    24   11   23 1
@<TRIPOS>MOLECULE
ZINC28378775
   24    24     0     0     0
SMALL
USER_CHARGES
(4S,5R)-4-ethyl-5-methyl-4,5-dihydro-3H-pyrrol-2-amine
@<TRIPOS>ATOM
      1 C1          0.0021   -0.0041    0.0020 C.3       1 <0>        -0.1624
      2 C2         -0.0187    1.5258    0.0104 C.3       1 <0>        -0.1249
      3 C3         -0.7348    2.0192    1.2692 C.3       1 <0>        -0.1020
      4 H1         -1.7102    1.5113    1.2450 H         1 <0>         0.1201
      5 C4          0.1095    1.7411    2.5364 C.3       1 <0>        -0.1299
      6 C5         -0.1125    2.9658    3.3960 C.cat     1 <0>         0.5159
      7 N1         -0.6095    3.9310    2.7045 N.pl3     1 <0>        -0.6268
      8 C6         -0.8112    3.5635    1.2976 C.3       1 <0>         0.1186
      9 H2         -0.0493    4.0535    0.6736 H         1 <0>         0.1232
     10 C7         -2.1842    4.0362    0.8158 C.3       1 <0>        -0.1758
     11 N2          0.1765    3.0378    4.7332 N.pl3     1 <0>        -0.8126
     12 H3          0.5170   -0.3588   -0.9030 H         1 <0>         0.0693
     13 H4         -1.0299   -0.3849    0.0098 H         1 <0>         0.0625
     14 H5          0.5342   -0.3684    0.8932 H         1 <0>         0.0579
     15 H6          1.0133    1.9066    0.0026 H         1 <0>         0.0724
     16 H7         -0.5507    1.8902   -0.8808 H         1 <0>         0.0834
     17 H8         -0.2499    0.8219    3.0220 H         1 <0>         0.1329
     18 H9          1.1654    1.6177    2.2537 H         1 <0>         0.1406
     19 H10        -2.2234    5.1352    0.8415 H         1 <0>         0.0761
     20 H11        -2.9648    3.6259    1.4734 H         1 <0>         0.0726
     21 H12        -2.3515    3.6873   -0.2139 H         1 <0>         0.0971
     22 H13        -0.0152    3.9681    5.2880 H         1 <0>         0.4546
     23 H14         0.6002    2.1653    5.2521 H         1 <0>         0.4744
     24 H15        -0.8316    4.8949    3.1857 H         1 <0>         0.4630
@<TRIPOS>BOND
     1    1    2 1
     2    1   12 1
     3    1   13 1
     4    1   14 1
     5    2    3 1
     6    2   15 1
     7    2   16 1
     8    3    4 1
     9    3    8 1
    10    3    5 1
    11    5    6 1
    12    5   17 1
    13    5   18 1
    14    6    7 2
    15    6   11 1
    16    7    8 1
    17    7   24 1
    18    8    9 1
    19    8   10 1
    20   10   19 1
    21   10   20 1
    22   10   21 1
    23   11   22 1
    24   11   23 1
@<TRIPOS>MOLECULE
ZINC28378781
   24    24     0     0     0
SMALL
USER_CHARGES
(4R,5S)-4-ethyl-5-methyl-4,5-dihydro-3H-pyrrol-2-amine
@<TRIPOS>ATOM
      1 C1         -2.4736   -0.2337   -0.2447 C.3       1 <0>        -0.1625
      2 C2         -1.1193   -0.5657   -0.8744 C.3       1 <0>        -0.1249
      3 C3          0.0021   -0.0041    0.0020 C.3       1 <0>        -0.1018
      4 H1         -0.1585   -0.4728    0.9841 H         1 <0>         0.1201
      5 C4         -0.0189    1.5436    0.0105 C.3       1 <0>        -0.1300
      6 C5          1.4445    1.9261   -0.0014 C.cat     1 <0>         0.5158
      7 N1          2.1798    0.9274   -0.3457 N.pl3     1 <0>        -0.6266
      8 C6          1.3890   -0.2767   -0.6253 C.3       1 <0>         0.1184
      9 H2          1.3544   -0.4522   -1.7107 H         1 <0>         0.1230
     10 C7          2.0347   -1.5015    0.0256 C.3       1 <0>        -0.1757
     11 N2          1.9238    3.1705    0.3127 N.pl3     1 <0>        -0.8126
     12 H3         -3.2798   -0.6375   -0.8748 H         1 <0>         0.0694
     13 H4         -2.5828    0.8579   -0.1643 H         1 <0>         0.0578
     14 H5         -2.5318   -0.6828    0.7577 H         1 <0>         0.0625
     15 H6         -1.0101   -1.6573   -0.9548 H         1 <0>         0.0836
     16 H7         -1.0610   -0.1166   -1.8768 H         1 <0>         0.0722
     17 H8         -0.5509    1.9080   -0.8807 H         1 <0>         0.1406
     18 H9         -0.5338    1.8984    0.9155 H         1 <0>         0.1329
     19 H10         3.0192   -1.6827   -0.4303 H         1 <0>         0.0761
     20 H11         1.3917   -2.3805   -0.1288 H         1 <0>         0.0971
     21 H12         2.1574   -1.3218    1.1039 H         1 <0>         0.0726
     22 H13         3.0055    3.3677    0.2796 H         1 <0>         0.4546
     23 H14         1.2270    3.9724    0.5980 H         1 <0>         0.4744
     24 H15         3.2724    1.0421   -0.4012 H         1 <0>         0.4631
@<TRIPOS>BOND
     1    1    2 1
     2    1   12 1
     3    1   13 1
     4    1   14 1
     5    2    3 1
     6    2   15 1
     7    2   16 1
     8    3    4 1
     9    3    8 1
    10    3    5 1
    11    5    6 1
    12    5   17 1
    13    5   18 1
    14    6    7 2
    15    6   11 1
    16    7    8 1
    17    7   24 1
    18    8    9 1
    19    8   10 1
    20   10   19 1
    21   10   20 1
    22   10   21 1
    23   11   22 1
    24   11   23 1
@<TRIPOS>MOLECULE
ZINC28378787
   24    24     0     0     0
SMALL
USER_CHARGES
(4S,5S)-4-ethyl-5-methyl-4,5-dihydro-3H-pyrrol-2-amine
@<TRIPOS>ATOM
      1 C1          2.3850    0.0138   -3.0597 C.3       1 <0>        -0.1627
      2 C2          1.7556    0.5124   -1.7574 C.3       1 <0>        -0.1336
      3 C3          0.7527   -0.5238   -1.2462 C.3       1 <0>        -0.1021
      4 H1          0.1112   -0.7334   -2.1149 H         1 <0>         0.1335
      5 C4          1.4786   -1.7601   -0.6586 C.3       1 <0>        -0.1313
      6 C5          1.5693   -1.4593    0.8211 C.cat     1 <0>         0.5155
      7 N1          0.7651   -0.5093    1.1491 N.pl3     1 <0>        -0.6255
      8 C6          0.0021   -0.0041    0.0020 C.3       1 <0>         0.1193
      9 H2         -1.0381   -0.3560    0.0666 H         1 <0>         0.1230
     10 C7         -0.0187    1.5258    0.0104 C.3       1 <0>        -0.1787
     11 N2          2.3979   -2.1111    1.6960 N.pl3     1 <0>        -0.8127
     12 H3          3.1060    0.7588   -3.4272 H         1 <0>         0.0677
     13 H4          1.5978   -0.1373   -3.8130 H         1 <0>         0.0654
     14 H5          2.9037   -0.9385   -2.8752 H         1 <0>         0.0568
     15 H6          2.5428    0.6635   -1.0041 H         1 <0>         0.0617
     16 H7          1.2370    1.4648   -1.9419 H         1 <0>         0.0879
     17 H8          0.8865   -2.6644   -0.8629 H         1 <0>         0.1407
     18 H9          2.4705   -1.8584   -1.1239 H         1 <0>         0.1336
     19 H10        -0.5552    1.8803    0.9029 H         1 <0>         0.0750
     20 H11        -0.5291    1.8905   -0.8932 H         1 <0>         0.0979
     21 H12         1.0132    1.9064    0.0276 H         1 <0>         0.0762
     22 H13         2.4039   -1.8315    2.7598 H         1 <0>         0.4546
     23 H14         3.0572   -2.9141    1.3346 H         1 <0>         0.4743
     24 H15         0.7126   -0.1693    2.1939 H         1 <0>         0.4634
@<TRIPOS>BOND
     1    1    2 1
     2    1   12 1
     3    1   13 1
     4    1   14 1
     5    2    3 1
     6    2   15 1
     7    2   16 1
     8    3    4 1
     9    3    8 1
    10    3    5 1
    11    5    6 1
    12    5   17 1
    13    5   18 1
    14    6    7 2
    15    6   11 1
    16    7    8 1
    17    7   24 1
    18    8    9 1
    19    8   10 1
    20   10   19 1
    21   10   20 1
    22   10   21 1
    23   11   22 1
    24   11   23 1
