@<TRIPOS>MOLECULE
ZINC19796052
   28    27     0     0     0
SMALL
USER_CHARGES

@<TRIPOS>ATOM
      1 C1         -0.0117    1.5287   -0.1466 C.3       1 <0>        -0.1446
      2 C2          0.0130    0.0014   -0.2331 C.3       1 <0>        -0.1246
      3 C3         -1.4208   -0.5325   -0.2382 C.3       1 <0>        -0.0498
      4 H1         -1.9814   -0.0605   -1.0450 H         1 <0>         0.1365
      5 C4         -1.4005   -2.0248   -0.4467 C.2       1 <0>         0.4883
      6 O1         -1.7056   -2.7722    0.4670 O.co2     1 <0>        -0.6698
      7 O2         -1.0790   -2.4848   -1.5291 O.co2     1 <0>        -0.6325
      8 N1         -2.0618   -0.2264    1.0477 N.4       1 <0>        -0.6145
      9 C5          1.4221    2.0625   -0.1416 C.3       1 <0>         0.1026
     10 N2          1.3984    3.5250   -0.0588 N.pl3     1 <0>        -0.6811
     11 C6          2.5553    4.2182   -0.0399 C.2       1 <0>         0.7149
     12 N3          3.7340    3.5650   -0.0974 N.pl3     1 <0>        -0.8398
     13 N4          2.5335    5.5627    0.0362 N.2       1 <0>        -0.5046
     14 N5          3.6342    6.2311   -0.0411 N.pl3     1 <0>         0.1932
     15 O3          4.0483    6.6853   -1.2058 O.2       1 <0>        -0.2350
     16 O4          4.3437    6.4591    1.0447 O.3       1 <0>        -0.2457
     17 H2         -0.5468    1.9327   -1.0060 H         1 <0>         0.0930
     18 H3         -0.5157    1.8325    0.7708 H         1 <0>         0.0705
     19 H4          0.5171   -0.3025   -1.1506 H         1 <0>         0.1174
     20 H5          0.5481   -0.4026    0.6263 H         1 <0>         0.0885
     21 H6         -1.5428   -0.6633    1.7946 H         1 <0>         0.4324
     22 H7         -2.0754    0.7728    1.1873 H         1 <0>         0.4115
     23 H8          1.9572    1.6586    0.7178 H         1 <0>         0.0859
     24 H9          1.9262    1.7587   -1.0591 H         1 <0>         0.0912
     25 H10         0.5508    3.9948   -0.0175 H         1 <0>         0.4331
     26 H11         3.7538    2.5960   -0.0591 H         1 <0>         0.4203
     27 H12         4.5618    4.0643   -0.1769 H         1 <0>         0.4280
     28 H13        -3.0073   -0.5784    1.0444 H         1 <0>         0.4349
@<TRIPOS>BOND
     1    1    2 1
     2    1    9 1
     3    1   17 1
     4    1   18 1
     5    2    3 1
     6    2   19 1
     7    2   20 1
     8    3    4 1
     9    3    5 1
    10    3    8 1
    11    5    6 2
    12    5    7 1
    13    8   21 1
    14    8   22 1
    15    8   28 1
    16    9   10 1
    17    9   23 1
    18    9   24 1
    19   10   11 1
    20   10   25 1
    21   11   12 1
    22   11   13 2
    23   12   26 1
    24   12   27 1
    25   13   14 1
    26   14   15 2
    27   14   16 1
@<TRIPOS>MOLECULE
ZINC19796052
   27    26     0     0     0
SMALL
USER_CHARGES

@<TRIPOS>ATOM
      1 C1         -0.0187    1.5258    0.0104 C.3       1 <0>        -0.1050
      2 C2          0.0021   -0.0041    0.0020 C.3       1 <0>        -0.1256
      3 C3         -1.4333   -0.5336    0.0129 C.3       1 <0>        -0.0468
      4 H1         -1.9862   -0.1019   -0.8214 H         1 <0>         0.1327
      5 C4         -1.4159   -2.0348   -0.1192 C.2       1 <0>         0.4921
      6 O1         -1.7304   -2.7338    0.8289 O.co2     1 <0>        -0.6808
      7 O2         -1.0874   -2.5501   -1.1742 O.co2     1 <0>        -0.6408
      8 N1         -2.0833   -0.1607    1.2764 N.4       1 <0>        -0.6128
      9 C5          1.4167    2.0553   -0.0004 C.3       1 <0>         0.0578
     10 N2          1.3968    3.5202    0.0076 N.2       1 <0>        -0.6142
     11 C6          2.5556    4.2104    0.0003 C.2       1 <0>         0.5440
     12 N3          3.7327    3.5520   -0.0145 N.pl3     1 <0>        -0.8545
     13 N4          2.5374    5.5571    0.0077 N.2       1 <0>        -0.4280
     14 N5          1.4116    6.1868    0.0218 N.pl3     1 <0>         0.2692
     15 O3          0.2801    5.5129    0.0290 O.2       1 <0>        -0.3868
     16 O4          1.3938    7.5037    0.0290 O.3       1 <0>        -0.4347
     17 H2         -0.5459    1.8868   -0.8726 H         1 <0>         0.0743
     18 H3         -0.5289    1.8773    0.9072 H         1 <0>         0.0541
     19 H4          0.5123   -0.3556   -0.8948 H         1 <0>         0.1045
     20 H5          0.5293   -0.3651    0.8851 H         1 <0>         0.0750
     21 H6         -2.0949    0.8443    1.3648 H         1 <0>         0.4188
     22 H7         -3.0299   -0.5100    1.2835 H         1 <0>         0.4273
     23 H8          1.9439    1.6943    0.8826 H         1 <0>         0.0266
     24 H9          1.9269    1.7038   -0.8972 H         1 <0>         0.0313
     25 H10         3.7459    2.5821   -0.0198 H         1 <0>         0.4001
     26 H11         4.5661    4.0484   -0.0198 H         1 <0>         0.3937
     27 H12        -1.5715   -0.5604    2.0487 H         1 <0>         0.4287
@<TRIPOS>BOND
     1    1    2 1
     2    1    9 1
     3    1   17 1
     4    1   18 1
     5    2    3 1
     6    2   19 1
     7    2   20 1
     8    3    4 1
     9    3    5 1
    10    3    8 1
    11    5    6 2
    12    5    7 1
    13    8   21 1
    14    8   22 1
    15    8   27 1
    16    9   10 1
    17    9   23 1
    18    9   24 1
    19   10   11 1
    20   11   12 1
    21   11   13 2
    22   12   25 1
    23   12   26 1
    24   13   14 1
    25   14   15 2
    26   14   16 1
@<TRIPOS>MOLECULE
ZINC01529776
   30    29     0     0     0
SMALL
USER_CHARGES

@<TRIPOS>ATOM
      1 C1         -0.0178    1.4608    0.0101 C.3       1 <0>         0.0551
      2 N1          0.0021   -0.0041    0.0020 N.pl3     1 <0>        -0.6967
      3 C2          0.5968   -0.6778   -1.0385 C.cat     1 <0>         0.7320
      4 N2          1.1429   -0.0132   -2.0177 N.pl3     1 <0>        -0.7705
      5 N3          0.6154   -2.0524   -1.0460 N.pl3     1 <0>        -0.7005
      6 C3          1.2492   -2.7703   -2.1547 C.3       1 <0>         0.0939
      7 C4          1.1321   -4.2776   -1.9196 C.3       1 <0>        -0.1464
      8 C5          1.7939   -5.0273   -3.0775 C.3       1 <0>        -0.1250
      9 C6          1.6769   -6.5346   -2.8423 C.3       1 <0>        -0.0511
     10 H1          0.6297   -6.7992   -2.6953 H         1 <0>         0.1370
     11 C7          2.2183   -7.2733   -4.0391 C.2       1 <0>         0.4860
     12 O1          3.2648   -7.8927   -3.9510 O.co2     1 <0>        -0.6645
     13 O2          1.6099   -7.2515   -5.0955 O.co2     1 <0>        -0.6296
     14 N4          2.4479   -6.9052   -1.6482 N.4       1 <0>        -0.6147
     15 H2          1.0048    1.8381    0.0023 H         1 <0>         0.0856
     16 H3         -0.5450    1.8219   -0.8730 H         1 <0>         0.0860
     17 H4         -0.5280    1.8123    0.9069 H         1 <0>         0.1178
     18 H5         -0.4044   -0.4986    0.7308 H         1 <0>         0.4371
     19 H6          1.5625   -0.4885   -2.7518 H         1 <0>         0.4413
     20 H7          0.2090   -2.5470   -0.3173 H         1 <0>         0.4341
     21 H8          0.7517   -2.5086   -3.0886 H         1 <0>         0.0993
     22 H9          2.3015   -2.4924   -2.2133 H         1 <0>         0.0954
     23 H10         1.6295   -4.5394   -0.9857 H         1 <0>         0.0726
     24 H11         0.0798   -4.5556   -1.8610 H         1 <0>         0.0947
     25 H12         1.2965   -4.7656   -4.0114 H         1 <0>         0.1189
     26 H13         2.8463   -4.7494   -3.1361 H         1 <0>         0.0903
     27 H14         2.0854   -6.4107   -0.8469 H         1 <0>         0.4084
     28 H15         2.3707   -7.8993   -1.4931 H         1 <0>         0.4382
     29 H16         1.1298    0.9567   -2.0124 H         1 <0>         0.4423
     30 H17         3.4172   -6.6604   -1.7843 H         1 <0>         0.4331
@<TRIPOS>BOND
     1    1    2 1
     2    1   15 1
     3    1   16 1
     4    1   17 1
     5    2    3 1
     6    2   18 1
     7    3    4 2
     8    3    5 1
     9    4   19 1
    10    4   29 1
    11    5    6 1
    12    5   20 1
    13    6    7 1
    14    6   21 1
    15    6   22 1
    16    7    8 1
    17    7   23 1
    18    7   24 1
    19    8    9 1
    20    8   25 1
    21    8   26 1
    22    9   10 1
    23    9   11 1
    24    9   14 1
    25   11   12 2
    26   11   13 1
    27   14   27 1
    28   14   28 1
    29   14   30 1
@<TRIPOS>MOLECULE
ZINC03874402
   30    29     0     0     0
SMALL
USER_CHARGES

@<TRIPOS>ATOM
      1 C1         -0.0178    1.4608    0.0101 C.3       1 <0>         0.0454
      2 N1          0.0021   -0.0041    0.0020 N.pl3     1 <0>        -0.6589
      3 C2          0.5659   -0.6428   -0.9844 C.cat     1 <0>         0.7310
      4 N2          1.1420    0.0582   -2.0173 N.pl3     1 <0>        -0.8093
      5 N3          0.5845   -2.0175   -0.9920 N.pl3     1 <0>        -0.7009
      6 C3          1.2183   -2.7353   -2.1007 C.3       1 <0>         0.0965
      7 C4          1.1012   -4.2426   -1.8656 C.3       1 <0>        -0.1470
      8 C5          1.7630   -4.9924   -3.0235 C.3       1 <0>        -0.1248
      9 C6          1.6460   -6.4996   -2.7883 C.3       1 <0>        -0.0511
     10 H1          0.5989   -6.7642   -2.6413 H         1 <0>         0.1368
     11 C7          2.1874   -7.2383   -3.9851 C.2       1 <0>         0.4860
     12 O1          3.2339   -7.8577   -3.8970 O.co2     1 <0>        -0.6647
     13 O2          1.5790   -7.2165   -5.0414 O.co2     1 <0>        -0.6296
     14 N4          2.4170   -6.8703   -1.5941 N.4       1 <0>        -0.6147
     15 H2          1.0048    1.8381    0.0023 H         1 <0>         0.0938
     16 H3         -0.5450    1.8219   -0.8730 H         1 <0>         0.0941
     17 H4         -0.5280    1.8123    0.9069 H         1 <0>         0.1205
     18 H5          1.1288    1.0281   -2.0120 H         1 <0>         0.4381
     19 H6          1.5616   -0.4171   -2.7514 H         1 <0>         0.4371
     20 H7          0.1781   -2.5120   -0.2632 H         1 <0>         0.4333
     21 H8          0.7208   -2.4736   -3.0346 H         1 <0>         0.0989
     22 H9          2.2706   -2.4574   -2.1593 H         1 <0>         0.0949
     23 H10         1.5986   -4.5044   -0.9317 H         1 <0>         0.0719
     24 H11         0.0489   -4.5206   -1.8070 H         1 <0>         0.0940
     25 H12         1.2656   -4.7306   -3.9574 H         1 <0>         0.1188
     26 H13         2.8154   -4.7144   -3.0820 H         1 <0>         0.0902
     27 H14         2.0545   -6.3757   -0.7928 H         1 <0>         0.4083
     28 H15         2.3398   -7.8643   -1.4390 H         1 <0>         0.4381
     29 H16        -0.4044   -0.4986    0.7308 H         1 <0>         0.4402
     30 H17         3.3864   -6.6254   -1.7302 H         1 <0>         0.4332
@<TRIPOS>BOND
     1    1    2 1
     2    1   15 1
     3    1   16 1
     4    1   17 1
     5    2    3 2
     6    2   29 1
     7    3    4 1
     8    3    5 1
     9    4   18 1
    10    4   19 1
    11    5    6 1
    12    5   20 1
    13    6    7 1
    14    6   21 1
    15    6   22 1
    16    7    8 1
    17    7   23 1
    18    7   24 1
    19    8    9 1
    20    8   25 1
    21    8   26 1
    22    9   10 1
    23    9   11 1
    24    9   14 1
    25   11   12 2
    26   11   13 1
    27   14   27 1
    28   14   28 1
    29   14   30 1
@<TRIPOS>MOLECULE
ZINC03874404
   30    29     0     0     0
SMALL
USER_CHARGES
2-amino-5-(amino-methylimino-methyl)amino-pentanoic acid
@<TRIPOS>ATOM
      1 C1         -0.7711    1.5979   -7.4623 C.3       1 <0>         0.0585
      2 C2         -0.1175    1.1516   -5.1302 C.cat     1 <0>         0.7312
      3 N1          0.9602    0.4110   -5.5548 N.pl3     1 <0>        -0.8003
      4 N2         -0.3526    1.3147   -3.7855 N.pl3     1 <0>        -0.7002
      5 C3          0.5452    0.6992   -2.8050 C.3       1 <0>         0.0939
      6 C4          0.0625    1.0325   -1.3918 C.3       1 <0>        -0.1459
      7 C5          1.0001    0.3897   -0.3679 C.3       1 <0>        -0.1246
      8 C6          0.5175    0.7229    1.0452 C.3       1 <0>        -0.0175
      9 H1          0.4306    1.8040    1.1541 H         1 <0>         0.1417
     10 C7          1.5070    0.1946    2.0517 C.2       1 <0>         0.4490
     11 O1          1.2878   -0.8458    2.6257 O.co2     1 <0>        -0.6091
     12 H2         -0.8182    0.5501   -7.7591 H         1 <0>         0.0940
     13 H3         -1.5754    2.1498   -7.9487 H         1 <0>         0.1126
     14 H4          0.1896    2.0173   -7.7608 H         1 <0>         0.0944
     15 H5          1.5545    0.0034   -4.9056 H         1 <0>         0.4390
     16 H6          1.1260    0.2959   -6.5035 H         1 <0>         0.4382
     17 H7         -1.1129    1.8374   -3.4860 H         1 <0>         0.4330
     18 H8          1.5550    1.0852   -2.9445 H         1 <0>         0.0991
     19 H9          0.5472   -0.3820   -2.9427 H         1 <0>         0.0950
     20 H10        -0.9473    0.6466   -1.2524 H         1 <0>         0.0727
     21 H11         0.0605    2.1137   -1.2541 H         1 <0>         0.0948
     22 H12         1.0022   -0.6916   -0.5056 H         1 <0>         0.0919
     23 H13         2.0100    0.7756   -0.5073 H         1 <0>         0.1205
     24 H14        -1.4898    0.4859    0.6540 H         1 <0>         0.4147
     25 H15        -0.7393   -0.9022    1.1792 H         1 <0>         0.4360
     26 N3         -0.9713    1.7371   -5.9787 N.pl3     1 <0>        -0.6871
     27 H16        -1.7630    2.2814   -5.6163 H         1 <0>         0.4541
     28 O2          2.6318    0.8799    2.3104 O.co2     1 <0>        -0.6945
     29 N4         -0.7974    0.1078    1.2984 N.4       1 <0>        -0.6281
     30 H17        -1.0874    0.3153    2.2613 H         1 <0>         0.4430
@<TRIPOS>BOND
     1    1   12 1
     2    1   13 1
     3    1   14 1
     4    1   26 1
     5    2    3 1
     6    2    4 1
     7    2   26 2
     8    3   15 1
     9    3   16 1
    10    4    5 1
    11    4   17 1
    12    5    6 1
    13    5   18 1
    14    5   19 1
    15    6    7 1
    16    6   20 1
    17    6   21 1
    18    7    8 1
    19    7   22 1
    20    7   23 1
    21    8    9 1
    22    8   10 1
    23    8   29 1
    24   10   11 2
    25   10   28 1
    26   24   29 1
    27   25   29 1
    28   26   27 1
    29   29   30 1
@<TRIPOS>MOLECULE
ZINC03870920
   17    18     0     0     0
SMALL
USER_CHARGES

@<TRIPOS>ATOM
      1 C1         -0.0168    1.3850    0.0097 C.ar      1 <0>        -0.1565
      2 C2         -1.2007    2.0644    0.0189 C.ar      1 <0>         0.0238
      3 C3         -2.4058    1.3542    0.0208 C.ar      1 <0>        -0.1610
      4 C4         -2.3847   -0.0541    0.0130 C.ar      1 <0>         0.1805
      5 C5         -1.1617   -0.7198    0.0040 C.ar      1 <0>        -0.0724
      6 C6          0.0021   -0.0041    0.0020 C.ar      1 <0>         0.0145
      7 N1         -1.1226   -2.1995   -0.0038 N.pl3     1 <0>         0.0428
      8 O1         -0.0600   -2.7760   -0.0116 O.2       1 <0>        -0.1418
      9 O2         -2.1532   -2.8315   -0.0024 O.3       1 <0>        -0.1839
     10 N2         -3.6911   -0.4684    0.0169 N.pl3     1 <0>        -0.4696
     11 N3         -4.5268    0.6531    0.0270 N.2       1 <0>        -0.1930
     12 H1         -3.9885   -1.3917    0.0128 H         1 <0>         0.4605
     13 C7         -3.8130    1.7431    0.0295 C.2       1 <0>         0.0991
     14 Br1        -4.4803    3.5124    0.0417 Br        1 <0>         0.0749
     15 H2          0.9141    1.9326    0.0037 H         1 <0>         0.1601
     16 H3         -1.2069    3.1444    0.0252 H         1 <0>         0.1553
     17 H4          0.9483   -0.5246   -0.0095 H         1 <0>         0.1670
@<TRIPOS>BOND
     1    1    6 ar
     2    1   15 1
     3    1    2 ar
     4    2   16 1
     5    2    3 ar
     6    3    4 ar
     7    3   13 1
     8    4   10 1
     9    4    5 ar
    10    5    7 1
    11    5    6 ar
    12    6   17 1
    13    7    8 2
    14    7    9 1
    15   10   11 1
    16   10   12 1
    17   11   13 2
    18   13   14 1
@<TRIPOS>MOLECULE
ZINC04217344
   15    15     0     0     0
SMALL
USER_CHARGES

@<TRIPOS>ATOM
      1 C1         -0.0162    1.3469    0.0094 C.2       1 <0>        -0.1875
      2 C2          1.3106    1.7976   -0.0008 C.2       1 <0>         0.1291
      3 N1          2.1001    0.7562   -0.0139 N.2       1 <0>        -0.2737
      4 N2          1.3054   -0.3975   -0.0125 N.pl3     1 <0>        -0.3868
      5 C3          0.0021   -0.0041    0.0020 C.2       1 <0>         0.0448
      6 C4          1.7633   -1.7037   -0.0243 C.cat     1 <0>         0.7853
      7 N3          3.0692   -1.9500   -0.0381 N.pl3     1 <0>        -0.7521
      8 N4          0.8970   -2.7116   -0.0219 N.pl3     1 <0>        -0.7701
      9 H1         -0.8983    1.9699    0.0253 H         1 <0>         0.1871
     10 H2          1.6271    2.8302    0.0017 H         1 <0>         0.2222
     11 H3         -0.8605   -0.6539    0.0073 H         1 <0>         0.2029
     12 H4          3.7015   -1.2144   -0.0398 H         1 <0>         0.4547
     13 H5         -0.0561   -2.5319   -0.0119 H         1 <0>         0.4452
     14 H6          1.2179   -3.6270   -0.0302 H         1 <0>         0.4513
     15 H7          3.3901   -2.8653   -0.0463 H         1 <0>         0.4475
@<TRIPOS>BOND
     1    1    5 2
     2    1    2 1
     3    1    9 1
     4    2    3 2
     5    2   10 1
     6    3    4 1
     7    4    5 1
     8    4    6 1
     9    5   11 1
    10    6    7 2
    11    6    8 1
    12    7   12 1
    13    7   15 1
    14    8   13 1
    15    8   14 1
@<TRIPOS>MOLECULE
ZINC04127238
   17    18     0     0     0
SMALL
USER_CHARGES

@<TRIPOS>ATOM
      1 C1         -0.0168    1.3850    0.0097 C.ar      1 <0>        -0.1128
      2 C2         -1.2006    2.0644    0.0189 C.ar      1 <0>        -0.0267
      3 C3         -2.4059    1.3541    0.0208 C.ar      1 <0>        -0.1431
      4 C4         -3.8125    1.7428    0.0295 C.2       1 <0>         0.0801
      5 N1         -4.5264    0.6535    0.0270 N.2       1 <0>        -0.2235
      6 H1         -3.9888   -1.3916    0.0128 H         1 <0>         0.4481
      7 N2         -3.6911   -0.4684    0.0170 N.pl3     1 <0>        -0.4961
      8 C5         -2.3847   -0.0542    0.0130 C.ar      1 <0>         0.1228
      9 C6         -1.1617   -0.7198    0.0037 C.ar      1 <0>        -0.0667
     10 C7          0.0021   -0.0041    0.0020 C.ar      1 <0>         0.0043
     11 N3          1.2988   -0.7174   -0.0142 N.pl3     1 <0>         0.0298
     12 O1          2.3331   -0.0913   -0.0207 O.2       1 <0>        -0.1439
     13 O2          1.3238   -1.9261   -0.0209 O.3       1 <0>        -0.1558
     14 H2          0.9141    1.9326    0.0037 H         1 <0>         0.1589
     15 H3         -1.2069    3.1444    0.0252 H         1 <0>         0.1558
     16 H4         -4.1935    2.7534    0.0373 H         1 <0>         0.2100
     17 H5         -1.1331   -1.7994   -0.0025 H         1 <0>         0.1588
@<TRIPOS>BOND
     1    1   10 ar
     2    1   14 1
     3    1    2 ar
     4    2   15 1
     5    2    3 ar
     6    3    8 ar
     7    3    4 1
     8    4    5 2
     9    4   16 1
    10    5    7 1
    11    6    7 1
    12    7    8 1
    13    8    9 ar
    14    9   17 1
    15    9   10 ar
    16   10   11 1
    17   11   12 2
    18   11   13 1
@<TRIPOS>MOLECULE
ZINC24687750
   46    48     0     0     0
SMALL
USER_CHARGES

@<TRIPOS>ATOM
      1 C1         -0.2646    1.5888    0.6542 C.ar      1 <0>        -0.1050
      2 C2          0.8961    2.3393    0.6234 C.ar      1 <0>        -0.1103
      3 C3          2.0953    1.7448    0.2785 C.ar      1 <0>        -0.0789
      4 C4          2.1346    0.3993   -0.0364 C.ar      1 <0>        -0.0885
      5 C5          0.9736   -0.3521   -0.0057 C.ar      1 <0>        -0.0349
      6 C6         -0.2265    0.2436    0.3401 C.ar      1 <0>        -0.1064
      7 Cl1         1.0221   -2.0417   -0.4015 Cl        1 <0>        -0.0645
      8 C7          3.3600    2.5635    0.2451 C.3       1 <0>         0.1014
      9 N1          4.0030    2.5254    1.5654 N.3       1 <0>        -0.6856
     10 C8          5.2420    3.3146    1.5705 C.3       1 <0>         0.0649
     11 C9          5.8814    3.2510    2.9590 C.3       1 <0>        -0.0911
     12 C10         7.1524    4.0606    2.9643 C.ar      1 <0>        -0.0534
     13 C11         8.3534    3.4615    2.6312 C.ar      1 <0>        -0.0809
     14 C12         9.5201    4.2006    2.6351 C.ar      1 <0>        -0.1509
     15 C13         9.4861    5.5472    2.9740 C.ar      1 <0>         0.0715
     16 C14         8.2781    6.1459    3.3081 C.ar      1 <0>        -0.1021
     17 C15         7.1143    5.4024    3.2968 C.ar      1 <0>        -0.0838
     18 N2         10.6653    6.2982    2.9794 N.pl3     1 <0>        -0.6058
     19 C16        11.6115    6.1053    1.9917 C.cat     1 <0>         0.6430
     20 N3         11.3554    5.3084    0.9883 N.pl3     1 <0>        -0.7345
     21 C17        12.9074    6.7968    2.0695 C.2       1 <0>        -0.3329
     22 C18        14.1410    6.3937    1.5903 C.2       1 <0>        -0.0240
     23 C19        15.1842    7.2635    1.8162 C.2       1 <0>        -0.1939
     24 C20        14.9433    8.4228    2.4729 C.2       1 <0>        -0.1723
     25 S1         13.2960    8.3763    2.7989 S.3       1 <0>         0.3085
     26 H1         -1.2006    2.0529    0.9282 H         1 <0>         0.1344
     27 H2          0.8658    3.3907    0.8686 H         1 <0>         0.1256
     28 H3          3.0715   -0.0650   -0.3066 H         1 <0>         0.1335
     29 H4         -1.1333   -0.3426    0.3642 H         1 <0>         0.1355
     30 H5          4.0392    2.1527   -0.5018 H         1 <0>         0.0843
     31 H6          3.1184    3.5950   -0.0117 H         1 <0>         0.0448
     32 H7          3.3702    2.8411    2.2850 H         1 <0>         0.3466
     33 H8          5.9342    2.9090    0.8328 H         1 <0>         0.0758
     34 H9          5.0135    4.3512    1.3229 H         1 <0>         0.0341
     35 H10         5.1891    3.6566    3.6968 H         1 <0>         0.0828
     36 H11         6.1099    2.2144    3.2066 H         1 <0>         0.0932
     37 H12         8.3792    2.4144    2.3681 H         1 <0>         0.1453
     38 H13        10.4578    3.7320    2.3752 H         1 <0>         0.1342
     39 H14         8.2483    7.1927    3.5721 H         1 <0>         0.1421
     40 H15         6.1740    5.8684    3.5518 H         1 <0>         0.1438
     41 H16        10.8190    6.9548    3.6767 H         1 <0>         0.4446
     42 H17        12.0500    5.1018    0.3435 H         1 <0>         0.4462
     43 H18        14.2772    5.4559    1.0722 H         1 <0>         0.1582
     44 H19        16.1805    7.0243    1.4746 H         1 <0>         0.1589
     45 H20        15.6480    9.2014    2.7251 H         1 <0>         0.2090
     46 H21        10.4707    4.9234    0.8882 H         1 <0>         0.4371
@<TRIPOS>BOND
     1    1    6 ar
     2    1    2 ar
     3    1   26 1
     4    2    3 ar
     5    2   27 1
     6    3    4 ar
     7    3    8 1
     8    4    5 ar
     9    4   28 1
    10    5    6 ar
    11    5    7 1
    12    6   29 1
    13    8    9 1
    14    8   30 1
    15    8   31 1
    16    9   10 1
    17    9   32 1
    18   10   11 1
    19   10   33 1
    20   10   34 1
    21   11   12 1
    22   11   35 1
    23   11   36 1
    24   12   17 ar
    25   12   13 ar
    26   13   14 ar
    27   13   37 1
    28   14   15 ar
    29   14   38 1
    30   15   16 ar
    31   15   18 1
    32   16   17 ar
    33   16   39 1
    34   17   40 1
    35   18   19 1
    36   18   41 1
    37   19   20 2
    38   19   21 1
    39   20   42 1
    40   20   46 1
    41   21   25 1
    42   21   22 2
    43   22   23 1
    44   22   43 1
    45   23   24 2
    46   23   44 1
    47   24   25 1
    48   24   45 1
@<TRIPOS>MOLECULE
ZINC24687750
   45    47     0     0     0
SMALL
USER_CHARGES

@<TRIPOS>ATOM
      1 C1          0.3220    0.6145    0.2037 C.ar      1 <0>        -0.1063
      2 C2          1.4885    1.3555    0.1591 C.ar      1 <0>        -0.1104
      3 C3          2.7119    0.7288    0.3031 C.ar      1 <0>        -0.0725
      4 C4          2.7701   -0.6394    0.4915 C.ar      1 <0>        -0.0885
      5 C5          1.6034   -1.3813    0.5362 C.ar      1 <0>        -0.0349
      6 C6          0.3788   -0.7533    0.3923 C.ar      1 <0>        -0.1100
      7 Cl1         1.6756   -3.0997    0.7721 Cl        1 <0>        -0.0686
      8 C7          3.9828    1.5372    0.2544 C.3       1 <0>         0.0986
      9 N1          4.3298    1.9862    1.6094 N.3       1 <0>        -0.6859
     10 C8          5.5664    2.7793    1.6007 C.3       1 <0>         0.0649
     11 C9          5.8945    3.2279    3.0261 C.3       1 <0>        -0.0755
     12 C10         7.1630    4.0415    3.0172 C.ar      1 <0>        -0.1040
     13 C11         8.3855    3.4124    3.1743 C.ar      1 <0>        -0.0926
     14 C12         9.5506    4.1505    3.1676 C.ar      1 <0>        -0.1667
     15 C13         9.4944    5.5367    3.0012 C.ar      1 <0>         0.1205
     16 C14         8.2565    6.1649    2.8426 C.ar      1 <0>        -0.1242
     17 C15         7.1001    5.4132    2.8462 C.ar      1 <0>        -0.0956
     18 N2         10.6451    6.2748    2.9940 N.2       1 <0>        -0.5669
     19 C16        11.6190    5.9672    2.1639 C.2       1 <0>         0.5102
     20 N3         11.4353    4.9766    1.2219 N.pl3     1 <0>        -0.8674
     21 C17        12.9004    6.6781    2.2405 C.2       1 <0>        -0.1898
     22 C18        14.0379    6.5139    1.4666 C.2       1 <0>        -0.1064
     23 C19        15.0962    7.3366    1.7780 C.2       1 <0>        -0.1810
     24 C20        14.9622    8.2269    2.7902 C.2       1 <0>        -0.2473
     25 S1         13.3966    7.9835    3.3485 S.3       1 <0>         0.2819
     26 H1         -0.6339    1.1053    0.0956 H         1 <0>         0.1329
     27 H2          1.4436    2.4244    0.0113 H         1 <0>         0.1261
     28 H3          3.7262   -1.1291    0.6033 H         1 <0>         0.1342
     29 H4         -0.5324   -1.3320    0.4271 H         1 <0>         0.1334
     30 H5          4.7901    0.9215   -0.1422 H         1 <0>         0.0838
     31 H6          3.8373    2.4045   -0.3896 H         1 <0>         0.0436
     32 H7          6.3846    2.1722    1.2134 H         1 <0>         0.0745
     33 H8          5.4318    3.6551    0.9660 H         1 <0>         0.0326
     34 H9          5.0763    3.8351    3.4134 H         1 <0>         0.0704
     35 H10         6.0291    2.3521    3.6608 H         1 <0>         0.0810
     36 H11         8.4274    2.3409    3.3028 H         1 <0>         0.1219
     37 H12        10.5040    3.6583    3.2911 H         1 <0>         0.1195
     38 H13         8.2055    7.2360    2.7139 H         1 <0>         0.1243
     39 H14         6.1428    5.8969    2.7197 H         1 <0>         0.1217
     40 H15        10.5590    4.5784    1.1014 H         1 <0>         0.4087
     41 H16        14.0908    5.7865    0.6701 H         1 <0>         0.1414
     42 H17        16.0208    7.2731    1.2235 H         1 <0>         0.1358
     43 H18        15.6933    8.9344    3.1525 H         1 <0>         0.1888
     44 H19        12.1823    4.6781    0.6799 H         1 <0>         0.4003
     45 H20         3.5703    2.5053    2.0239 H         1 <0>         0.3434
@<TRIPOS>BOND
     1    1    6 ar
     2    1    2 ar
     3    1   26 1
     4    2    3 ar
     5    2   27 1
     6    3    4 ar
     7    3    8 1
     8    4    5 ar
     9    4   28 1
    10    5    6 ar
    11    5    7 1
    12    6   29 1
    13    8    9 1
    14    8   30 1
    15    8   31 1
    16    9   10 1
    17    9   45 1
    18   10   11 1
    19   10   32 1
    20   10   33 1
    21   11   12 1
    22   11   34 1
    23   11   35 1
    24   12   17 ar
    25   12   13 ar
    26   13   14 ar
    27   13   36 1
    28   14   15 ar
    29   14   37 1
    30   15   16 ar
    31   15   18 1
    32   16   17 ar
    33   16   38 1
    34   17   39 1
    35   18   19 2
    36   19   20 1
    37   19   21 1
    38   20   40 1
    39   20   44 1
    40   21   25 1
    41   21   22 2
    42   22   23 1
    43   22   41 1
    44   23   24 2
    45   23   42 1
    46   24   25 1
    47   24   43 1
@<TRIPOS>MOLECULE
ZINC24687750
   46    48     0     0     0
SMALL
USER_CHARGES
N'-[4-[2-[(3-chlorophenyl)methylamino]ethyl]phenyl]thiophene-2-carboxamidine
@<TRIPOS>ATOM
      1 C1         -1.6827  -10.5968   -0.5964 C.ar      1 <0>        -0.0996
      2 C2         -1.6809   -9.2372   -0.8479 C.ar      1 <0>        -0.0905
      3 C3         -2.4298   -8.3865   -0.0568 C.ar      1 <0>        -0.1500
      4 C4         -3.1894   -8.8958    0.9799 C.ar      1 <0>        -0.0886
      5 C5         -3.1957  -10.2565    1.2287 C.ar      1 <0>        -0.0357
      6 C6         -2.4416  -11.1071    0.4397 C.ar      1 <0>        -0.0774
      7 Cl1        -4.1497  -10.8969    2.5300 Cl        1 <0>        -0.0412
      8 C7         -2.4232   -6.9042   -0.3283 C.3       1 <0>         0.0525
      9 N1         -1.3477   -6.2695    0.4451 N.4       1 <0>        -0.5393
     10 C8         -1.3108   -4.8207    0.2049 C.3       1 <0>        -0.0038
     11 C9         -0.1806   -4.1963    1.0256 C.3       1 <0>        -0.0975
     12 C10        -0.1429   -2.7100    0.7792 C.ar      1 <0>        -0.1207
     13 C11        -0.8841   -1.8601    1.5811 C.ar      1 <0>        -0.0932
     14 C12        -0.8544   -0.4988    1.3615 C.ar      1 <0>        -0.0962
     15 C13        -0.0735    0.0215    0.3263 C.ar      1 <0>         0.1832
     16 C14         0.6682   -0.8432   -0.4827 C.ar      1 <0>        -0.1354
     17 C15         0.6332   -2.2018   -0.2476 C.ar      1 <0>        -0.0927
     18 N2         -0.0396    1.3697    0.1025 N.pl3     1 <0>        -0.6423
     19 C16         0.2720    2.1918    1.0820 C.2       1 <0>         0.4744
     20 C17         0.1876    3.6424    0.8772 C.2       1 <0>        -0.2095
     21 C18         0.4670    4.6672    1.7661 C.2       1 <0>        -0.0951
     22 C19         0.3020    5.9533    1.3099 C.2       1 <0>        -0.1703
     23 C20        -0.1187    6.1554    0.0352 C.2       1 <0>        -0.1768
     24 S1         -0.2943    4.5456   -0.5839 S.3       1 <0>         0.1269
     25 N3          0.6779    1.6898    2.3008 N.2       1 <0>        -0.7502
     26 H1         -1.0941  -11.2606   -1.2123 H         1 <0>         0.1459
     27 H2         -1.0912   -8.8394   -1.6605 H         1 <0>         0.1385
     28 H3         -3.7775   -8.2314    1.5956 H         1 <0>         0.1419
     29 H4         -2.4464  -12.1696    0.6332 H         1 <0>         0.1463
     30 H5         -2.2560   -6.7287   -1.4013 H         1 <0>         0.1382
     31 H6         -3.3910   -6.4730   -0.0327 H         1 <0>         0.1368
     32 H7         -1.5150   -6.4450    1.5181 H         1 <0>         0.4496
     33 H8         -1.1357   -4.6307   -0.8643 H         1 <0>         0.1303
     34 H9         -2.2708   -4.3748    0.5042 H         1 <0>         0.1302
     35 H10        -0.3556   -4.3864    2.0948 H         1 <0>         0.0945
     36 H11         0.7794   -4.6421    0.7263 H         1 <0>         0.0944
     37 H12        -1.4870   -2.2637    2.3811 H         1 <0>         0.1246
     38 H13        -1.4331    0.1634    1.9884 H         1 <0>         0.1278
     39 H14         1.2708   -0.4484   -1.2873 H         1 <0>         0.1297
     40 H15         1.2094   -2.8711   -0.8693 H         1 <0>         0.1256
     41 H16         0.7995    4.4647    2.7734 H         1 <0>         0.1426
     42 H17         0.5050    6.7931    1.9579 H         1 <0>         0.1434
     43 H18        -0.2962    7.0922   -0.4720 H         1 <0>         0.1931
     44 H19         0.9383    2.3768    3.1194 H         1 <0>         0.3450
     45 H20        -0.2727    1.7675   -0.8962 H         1 <0>         0.4413
     46 H21        -0.3799   -6.7007    0.1496 H         1 <0>         0.4492
@<TRIPOS>BOND
     1    1    6 ar
     2    1    2 ar
     3    1   26 1
     4    2    3 ar
     5    2   27 1
     6    3    4 ar
     7    3    8 1
     8    4    5 ar
     9    4   28 1
    10    5    6 ar
    11    5    7 1
    12    6   29 1
    13    8    9 1
    14    8   30 1
    15    8   31 1
    16    9   10 1
    17    9   32 1
    18    9   46 1
    19   10   11 1
    20   10   33 1
    21   10   34 1
    22   11   12 1
    23   11   35 1
    24   11   36 1
    25   12   17 ar
    26   12   13 ar
    27   13   14 ar
    28   13   37 1
    29   14   15 ar
    30   14   38 1
    31   15   16 ar
    32   15   18 1
    33   16   17 ar
    34   16   39 1
    35   17   40 1
    36   18   19 1
    37   18   45 1
    38   19   20 1
    39   19   25 2
    40   20   24 1
    41   20   21 2
    42   21   22 1
    43   21   41 1
    44   22   23 2
    45   22   42 1
    46   23   24 1
    47   23   43 1
    48   25   44 1
