@<TRIPOS>MOLECULE
ZINC21992895
   53    56     0     0     0
SMALL
USER_CHARGES
2-(3,4-dihydroxyphenyl)-5,7-dihydroxy-3-[(2R,3R,4S,5S,6R)-3,4,5-trihydroxy-6-(hydroxymethyl)tetrahydropyran-2-yl]oxy-chromen-4-one
@<TRIPOS>ATOM
      1 C1          2.4648    2.4460    2.6152 C.ar      1 <0>        -0.0292
      2 C2          2.0416    2.1024    3.8817 C.ar      1 <0>        -0.1203
      3 C3          2.0013    3.0584    4.8864 C.ar      1 <0>         0.1575
      4 C4          2.3939    4.3696    4.6220 C.ar      1 <0>         0.0542
      5 C5          2.8245    4.7201    3.3571 C.ar      1 <0>        -0.1383
      6 C6          2.8653    3.7570    2.3444 C.ar      1 <0>        -0.0873
      7 C7          3.3241    4.1252    0.9923 C.2       1 <0>         0.1708
      8 C8          2.5451    3.7981   -0.0767 C.2       1 <0>        -0.0736
      9 C9          2.9702    4.1503   -1.3839 C.2       1 <0>         0.4120
     10 O1          2.2968    3.8775   -2.3648 O.2       1 <0>        -0.4116
     11 C10         4.2548    4.8569   -1.5109 C.ar      1 <0>        -0.2971
     12 C11         4.7513    5.2431   -2.7630 C.ar      1 <0>         0.2892
     13 C12         5.9619    5.9056   -2.8404 C.ar      1 <0>        -0.2960
     14 C13         6.6809    6.1854   -1.6829 C.ar      1 <0>         0.2602
     15 C14         6.1961    5.8064   -0.4412 C.ar      1 <0>        -0.2861
     16 C15         4.9832    5.1413   -0.3427 C.ar      1 <0>         0.2209
     17 O2          4.4977    4.7668    0.8594 O.3       1 <0>        -0.2088
     18 O3          7.8689    6.8365   -1.7705 O.3       1 <0>        -0.4960
     19 O4          4.0489    4.9685   -3.8913 O.3       1 <0>        -0.4613
     20 O5          1.3662    3.1438    0.1083 O.3       1 <0>        -0.2952
     21 C16         0.2229    3.9425    0.4195 C.3       1 <0>         0.2564
     22 H1          0.5372    4.6990    1.1536 H         1 <0>         0.1097
     23 C17        -0.9068    3.0417    0.9256 C.3       1 <0>         0.1260
     24 H2         -1.7670    3.6321    1.2741 H         1 <0>         0.0825
     25 C18        -1.3090    2.0673   -0.1858 C.3       1 <0>         0.1024
     26 H3         -0.5018    1.3543   -0.4098 H         1 <0>         0.0783
     27 C19        -1.7149    2.8663   -1.4281 C.3       1 <0>         0.0658
     28 H4         -2.6345    3.4438   -1.2526 H         1 <0>         0.0648
     29 C20        -0.5540    3.7739   -1.8432 C.3       1 <0>         0.0509
     30 H5          0.3517    3.1896   -2.0627 H         1 <0>         0.1138
     31 O6         -0.2099    4.6331   -0.7544 O.3       1 <0>        -0.3699
     32 C21        -0.9728    4.6194   -3.0476 C.3       1 <0>         0.1000
     33 O7          0.1447    5.3835   -3.5049 O.3       1 <0>        -0.5684
     34 O8         -2.0238    1.9677   -2.4954 O.3       1 <0>        -0.5908
     35 O9         -2.4122    1.2716    0.2523 O.3       1 <0>        -0.5974
     36 O10        -0.4576    2.3077    2.0664 O.3       1 <0>        -0.5699
     37 O11         2.3533    5.3038    5.6095 O.3       1 <0>        -0.5191
     38 O12         1.5784    2.7156    6.1314 O.3       1 <0>        -0.5032
     39 H6          2.4907    1.7010    1.8338 H         1 <0>         0.1375
     40 H7          1.7362    1.0878    4.0908 H         1 <0>         0.1409
     41 H8          3.1293    5.7355    3.1510 H         1 <0>         0.1308
     42 H9          6.3508    6.2063   -3.8020 H         1 <0>         0.1441
     43 H10         6.7633    6.0292    0.4505 H         1 <0>         0.1464
     44 H11         8.4419    7.0605   -0.8586 H         1 <0>         0.4443
     45 H12         4.4425    5.2736   -4.8721 H         1 <0>         0.4369
     46 H13        -1.3210    3.9593   -3.8557 H         1 <0>         0.0516
     47 H14        -1.7860    5.2992   -2.7534 H         1 <0>         0.0424
     48 H15         0.0348    6.0559   -4.3685 H         1 <0>         0.3994
     49 H16        -2.3374    2.3622   -3.4732 H         1 <0>         0.4102
     50 H17        -2.8412    0.5106   -0.4161 H         1 <0>         0.4204
     51 H18        -1.1367    1.6040    2.5700 H         1 <0>         0.4185
     52 H19         2.6631    6.3385    5.4009 H         1 <0>         0.4403
     53 H20         1.5459    3.4724    6.9290 H         1 <0>         0.4407
@<TRIPOS>BOND
     1    1    6 ar
     2    1    2 ar
     3    1   39 1
     4    2    3 ar
     5    2   40 1
     6    3    4 ar
     7    3   38 1
     8    4    5 ar
     9    4   37 1
    10    5    6 ar
    11    5   41 1
    12    6    7 1
    13    7   17 1
    14    7    8 2
    15    8    9 1
    16    8   20 1
    17    9   10 2
    18    9   11 1
    19   11   16 ar
    20   11   12 ar
    21   12   13 ar
    22   12   19 1
    23   13   14 ar
    24   13   42 1
    25   14   15 ar
    26   14   18 1
    27   15   16 ar
    28   15   43 1
    29   16   17 1
    30   18   44 1
    31   19   45 1
    32   20   21 1
    33   21   22 1
    34   21   31 1
    35   21   23 1
    36   23   24 1
    37   23   25 1
    38   23   36 1
    39   25   26 1
    40   25   27 1
    41   25   35 1
    42   27   28 1
    43   27   29 1
    44   27   34 1
    45   29   30 1
    46   29   31 1
    47   29   32 1
    48   32   33 1
    49   32   46 1
    50   32   47 1
    51   33   48 1
    52   34   49 1
    53   35   50 1
    54   36   51 1
    55   37   52 1
    56   38   53 1
@<TRIPOS>MOLECULE
ZINC05426668
   40    41     0     0     0
SMALL
USER_CHARGES

@<TRIPOS>ATOM
      1 C1         -0.0166    1.3746    0.0096 C.ar      1 <0>        -0.0663
      2 C2          1.1842    2.0895    0.0020 C.ar      1 <0>        -0.0549
      3 C3          2.4020    1.4031   -0.0133 C.ar      1 <0>        -0.0962
      4 C4          2.4124    0.0214   -0.0209 C.ar      1 <0>         0.0763
      5 C5          1.2109   -0.6848   -0.0132 C.ar      1 <0>         0.1030
      6 C6          0.0021   -0.0041    0.0020 C.ar      1 <0>        -0.1355
      7 O1          1.2234   -2.0439   -0.0206 O.3       1 <0>        -0.4870
      8 O2          3.5952   -0.6495   -0.0362 O.3       1 <0>        -0.4849
      9 C7          1.1668    3.5628    0.0096 C.2       1 <0>         0.1287
     10 N1          0.0341    4.1990    0.0234 N.2       1 <0>        -0.2301
     11 N2          0.0175    5.5999    0.0306 N.am      1 <0>        -0.5552
     12 C8         -1.1575    6.2598    0.0449 C.2       1 <0>         0.5367
     13 O3         -2.2022    5.6400    0.0515 O.2       1 <0>        -0.4761
     14 C9         -1.1751    7.7490    0.0526 C.2       1 <0>         0.5367
     15 O4         -0.1304    8.3688    0.0459 O.2       1 <0>        -0.4761
     16 N3         -2.3501    8.4089    0.0669 N.am      1 <0>        -0.5552
     17 N4         -2.3667    9.8098    0.0741 N.2       1 <0>        -0.2300
     18 C10        -3.4994   10.4460    0.0879 C.2       1 <0>         0.1287
     19 C11        -3.5168   11.9193    0.0955 C.ar      1 <0>        -0.0549
     20 C12        -4.7345   12.6056    0.1162 C.ar      1 <0>        -0.0962
     21 C13        -4.7449   13.9874    0.1237 C.ar      1 <0>         0.0762
     22 C14        -3.5435   14.6936    0.1102 C.ar      1 <0>         0.1030
     23 C15        -2.3348   14.0129    0.0892 C.ar      1 <0>        -0.1354
     24 C16        -2.3160   12.6342    0.0879 C.ar      1 <0>        -0.0663
     25 O5         -3.5561   16.0527    0.1172 O.3       1 <0>        -0.4871
     26 O6         -5.9277   14.6583    0.1438 O.3       1 <0>        -0.4848
     27 H1         -0.9590    1.9019    0.0259 H         1 <0>         0.1443
     28 H2          3.3324    1.9515   -0.0196 H         1 <0>         0.1420
     29 H3         -0.9266   -0.5554    0.0079 H         1 <0>         0.1403
     30 H4          1.2355   -2.4419    0.8606 H         1 <0>         0.3921
     31 H5          3.9461   -0.8483    0.8427 H         1 <0>         0.3897
     32 H6          2.0956    4.1138    0.0037 H         1 <0>         0.1304
     33 H7          0.8517    6.0948    0.0253 H         1 <0>         0.4026
     34 H8         -3.1843    7.9140    0.0722 H         1 <0>         0.4026
     35 H9         -4.4282    9.8950    0.0938 H         1 <0>         0.1304
     36 H10        -5.6649   12.0573    0.1259 H         1 <0>         0.1420
     37 H11        -1.4062   14.5643    0.0784 H         1 <0>         0.1403
     38 H12        -1.3735   12.1069    0.0760 H         1 <0>         0.1443
     39 H13        -3.5472   16.4416    1.0025 H         1 <0>         0.3921
     40 H14        -6.2574   14.8476    1.0329 H         1 <0>         0.3897
@<TRIPOS>BOND
     1    1    6 ar
     2    1    2 ar
     3    1   27 1
     4    2    3 ar
     5    2    9 1
     6    3    4 ar
     7    3   28 1
     8    4    5 ar
     9    4    8 1
    10    5    6 ar
    11    5    7 1
    12    6   29 1
    13    7   30 1
    14    8   31 1
    15    9   10 2
    16    9   32 1
    17   10   11 1
    18   11   12 am
    19   11   33 1
    20   12   13 2
    21   12   14 1
    22   14   15 2
    23   14   16 am
    24   16   17 1
    25   16   34 1
    26   17   18 2
    27   18   19 1
    28   18   35 1
    29   19   24 ar
    30   19   20 ar
    31   20   21 ar
    32   20   36 1
    33   21   22 ar
    34   21   26 1
    35   22   23 ar
    36   22   25 1
    37   23   24 ar
    38   23   37 1
    39   24   38 1
    40   25   39 1
    41   26   40 1
@<TRIPOS>MOLECULE
ZINC64393103
   25    26     0     0     0
SMALL
USER_CHARGES

@<TRIPOS>ATOM
      1 C1          0.0438    1.4685    0.4394 C.3       1 <0>        -0.1434
      2 C2          0.0317   -0.0204    0.2071 C.2       1 <0>         0.2897
      3 C3         -1.1415   -0.7207    0.3174 C.2       1 <0>        -0.3272
      4 C4         -1.1339   -2.1729    0.0872 C.2       1 <0>         0.2807
      5 C5          0.0625   -2.7766   -0.2333 C.2       1 <0>        -0.3257
      6 C6          1.2150   -1.9864   -0.3259 C.2       1 <0>         0.5428
      7 O1          2.2789   -2.5134   -0.6094 O.2       1 <0>        -0.5461
      8 N1          1.1743   -0.6609   -0.1146 N.am      1 <0>        -0.4994
      9 C7          2.4122    0.1138   -0.2320 C.3       1 <0>         0.0488
     10 N2         -2.4256   -2.6049    0.2617 N.pl3     1 <0>        -0.5024
     11 H1         -2.7226   -3.5240    0.1729 H         1 <0>         0.4447
     12 N3         -3.2486   -1.5228    0.5868 N.am      1 <0>        -0.4220
     13 C8         -2.5359   -0.3794    0.6331 C.2       1 <0>         0.5883
     14 O2         -2.9667    0.7288    0.8893 O.2       1 <0>        -0.5132
     15 C9         -4.6881   -1.6182    0.8416 C.3       1 <0>         0.1038
     16 H2          0.2981    1.9792   -0.4894 H         1 <0>         0.0974
     17 H3         -0.9419    1.7921    0.7738 H         1 <0>         0.1104
     18 H4          0.7839    1.7113    1.2020 H         1 <0>         0.0942
     19 H5          0.1107   -3.8410   -0.4098 H         1 <0>         0.1523
     20 H6          2.8654    0.2260    0.7529 H         1 <0>         0.0818
     21 H7          3.1049   -0.4063   -0.8937 H         1 <0>         0.1035
     22 H8          2.1872    1.0981   -0.6427 H         1 <0>         0.0891
     23 H9         -5.0075   -2.6552    0.7383 H         1 <0>         0.0877
     24 H10        -4.9019   -1.2712    1.8526 H         1 <0>         0.0821
     25 H11        -5.2260   -0.9991    0.1236 H         1 <0>         0.0821
@<TRIPOS>BOND
     1    1    2 1
     2    1   16 1
     3    1   17 1
     4    1   18 1
     5    2    8 1
     6    2    3 2
     7    3   13 1
     8    3    4 1
     9    4    5 2
    10    4   10 1
    11    5    6 1
    12    5   19 1
    13    6    7 2
    14    6    8 am
    15    8    9 1
    16    9   20 1
    17    9   21 1
    18    9   22 1
    19   10   11 1
    20   10   12 1
    21   12   13 am
    22   12   15 1
    23   13   14 2
    24   15   23 1
    25   15   24 1
    26   15   25 1
@<TRIPOS>MOLECULE
ZINC64437033
   34    36     0     0     0
SMALL
USER_CHARGES

@<TRIPOS>ATOM
      1 C1         -0.0102    1.5014    0.0879 C.3       1 <0>        -0.1506
      2 C2          0.0060   -0.0047    0.0391 C.2       1 <0>         0.3021
      3 C3         -1.1674   -0.7054    0.1453 C.2       1 <0>        -0.3297
      4 C4         -1.1321   -2.1745    0.0956 C.2       1 <0>         0.2830
      5 C5          0.0895   -2.7932   -0.0574 C.2       1 <0>        -0.3296
      6 C6          1.2403   -2.0014   -0.1586 C.2       1 <0>         0.5459
      7 O1          2.3264   -2.5416   -0.2943 O.2       1 <0>        -0.5446
      8 N1          1.1743   -0.6609   -0.1146 N.am      1 <0>        -0.4926
      9 C7          2.4122    0.1138   -0.2320 C.3       1 <0>         0.1379
     10 C8          3.0388    0.2689    1.1297 C.ar      1 <0>         0.0945
     11 C9          4.0225   -0.6142    1.5336 C.ar      1 <0>        -0.1363
     12 C10         4.5925   -0.4627    2.7882 C.ar      1 <0>        -0.0772
     13 C11         4.1498    0.5760    3.5932 C.ar      1 <0>        -0.1616
     14 C12         3.1623    1.4196    3.1215 C.ar      1 <0>         0.0973
     15 N2          2.6462    1.2487    1.9199 N.ar      1 <0>        -0.4734
     16 N3         -2.4304   -2.6030    0.2235 N.pl3     1 <0>        -0.5022
     17 H1         -2.7134   -3.5308    0.2256 H         1 <0>         0.4442
     18 N4         -3.2834   -1.5030    0.3507 N.am      1 <0>        -0.4230
     19 C13        -2.5843   -0.3509    0.3106 C.2       1 <0>         0.5889
     20 O2         -3.0412    0.7730    0.3960 O.2       1 <0>        -0.5116
     21 C14        -4.7376   -1.5901    0.5058 C.3       1 <0>         0.1042
     22 H2          0.4569    1.8992   -0.8131 H         1 <0>         0.0923
     23 H3         -1.0405    1.8520    0.1480 H         1 <0>         0.1070
     24 H4          0.5414    1.8425    0.9640 H         1 <0>         0.1145
     25 H5          0.1585   -3.8702   -0.0982 H         1 <0>         0.1518
     26 H6          3.1049   -0.4063   -0.8937 H         1 <0>         0.1216
     27 H7          2.1872    1.0981   -0.6427 H         1 <0>         0.1151
     28 H8          4.3428   -1.4123    0.8802 H         1 <0>         0.1452
     29 H9          5.3628   -1.1379    3.1306 H         1 <0>         0.1382
     30 H10         4.5713    0.7235    4.5766 H         1 <0>         0.1379
     31 H11         2.8120    2.2309    3.7424 H         1 <0>         0.1600
     32 H12        -5.0409   -2.6370    0.5063 H         1 <0>         0.0872
     33 H13        -5.0309   -1.1264    1.4477 H         1 <0>         0.0815
     34 H14        -5.2229   -1.0715   -0.3210 H         1 <0>         0.0819
@<TRIPOS>BOND
     1    1    2 1
     2    1   22 1
     3    1   23 1
     4    1   24 1
     5    2    8 1
     6    2    3 2
     7    3   19 1
     8    3    4 1
     9    4    5 2
    10    4   16 1
    11    5    6 1
    12    5   25 1
    13    6    7 2
    14    6    8 am
    15    8    9 1
    16    9   10 1
    17    9   26 1
    18    9   27 1
    19   10   15 ar
    20   10   11 ar
    21   11   12 ar
    22   11   28 1
    23   12   13 ar
    24   12   29 1
    25   13   14 ar
    26   13   30 1
    27   14   15 ar
    28   14   31 1
    29   16   17 1
    30   16   18 1
    31   18   19 am
    32   18   21 1
    33   19   20 2
    34   21   32 1
    35   21   33 1
    36   21   34 1
@<TRIPOS>MOLECULE
ZINC12406757
   43    47     0     0     0
SMALL
USER_CHARGES
2-(1,3-benzothiazol-2-yl)-5-[2-(1H-imidazol-5-yl)ethyl]-4-methyl-1H-pyrazolo[4,3-c]pyridine-3,6-dione
@<TRIPOS>ATOM
      1 C1          0.2342    5.3622   -0.0983 C.3       1 <0>        -0.1411
      2 C2          0.1067    3.8618   -0.0391 C.2       1 <0>         0.2656
      3 C3         -1.1206    3.2867    0.1685 C.2       1 <0>        -0.3302
      4 C4         -1.2262    1.8208    0.2180 C.2       1 <0>         0.2356
      5 C5         -0.0763    1.0781    0.0623 C.2       1 <0>        -0.3955
      6 C6          1.1370    1.7460   -0.1456 C.2       1 <0>         0.5319
      7 O1          2.1596    1.0953   -0.2891 O.3       1 <0>        -0.6041
      8 N1          1.2000    3.0866   -0.1909 N.pl3     1 <0>        -0.5045
      9 C7          2.4984    3.7280   -0.4119 C.3       1 <0>         0.0969
     10 C8          2.7513    3.8633   -1.9148 C.3       1 <0>        -0.0595
     11 C9          4.0869    4.5231   -2.1421 C.2       1 <0>        -0.0212
     12 C10         4.3343    5.8466   -2.1690 C.2       1 <0>        -0.0291
     13 N2          5.6450    6.0192   -2.3953 N.2       1 <0>        -0.4983
     14 C11         6.2178    4.8531   -2.5180 C.2       1 <0>         0.1891
     15 N3          5.2809    3.8924   -2.3668 N.pl3     1 <0>        -0.5757
     16 H1          5.3260    2.7937   -2.3938 H         1 <0>         0.4500
     17 N4         -2.5499    1.5300    0.4390 N.2       1 <0>        -0.4362
     18 N5         -3.2884    2.7137    0.5243 N.am      1 <0>        -0.3453
     19 C12        -2.4873    3.7870    0.3703 C.2       1 <0>         0.5532
     20 O2         -2.8320    4.9531    0.3937 O.2       1 <0>        -0.5089
     21 C13        -4.6547    2.7754    0.7379 C.2       1 <0>         0.4485
     22 N6         -5.4256    3.8334    0.8378 N.2       1 <0>        -0.5599
     23 C14        -6.7574    3.7443    1.0440 C.ar      1 <0>         0.1308
     24 C15        -7.6946    4.7964    1.1648 C.ar      1 <0>        -0.0859
     25 C16        -9.0213    4.5307    1.3815 C.ar      1 <0>        -0.1057
     26 C17        -9.4922    3.2300    1.4893 C.ar      1 <0>        -0.1296
     27 C18        -8.6037    2.1766    1.3753 C.ar      1 <0>        -0.0527
     28 C19        -7.2728    2.4331    1.1591 C.ar      1 <0>        -0.1809
     29 S1         -5.8170    1.4352    0.9556 S.3       1 <0>         0.0192
     30 H2         -0.7555    5.8202    0.0455 H         1 <0>         0.1056
     31 H3          0.6360    5.6576   -1.0787 H         1 <0>         0.0845
     32 H4          0.9151    5.7039    0.6952 H         1 <0>         0.0845
     33 H5         -0.1106   -0.0008    0.0954 H         1 <0>         0.1272
     34 H6          2.4980    4.7258    0.0511 H         1 <0>         0.0906
     35 H7          3.2920    3.1146    0.0397 H         1 <0>         0.0971
     36 H8          2.7517    2.8655   -2.3778 H         1 <0>         0.0836
     37 H9          1.9577    4.4767   -2.3664 H         1 <0>         0.0897
     38 H10         3.6055    6.6314   -2.0301 H         1 <0>         0.1662
     39 H11         7.2674    4.6842   -2.7086 H         1 <0>         0.2040
     40 H12        -7.3610    5.8205    1.0858 H         1 <0>         0.1275
     41 H13        -9.7163    5.3525    1.4708 H         1 <0>         0.1262
     42 H14       -10.5419    3.0422    1.6602 H         1 <0>         0.1302
     43 H15        -8.9546    1.1584    1.4567 H         1 <0>         0.1268
@<TRIPOS>BOND
     1    1    2 1
     2    1   30 1
     3    1   31 1
     4    1   32 1
     5    2    8 1
     6    2    3 2
     7    3   19 1
     8    3    4 1
     9    4    5 1
    10    4   17 2
    11    5    6 2
    12    5   33 1
    13    6    7 1
    14    6    8 1
    15    8    9 1
    16    9   10 1
    17    9   34 1
    18    9   35 1
    19   10   11 1
    20   10   36 1
    21   10   37 1
    22   11   15 1
    23   11   12 2
    24   12   13 1
    25   12   38 1
    26   13   14 2
    27   14   15 1
    28   14   39 1
    29   15   16 1
    30   17   18 1
    31   18   19 am
    32   18   21 1
    33   19   20 2
    34   21   29 1
    35   21   22 2
    36   22   23 1
    37   23   28 ar
    38   23   24 ar
    39   24   25 ar
    40   24   40 1
    41   25   26 ar
    42   25   41 1
    43   26   27 ar
    44   26   42 1
    45   27   28 ar
    46   27   43 1
    47   28   29 1
@<TRIPOS>MOLECULE
ZINC12406757
   45    49     0     0     0
SMALL
USER_CHARGES
2-(1,3-benzothiazol-2-yl)-5-[2-(1H-imidazol-4-yl)ethyl]-4-methyl-1H-pyrazolo[5,4-d]pyridine-3,6-dione
@<TRIPOS>ATOM
      1 C1         -0.2473    5.3677    0.0309 C.3       1 <0>        -0.1473
      2 C2         -0.1461    3.8641    0.0224 C.2       1 <0>         0.2888
      3 C3          1.0852    3.2609    0.0087 C.2       1 <0>        -0.3041
      4 C4          1.1641    1.7925    0.0006 C.2       1 <0>         0.2887
      5 C5         -0.0126    1.0758    0.0080 C.2       1 <0>        -0.3063
      6 C6         -1.2280    1.7715    0.0174 C.2       1 <0>         0.5502
      7 O1         -2.2750    1.1440    0.0189 O.2       1 <0>        -0.5409
      8 N1         -1.2669    3.1138    0.0279 N.am      1 <0>        -0.4996
      9 C7         -2.5690    3.7850    0.0427 C.3       1 <0>         0.0828
     10 C8         -3.0346    4.0264   -1.3946 C.3       1 <0>        -0.0826
     11 C9         -4.3741    4.7168   -1.3795 C.2       1 <0>         0.0346
     12 C10        -4.6738    5.8762   -1.9957 C.2       1 <0>         0.0394
     13 N2         -5.9897    6.1394   -1.7259 N.pl3     1 <0>        -0.5151
     14 H1         -6.5134    6.9306   -2.0417 H         1 <0>         0.4769
     15 C11        -6.4486    5.1310   -0.9536 C.cat     1 <0>         0.3108
     16 N3          2.4990    1.4712   -0.0131 N.pl3     1 <0>        -0.4858
     17 H2          2.8551    0.5690   -0.0213 H         1 <0>         0.4546
     18 N4          3.2684    2.6383   -0.0141 N.am      1 <0>        -0.3134
     19 C12         2.4776    3.7301   -0.0015 C.2       1 <0>         0.5939
     20 O2          2.8479    4.8885    0.0004 O.2       1 <0>        -0.4468
     21 C13         4.6523    2.6688   -0.0260 C.2       1 <0>         0.3616
     22 N5          5.4529    3.7092   -0.0333 N.2       1 <0>        -0.4961
     23 C14         6.7982    3.5898   -0.0399 C.ar      1 <0>         0.0960
     24 C15         7.7663    4.6206   -0.0433 C.ar      1 <0>        -0.0565
     25 C16         9.1042    4.3246   -0.0573 C.ar      1 <0>        -0.1033
     26 C17         9.5565    3.0129   -0.0682 C.ar      1 <0>        -0.0871
     27 C18         8.6376    1.9797   -0.0648 C.ar      1 <0>        -0.0632
     28 C19         7.2954    2.2666   -0.0512 C.ar      1 <0>        -0.1390
     29 S1          5.8035    1.3018   -0.0433 S.3       1 <0>         0.0269
     30 H3          0.7536    5.7992    0.0244 H         1 <0>         0.1160
     31 H4         -0.7921    5.7002   -0.8527 H         1 <0>         0.0956
     32 H5         -0.7766    5.6912    0.9272 H         1 <0>         0.0994
     33 H6          0.0021   -0.0041    0.0020 H         1 <0>         0.1630
     34 H7         -3.2954    3.1576    0.5593 H         1 <0>         0.1083
     35 H8         -2.4798    4.7397    0.5609 H         1 <0>         0.1081
     36 H9         -2.3083    4.6538   -1.9113 H         1 <0>         0.1182
     37 H10        -3.1238    3.0717   -1.9129 H         1 <0>         0.1156
     38 H11        -4.0045    6.4820   -2.5885 H         1 <0>         0.2268
     39 H12        -7.4533    5.0406   -0.5680 H         1 <0>         0.2664
     40 H13         7.4478    5.6525   -0.0351 H         1 <0>         0.1386
     41 H14         9.8230    5.1306   -0.0604 H         1 <0>         0.1411
     42 H15        10.6155    2.8011   -0.0788 H         1 <0>         0.1454
     43 H16         8.9738    0.9534   -0.0728 H         1 <0>         0.1391
     44 N6         -5.4781    4.2825   -0.7554 N.pl3     1 <0>        -0.4830
     45 H17        -5.5487    3.4173   -0.2071 H         1 <0>         0.4832
@<TRIPOS>BOND
     1    1    2 1
     2    1   30 1
     3    1   31 1
     4    1   32 1
     5    2    8 1
     6    2    3 2
     7    3   19 1
     8    3    4 1
     9    4    5 2
    10    4   16 1
    11    5    6 1
    12    5   33 1
    13    6    7 2
    14    6    8 am
    15    8    9 1
    16    9   10 1
    17    9   34 1
    18    9   35 1
    19   10   11 1
    20   10   36 1
    21   10   37 1
    22   11   12 2
    23   11   44 1
    24   12   13 1
    25   12   38 1
    26   13   14 1
    27   13   15 1
    28   15   39 1
    29   15   44 2
    30   16   17 1
    31   16   18 1
    32   18   19 am
    33   18   21 1
    34   19   20 2
    35   21   29 1
    36   21   22 2
    37   22   23 1
    38   23   28 ar
    39   23   24 ar
    40   24   25 ar
    41   24   40 1
    42   25   26 ar
    43   25   41 1
    44   26   27 ar
    45   26   42 1
    46   27   28 ar
    47   27   43 1
    48   28   29 1
    49   44   45 1
@<TRIPOS>MOLECULE
ZINC12406757
   44    48     0     0     0
SMALL
USER_CHARGES
2-(1,3-benzothiazol-2-yl)-5-[2-(1H-imidazol-5-yl)ethyl]-4-methyl-1H-pyrazolo[4,3-c]pyridine-3,6-dione
@<TRIPOS>ATOM
      1 C1          0.2342    5.3622   -0.0983 C.3       1 <0>        -0.1378
      2 C2          0.1067    3.8618   -0.0391 C.2       1 <0>         0.2472
      3 C3         -1.1206    3.2867    0.1685 C.2       1 <0>        -0.3094
      4 C4         -1.2262    1.8208    0.2180 C.2       1 <0>         0.2311
      5 C5         -0.0763    1.0781    0.0623 C.2       1 <0>        -0.3926
      6 C6          1.1370    1.7460   -0.1456 C.2       1 <0>         0.5294
      7 O1          2.1596    1.0953   -0.2891 O.3       1 <0>        -0.6104
      8 N1          1.2000    3.0866   -0.1909 N.pl3     1 <0>        -0.5080
      9 C7          2.4984    3.7280   -0.4119 C.3       1 <0>         0.0975
     10 C8          2.7513    3.8633   -1.9148 C.3       1 <0>        -0.0851
     11 C9          4.0869    4.5231   -2.1421 C.2       1 <0>         0.0642
     12 C10         4.3343    5.8466   -2.1690 C.2       1 <0>        -0.0147
     13 N2          5.6450    6.0192   -2.3953 N.pl3     1 <0>        -0.4952
     14 C11         6.2178    4.8531   -2.5180 C.cat     1 <0>         0.3126
     15 N3          5.2809    3.8924   -2.3668 N.pl3     1 <0>        -0.5273
     16 H1          5.3260    2.7937   -2.3938 H         1 <0>         0.5072
     17 N4         -2.5499    1.5300    0.4390 N.2       1 <0>        -0.4207
     18 N5         -3.2884    2.7137    0.5243 N.am      1 <0>        -0.3473
     19 C12        -2.4873    3.7870    0.3703 C.2       1 <0>         0.5506
     20 O2         -2.8320    4.9531    0.3937 O.2       1 <0>        -0.5066
     21 C13        -4.6547    2.7754    0.7379 C.2       1 <0>         0.4386
     22 N6         -5.4256    3.8334    0.8378 N.2       1 <0>        -0.5524
     23 C14        -6.7574    3.7443    1.0440 C.ar      1 <0>         0.1230
     24 C15        -7.6946    4.7964    1.1648 C.ar      1 <0>        -0.0815
     25 C16        -9.0213    4.5307    1.3815 C.ar      1 <0>        -0.1057
     26 C17        -9.4922    3.2300    1.4893 C.ar      1 <0>        -0.1218
     27 C18        -8.6037    2.1766    1.3753 C.ar      1 <0>        -0.0544
     28 C19        -7.2728    2.4331    1.1591 C.ar      1 <0>        -0.1759
     29 S1         -5.8170    1.4352    0.9556 S.3       1 <0>         0.0281
     30 H2         -0.7555    5.8202    0.0455 H         1 <0>         0.1092
     31 H3          0.6360    5.6576   -1.0787 H         1 <0>         0.0778
     32 H4          0.9151    5.7039    0.6952 H         1 <0>         0.0825
     33 H5         -0.1106   -0.0008    0.0954 H         1 <0>         0.1301
     34 H6          2.4980    4.7258    0.0511 H         1 <0>         0.0928
     35 H7          3.2920    3.1146    0.0397 H         1 <0>         0.1013
     36 H8          2.7517    2.8655   -2.3778 H         1 <0>         0.1093
     37 H9          1.9577    4.4767   -2.3664 H         1 <0>         0.1140
     38 H10         3.6055    6.6314   -2.0301 H         1 <0>         0.2190
     39 H11         7.2674    4.6842   -2.7086 H         1 <0>         0.2583
     40 H12        -7.3610    5.8205    1.0858 H         1 <0>         0.1284
     41 H13        -9.7163    5.3525    1.4708 H         1 <0>         0.1287
     42 H14       -10.5419    3.0422    1.6602 H         1 <0>         0.1331
     43 H15        -8.9546    1.1584    1.4567 H         1 <0>         0.1292
     44 H16         6.0648    7.0345   -2.4494 H         1 <0>         0.5038
@<TRIPOS>BOND
     1    1    2 1
     2    1   30 1
     3    1   31 1
     4    1   32 1
     5    2    8 1
     6    2    3 2
     7    3   19 1
     8    3    4 1
     9    4    5 1
    10    4   17 2
    11    5    6 2
    12    5   33 1
    13    6    7 1
    14    6    8 1
    15    8    9 1
    16    9   10 1
    17    9   34 1
    18    9   35 1
    19   10   11 1
    20   10   36 1
    21   10   37 1
    22   11   15 1
    23   11   12 2
    24   12   13 1
    25   12   38 1
    26   13   14 2
    27   13   44 1
    28   14   15 1
    29   14   39 1
    30   15   16 1
    31   17   18 1
    32   18   19 am
    33   18   21 1
    34   19   20 2
    35   21   29 1
    36   21   22 2
    37   22   23 1
    38   23   28 ar
    39   23   24 ar
    40   24   25 ar
    41   24   40 1
    42   25   26 ar
    43   25   41 1
    44   26   27 ar
    45   26   42 1
    46   27   28 ar
    47   27   43 1
    48   28   29 1
@<TRIPOS>MOLECULE
ZINC12406757
   44    48     0     0     0
SMALL
USER_CHARGES

@<TRIPOS>ATOM
      1 C1         -0.0184    1.5028    0.0103 C.3       1 <0>        -0.1450
      2 C2          0.0021   -0.0041    0.0020 C.2       1 <0>         0.3027
      3 C3          0.0057   -0.6821   -1.1898 C.2       1 <0>        -0.3233
      4 C4          0.0263   -2.1524   -1.1780 C.2       1 <0>         0.2832
      5 C5          0.0408   -2.7951    0.0406 C.2       1 <0>        -0.3034
      6 C6          0.0355   -2.0257    1.2108 C.2       1 <0>         0.5465
      7 O1          0.0488   -2.5873    2.2945 O.2       1 <0>        -0.5279
      8 N1          0.0224   -0.6836    1.1669 N.am      1 <0>        -0.4948
      9 C7          0.0236    0.0667    2.4251 C.3       1 <0>         0.0858
     10 C8         -1.4183    0.3078    2.8766 C.3       1 <0>        -0.0564
     11 C9         -1.4170    1.0796    4.1709 C.2       1 <0>        -0.0328
     12 C10        -1.2983    0.5676    5.4108 C.2       1 <0>        -0.0060
     13 N2         -1.3439    1.5835    6.2854 N.2       1 <0>        -0.4928
     14 C11        -1.4864    2.7056    5.6345 C.2       1 <0>         0.1921
     15 N3         -1.5305    2.4364    4.3119 N.pl3     1 <0>        -0.5680
     16 N4          0.0262   -2.5555   -2.4907 N.pl3     1 <0>        -0.4918
     17 H1          0.0375   -3.4780   -2.7904 H         1 <0>         0.4517
     18 N5          0.0071   -1.4383   -3.3305 N.am      1 <0>        -0.3145
     19 C12        -0.0057   -0.2998   -2.6085 C.2       1 <0>         0.5964
     20 O2         -0.0240    0.8334   -3.0496 O.2       1 <0>        -0.4514
     21 C13         0.0015   -1.4933   -4.7137 C.2       1 <0>         0.3744
     22 N6         -0.0098   -0.5044   -5.5771 N.2       1 <0>        -0.5032
     23 C14        -0.0133   -0.7067   -6.9124 C.ar      1 <0>         0.1022
     24 C15        -0.0255    0.2624   -7.9423 C.ar      1 <0>        -0.0599
     25 C16        -0.0280   -0.1157   -9.2594 C.ar      1 <0>        -0.1038
     26 C17        -0.0192   -1.4528   -9.6300 C.ar      1 <0>        -0.0937
     27 C18        -0.0072   -2.4273   -8.6490 C.ar      1 <0>        -0.0618
     28 C19        -0.0041   -2.0580   -7.3271 C.ar      1 <0>        -0.1433
     29 S1          0.0157   -2.9287   -5.7785 S.3       1 <0>         0.0204
     30 H2          1.0042    1.8801    0.0026 H         1 <0>         0.1075
     31 H3         -0.5455    1.8639   -0.8728 H         1 <0>         0.1104
     32 H4         -0.5286    1.8543    0.9071 H         1 <0>         0.0871
     33 H5          0.0557   -3.8737    0.0925 H         1 <0>         0.1602
     34 H6          0.5525   -0.5043    3.1882 H         1 <0>         0.1179
     35 H7          0.5228    1.0243    2.2767 H         1 <0>         0.0978
     36 H8         -1.9472    0.8788    2.1135 H         1 <0>         0.0772
     37 H9         -1.9175   -0.6497    3.0250 H         1 <0>         0.1018
     38 H10        -1.1860   -0.4778    5.6576 H         1 <0>         0.1725
     39 H11        -1.5538    3.6873    6.0797 H         1 <0>         0.2102
     40 H12        -0.0332    1.3120   -7.6879 H         1 <0>         0.1378
     41 H13        -0.0374    0.6444  -10.0266 H         1 <0>         0.1389
     42 H14        -0.0220   -1.7296  -10.6739 H         1 <0>         0.1429
     43 H15        -0.0006   -3.4723   -8.9213 H         1 <0>         0.1372
     44 H16        -1.6266    3.0835    3.5957 H         1 <0>         0.4191
@<TRIPOS>BOND
     1    1    2 1
     2    1   30 1
     3    1   31 1
     4    1   32 1
     5    2    8 1
     6    2    3 2
     7    3   19 1
     8    3    4 1
     9    4    5 2
    10    4   16 1
    11    5    6 1
    12    5   33 1
    13    6    7 2
    14    6    8 am
    15    8    9 1
    16    9   10 1
    17    9   34 1
    18    9   35 1
    19   10   11 1
    20   10   36 1
    21   10   37 1
    22   11   15 1
    23   11   12 2
    24   12   13 1
    25   12   38 1
    26   13   14 2
    27   14   15 1
    28   14   39 1
    29   15   44 1
    30   16   17 1
    31   16   18 1
    32   18   19 am
    33   18   21 1
    34   19   20 2
    35   21   29 1
    36   21   22 2
    37   22   23 1
    38   23   28 ar
    39   23   24 ar
    40   24   25 ar
    41   24   40 1
    42   25   26 ar
    43   25   41 1
    44   26   27 ar
    45   26   42 1
    46   27   28 ar
    47   27   43 1
    48   28   29 1
@<TRIPOS>MOLECULE
ZINC12406757
   44    48     0     0     0
SMALL
USER_CHARGES

@<TRIPOS>ATOM
      1 C1         -0.0184    1.5028    0.0103 C.3       1 <0>        -0.1464
      2 C2          0.0021   -0.0041    0.0020 C.2       1 <0>         0.3066
      3 C3          0.0057   -0.6821   -1.1898 C.2       1 <0>        -0.3283
      4 C4          0.0263   -2.1524   -1.1780 C.2       1 <0>         0.2822
      5 C5          0.0408   -2.7951    0.0406 C.2       1 <0>        -0.3043
      6 C6          0.0355   -2.0257    1.2108 C.2       1 <0>         0.5452
      7 O1          0.0488   -2.5873    2.2945 O.2       1 <0>        -0.5255
      8 N1          0.0224   -0.6836    1.1669 N.am      1 <0>        -0.4940
      9 C7          0.0236    0.0667    2.4251 C.3       1 <0>         0.0894
     10 C8         -1.4183    0.3078    2.8766 C.3       1 <0>        -0.0468
     11 C9         -1.4170    1.0796    4.1709 C.2       1 <0>         0.0003
     12 C10        -2.0606    2.2400    4.4009 C.2       1 <0>        -0.0471
     13 N2         -1.7944    2.5903    5.6971 N.pl3     1 <0>        -0.5697
     14 H1         -2.1182    3.3800    6.1580 H         1 <0>         0.4225
     15 C11        -0.9969    1.6311    6.2144 C.2       1 <0>         0.1900
     16 N3         -0.7795    0.7283    5.2975 N.2       1 <0>        -0.4843
     17 N4          0.0262   -2.5555   -2.4907 N.pl3     1 <0>        -0.4932
     18 H2          0.0375   -3.4780   -2.7904 H         1 <0>         0.4508
     19 N5          0.0071   -1.4383   -3.3305 N.am      1 <0>        -0.3147
     20 C12        -0.0057   -0.2998   -2.6085 C.2       1 <0>         0.5969
     21 O2         -0.0240    0.8334   -3.0496 O.2       1 <0>        -0.4525
     22 C13         0.0015   -1.4933   -4.7137 C.2       1 <0>         0.3770
     23 N6         -0.0098   -0.5044   -5.5771 N.2       1 <0>        -0.5045
     24 C14        -0.0133   -0.7067   -6.9124 C.ar      1 <0>         0.1034
     25 C15        -0.0255    0.2624   -7.9423 C.ar      1 <0>        -0.0606
     26 C16        -0.0280   -0.1157   -9.2594 C.ar      1 <0>        -0.1038
     27 C17        -0.0192   -1.4528   -9.6300 C.ar      1 <0>        -0.0950
     28 C18        -0.0072   -2.4273   -8.6490 C.ar      1 <0>        -0.0615
     29 C19        -0.0041   -2.0580   -7.3271 C.ar      1 <0>        -0.1441
     30 S1          0.0157   -2.9287   -5.7785 S.3       1 <0>         0.0184
     31 H3          1.0042    1.8801    0.0026 H         1 <0>         0.1063
     32 H4         -0.5455    1.8639   -0.8728 H         1 <0>         0.1090
     33 H5         -0.5286    1.8543    0.9071 H         1 <0>         0.0927
     34 H6          0.0557   -3.8737    0.0925 H         1 <0>         0.1586
     35 H7          0.5525   -0.5043    3.1882 H         1 <0>         0.1192
     36 H8          0.5228    1.0243    2.2767 H         1 <0>         0.0972
     37 H9         -1.9472    0.8788    2.1135 H         1 <0>         0.0802
     38 H10        -1.9175   -0.6497    3.0250 H         1 <0>         0.0879
     39 H11        -2.6694    2.7889    3.6978 H         1 <0>         0.1775
     40 H12        -0.6070    1.6121    7.2214 H         1 <0>         0.2098
     41 H13        -0.0332    1.3120   -7.6879 H         1 <0>         0.1376
     42 H14        -0.0374    0.6444  -10.0266 H         1 <0>         0.1385
     43 H15        -0.0220   -1.7296  -10.6739 H         1 <0>         0.1424
     44 H16        -0.0006   -3.4723   -8.9213 H         1 <0>         0.1368
@<TRIPOS>BOND
     1    1    2 1
     2    1   31 1
     3    1   32 1
     4    1   33 1
     5    2    8 1
     6    2    3 2
     7    3   20 1
     8    3    4 1
     9    4    5 2
    10    4   17 1
    11    5    6 1
    12    5   34 1
    13    6    7 2
    14    6    8 am
    15    8    9 1
    16    9   10 1
    17    9   35 1
    18    9   36 1
    19   10   11 1
    20   10   37 1
    21   10   38 1
    22   11   16 1
    23   11   12 2
    24   12   13 1
    25   12   39 1
    26   13   14 1
    27   13   15 1
    28   15   16 2
    29   15   40 1
    30   17   18 1
    31   17   19 1
    32   19   20 am
    33   19   22 1
    34   20   21 2
    35   22   30 1
    36   22   23 2
    37   23   24 1
    38   24   29 ar
    39   24   25 ar
    40   25   26 ar
    41   25   41 1
    42   26   27 ar
    43   26   42 1
    44   27   28 ar
    45   27   43 1
    46   28   29 ar
    47   28   44 1
    48   29   30 1
@<TRIPOS>MOLECULE
ZINC12652747
   41    44     0     0     0
SMALL
USER_CHARGES
2-(2-chlorophenyl)-4-methyl-5-(2-pyridylmethyl)-1H-pyrazolo[5,4-d]pyridine-3,6-dione
@<TRIPOS>ATOM
      1 C1         -5.9190    4.1432    2.2487 C.3       1 <0>        -0.1383
      2 C2         -5.6369    4.9406    1.0015 C.2       1 <0>         0.3071
      3 C3         -4.4429    4.7859    0.3456 C.2       1 <0>        -0.3300
      4 C4         -4.1857    5.5721   -0.8700 C.2       1 <0>         0.2881
      5 C5         -5.1634    6.4399   -1.3050 C.2       1 <0>        -0.3264
      6 C6         -6.3550    6.5366   -0.5755 C.2       1 <0>         0.5475
      7 O1         -7.2262    7.3030   -0.9541 O.2       1 <0>        -0.5426
      8 N1         -6.5601    5.8043    0.5313 N.am      1 <0>        -0.4920
      9 C7         -7.8274    5.9487    1.2518 C.3       1 <0>         0.1348
     10 C8         -7.6602    6.9486    2.3669 C.ar      1 <0>         0.0943
     11 C9         -8.0010    8.2713    2.1552 C.ar      1 <0>        -0.1401
     12 C10        -7.8438    9.1830    3.1877 C.ar      1 <0>        -0.0759
     13 C11        -7.3473    8.7280    4.3999 C.ar      1 <0>        -0.1612
     14 C12        -7.0280    7.3907    4.5376 C.ar      1 <0>         0.0982
     15 N2         -7.1954    6.5505    3.5349 N.ar      1 <0>        -0.4717
     16 N3         -2.9303    5.2241   -1.3043 N.pl3     1 <0>        -0.4947
     17 H1         -2.4909    5.5886   -2.0885 H         1 <0>         0.4450
     18 N4         -2.3814    4.2636   -0.4498 N.am      1 <0>        -0.3681
     19 C13        -3.2375    3.9703    0.5495 C.2       1 <0>         0.5965
     20 O2         -3.0475    3.1776    1.4524 O.2       1 <0>        -0.4967
     21 C14        -1.1151    3.6897   -0.6068 C.ar      1 <0>         0.1494
     22 C15        -0.9797    2.3092   -0.6711 C.ar      1 <0>        -0.0875
     23 C16         0.2723    1.7455   -0.8204 C.ar      1 <0>        -0.0964
     24 C17         1.3898    2.5544   -0.9177 C.ar      1 <0>        -0.0981
     25 C18         1.2588    3.9296   -0.8608 C.ar      1 <0>        -0.0967
     26 C19         0.0095    4.5003   -0.7053 C.ar      1 <0>        -0.0437
     27 Cl1        -0.1547    6.2270   -0.6338 Cl        1 <0>        -0.0522
     28 H2         -5.6626    4.7375    3.1257 H         1 <0>         0.1141
     29 H3         -6.9770    3.8835    2.2824 H         1 <0>         0.0899
     30 H4         -5.3213    3.2317    2.2402 H         1 <0>         0.1021
     31 H5         -5.0137    7.0351   -2.1937 H         1 <0>         0.1534
     32 H6         -8.5986    6.2966    0.5645 H         1 <0>         0.1263
     33 H7         -8.1202    4.9851    1.6688 H         1 <0>         0.1154
     34 H8         -8.3854    8.5905    1.1977 H         1 <0>         0.1434
     35 H9         -8.1014   10.2228    3.0510 H         1 <0>         0.1384
     36 H10        -7.2115    9.4105    5.2259 H         1 <0>         0.1382
     37 H11        -6.6408    7.0285    5.4785 H         1 <0>         0.1605
     38 H12        -1.8522    1.6766   -0.6001 H         1 <0>         0.1412
     39 H13         0.3783    0.6717   -0.8656 H         1 <0>         0.1424
     40 H14         2.3670    2.1109   -1.0389 H         1 <0>         0.1420
     41 H15         2.1334    4.5586   -0.9374 H         1 <0>         0.1439
@<TRIPOS>BOND
     1    1    2 1
     2    1   28 1
     3    1   29 1
     4    1   30 1
     5    2    8 1
     6    2    3 2
     7    3   19 1
     8    3    4 1
     9    4    5 2
    10    4   16 1
    11    5    6 1
    12    5   31 1
    13    6    7 2
    14    6    8 am
    15    8    9 1
    16    9   10 1
    17    9   32 1
    18    9   33 1
    19   10   15 ar
    20   10   11 ar
    21   11   12 ar
    22   11   34 1
    23   12   13 ar
    24   12   35 1
    25   13   14 ar
    26   13   36 1
    27   14   15 ar
    28   14   37 1
    29   16   17 1
    30   16   18 1
    31   18   19 am
    32   18   21 1
    33   19   20 2
    34   21   26 ar
    35   21   22 ar
    36   22   23 ar
    37   22   38 1
    38   23   24 ar
    39   23   39 1
    40   24   25 ar
    41   24   40 1
    42   25   26 ar
    43   25   41 1
    44   26   27 1
@<TRIPOS>MOLECULE
ZINC01413825
   51    56     0     0     0
SMALL
USER_CHARGES

@<TRIPOS>ATOM
      1 C1         -0.0184    1.5028    0.0103 C.3       1 <0>        -0.1484
      2 C2          0.0021   -0.0041    0.0020 C.2       1 <0>         0.3077
      3 C3          0.0057   -0.6821   -1.1898 C.2       1 <0>        -0.3274
      4 C4          0.0263   -2.1524   -1.1780 C.2       1 <0>         0.2839
      5 C5          0.0408   -2.7951    0.0406 C.2       1 <0>        -0.3065
      6 C6          0.0355   -2.0257    1.2108 C.2       1 <0>         0.5473
      7 O1          0.0488   -2.5873    2.2945 O.2       1 <0>        -0.5332
      8 N1          0.0224   -0.6836    1.1669 N.am      1 <0>        -0.4936
      9 C7          0.0236    0.0667    2.4251 C.3       1 <0>         0.0855
     10 C8         -1.4183    0.3078    2.8766 C.3       1 <0>        -0.0553
     11 C9         -1.4170    1.0796    4.1709 C.2       1 <0>        -0.1780
     12 C10        -1.4866    0.5638    5.4082 C.2       1 <0>         0.0700
     13 N2         -1.4601    1.5698    6.3353 N.pl3     1 <0>        -0.5939
     14 H1         -1.4987    1.4432    7.2963 H         1 <0>         0.4179
     15 C11        -1.3706    2.7887    5.7011 C.ar      1 <0>         0.0947
     16 C12        -1.3333    2.5348    4.3176 C.ar      1 <0>        -0.1003
     17 C13        -1.2368    3.5968    3.4169 C.ar      1 <0>        -0.0757
     18 C14        -1.1754    4.8795    3.8845 C.ar      1 <0>        -0.1422
     19 C15        -1.2077    5.1350    5.2483 C.ar      1 <0>        -0.0987
     20 C16        -1.3120    4.1022    6.1545 C.ar      1 <0>        -0.1281
     21 N3          0.0262   -2.5555   -2.4907 N.pl3     1 <0>        -0.4925
     22 H2          0.0375   -3.4780   -2.7904 H         1 <0>         0.4509
     23 N4          0.0071   -1.4383   -3.3305 N.am      1 <0>        -0.3148
     24 C17        -0.0057   -0.2998   -2.6085 C.2       1 <0>         0.5965
     25 O2         -0.0240    0.8334   -3.0496 O.2       1 <0>        -0.4510
     26 C18         0.0015   -1.4933   -4.7137 C.2       1 <0>         0.3764
     27 N5         -0.0098   -0.5044   -5.5771 N.2       1 <0>        -0.5037
     28 C19        -0.0133   -0.7067   -6.9124 C.ar      1 <0>         0.1031
     29 C20        -0.0255    0.2624   -7.9423 C.ar      1 <0>        -0.0602
     30 C21        -0.0280   -0.1157   -9.2594 C.ar      1 <0>        -0.1038
     31 C22        -0.0192   -1.4528   -9.6300 C.ar      1 <0>        -0.0946
     32 C23        -0.0072   -2.4273   -8.6490 C.ar      1 <0>        -0.0617
     33 C24        -0.0041   -2.0580   -7.3271 C.ar      1 <0>        -0.1437
     34 S1          0.0157   -2.9287   -5.7785 S.3       1 <0>         0.0180
     35 H3          1.0042    1.8801    0.0026 H         1 <0>         0.1074
     36 H4         -0.5455    1.8639   -0.8728 H         1 <0>         0.1098
     37 H5         -0.5286    1.8543    0.9071 H         1 <0>         0.0931
     38 H6          0.0557   -3.8737    0.0925 H         1 <0>         0.1584
     39 H7          0.5525   -0.5043    3.1882 H         1 <0>         0.1108
     40 H8          0.5228    1.0243    2.2767 H         1 <0>         0.0996
     41 H9         -1.9472    0.8788    2.1135 H         1 <0>         0.0763
     42 H10        -1.9175   -0.6497    3.0250 H         1 <0>         0.0828
     43 H11        -1.5538   -0.4893    5.6380 H         1 <0>         0.1728
     44 H12        -1.2105    3.4055    2.3543 H         1 <0>         0.1197
     45 H13        -1.1007    5.7009    3.1872 H         1 <0>         0.1234
     46 H14        -1.1576    6.1540    5.6025 H         1 <0>         0.1256
     47 H15        -1.3352    4.3112    7.2139 H         1 <0>         0.1200
     48 H16        -0.0332    1.3120   -7.6879 H         1 <0>         0.1379
     49 H17        -0.0374    0.6444  -10.0266 H         1 <0>         0.1386
     50 H18        -0.0220   -1.7296  -10.6739 H         1 <0>         0.1425
     51 H19        -0.0006   -3.4723   -8.9213 H         1 <0>         0.1368
@<TRIPOS>BOND
     1    1    2 1
     2    1   35 1
     3    1   36 1
     4    1   37 1
     5    2    8 1
     6    2    3 2
     7    3   24 1
     8    3    4 1
     9    4    5 2
    10    4   21 1
    11    5    6 1
    12    5   38 1
    13    6    7 2
    14    6    8 am
    15    8    9 1
    16    9   10 1
    17    9   39 1
    18    9   40 1
    19   10   11 1
    20   10   41 1
    21   10   42 1
    22   11   16 1
    23   11   12 2
    24   12   13 1
    25   12   43 1
    26   13   14 1
    27   13   15 1
    28   15   20 ar
    29   15   16 ar
    30   16   17 ar
    31   17   18 ar
    32   17   44 1
    33   18   19 ar
    34   18   45 1
    35   19   20 ar
    36   19   46 1
    37   20   47 1
    38   21   22 1
    39   21   23 1
    40   23   24 am
    41   23   26 1
    42   24   25 2
    43   26   34 1
    44   26   27 2
    45   27   28 1
    46   28   33 ar
    47   28   29 ar
    48   29   30 ar
    49   29   48 1
    50   30   31 ar
    51   30   49 1
    52   31   32 ar
    53   31   50 1
    54   32   33 ar
    55   32   51 1
    56   33   34 1
@<TRIPOS>MOLECULE
ZINC04741447
   39    42     0     0     0
SMALL
USER_CHARGES

@<TRIPOS>ATOM
      1 C1         -0.0093    1.5012    0.0955 C.3       1 <0>        -0.1498
      2 C2          0.0064   -0.0048    0.0427 C.2       1 <0>         0.3009
      3 C3         -1.1671   -0.7057    0.1490 C.2       1 <0>        -0.3251
      4 C4         -1.1321   -2.1747    0.0954 C.2       1 <0>         0.2825
      5 C5          0.0891   -2.7931   -0.0613 C.2       1 <0>        -0.3166
      6 C6          1.2398   -2.0014   -0.1624 C.2       1 <0>         0.5483
      7 O1          2.3256   -2.5414   -0.3018 O.2       1 <0>        -0.5350
      8 N1          1.1744   -0.6610   -0.1146 N.am      1 <0>        -0.4960
      9 C7          2.4123    0.1137   -0.2315 C.3       1 <0>         0.1720
     10 C8          3.0387    0.2683    1.1303 C.2       1 <0>        -0.0608
     11 C9          3.9322   -0.5703    1.6850 C.2       1 <0>        -0.1589
     12 C10         4.2497   -0.0463    2.9592 C.2       1 <0>        -0.2188
     13 C11         3.5311    1.0812    3.1070 C.2       1 <0>        -0.0236
     14 O2          2.8039    1.2699    1.9937 O.3       1 <0>        -0.1751
     15 N2         -2.4303   -2.6033    0.2248 N.pl3     1 <0>        -0.4999
     16 H1         -2.7135   -3.5310    0.2247 H         1 <0>         0.4476
     17 N3         -3.2827   -1.5034    0.3565 N.am      1 <0>        -0.3532
     18 C12        -2.5834   -0.3514    0.3180 C.2       1 <0>         0.5921
     19 O3         -3.0398    0.7725    0.4073 O.2       1 <0>        -0.4930
     20 C13        -4.6708   -1.5864    0.5068 C.ar      1 <0>         0.1617
     21 C14        -5.4286   -0.4284    0.6238 C.ar      1 <0>        -0.1451
     22 C15        -6.7991   -0.5139    0.7716 C.ar      1 <0>        -0.0841
     23 C16        -7.4169   -1.7507    0.8032 C.ar      1 <0>        -0.1371
     24 C17        -6.6652   -2.9056    0.6871 C.ar      1 <0>        -0.0868
     25 C18        -5.2949   -2.8269    0.5337 C.ar      1 <0>        -0.1574
     26 H2          0.3108    1.9018   -0.8663 H         1 <0>         0.1006
     27 H3         -1.0196    1.8465    0.3148 H         1 <0>         0.1123
     28 H4          0.6695    1.8445    0.8762 H         1 <0>         0.0995
     29 H5          0.1578   -3.8700   -0.1051 H         1 <0>         0.1561
     30 H6          3.1051   -0.4062   -0.8932 H         1 <0>         0.1368
     31 H7          2.1874    1.0981   -0.6419 H         1 <0>         0.1148
     32 H8          4.3303   -1.4714    1.2423 H         1 <0>         0.1561
     33 H9          4.9369   -0.4701    3.6765 H         1 <0>         0.1520
     34 H10         3.5405    1.7273    3.9723 H         1 <0>         0.2067
     35 H11        -4.9467    0.5378    0.5995 H         1 <0>         0.1597
     36 H12        -7.3890    0.3862    0.8629 H         1 <0>         0.1344
     37 H13        -8.4887   -1.8148    0.9193 H         1 <0>         0.1290
     38 H14        -7.1507   -3.8700    0.7121 H         1 <0>         0.1317
     39 H15        -4.7088   -3.7291    0.4389 H         1 <0>         0.1215
@<TRIPOS>BOND
     1    1    2 1
     2    1   26 1
     3    1   27 1
     4    1   28 1
     5    2    8 1
     6    2    3 2
     7    3   18 1
     8    3    4 1
     9    4    5 2
    10    4   15 1
    11    5    6 1
    12    5   29 1
    13    6    7 2
    14    6    8 am
    15    8    9 1
    16    9   10 1
    17    9   30 1
    18    9   31 1
    19   10   14 1
    20   10   11 2
    21   11   12 1
    22   11   32 1
    23   12   13 2
    24   12   33 1
    25   13   14 1
    26   13   34 1
    27   15   16 1
    28   15   17 1
    29   17   18 am
    30   17   20 1
    31   18   19 2
    32   20   25 ar
    33   20   21 ar
    34   21   22 ar
    35   21   35 1
    36   22   23 ar
    37   22   36 1
    38   23   24 ar
    39   23   37 1
    40   24   25 ar
    41   24   38 1
    42   25   39 1
@<TRIPOS>MOLECULE
ZINC09972269
   46    50     0     0     0
SMALL
USER_CHARGES
4-[(8-benzothiazol-2-yl-2-methyl-4,9-dioxo-3,7,8-triazabicyclo[4.3.0]nona-1,5-dien-3-yl)methyl]benzoic acid
@<TRIPOS>ATOM
      1 C1          2.4822   -0.6366    1.1616 C.3       1 <0>        -0.1514
      2 C2          1.2070   -0.8066    1.9465 C.2       1 <0>         0.3153
      3 C3          1.2267   -1.4621    3.1507 C.2       1 <0>        -0.3353
      4 C4         -0.0285   -1.6230    3.8999 C.2       1 <0>         0.2805
      5 C5         -1.1826   -1.0996    3.3594 C.2       1 <0>        -0.3027
      6 C6         -1.1130   -0.4398    2.1260 C.2       1 <0>         0.5480
      7 O1         -2.1311    0.0264    1.6402 O.2       1 <0>        -0.5258
      8 N1          0.0491   -0.3092    1.4660 N.am      1 <0>        -0.4857
      9 C7          0.0585    0.3911    0.1792 C.3       1 <0>         0.1278
     10 C8          0.2243    1.8705    0.4136 C.ar      1 <0>        -0.1347
     11 C9         -0.8923    2.6718    0.5740 C.ar      1 <0>        -0.1030
     12 C10        -0.7476    4.0259    0.7937 C.ar      1 <0>        -0.0817
     13 C11         0.5290    4.5893    0.8434 C.ar      1 <0>        -0.0973
     14 C12         1.6513    3.7757    0.6755 C.ar      1 <0>        -0.0917
     15 C13         1.4923    2.4222    0.4617 C.ar      1 <0>        -0.1241
     16 C14         0.6916    6.0395    1.0732 C.2       1 <0>         0.4861
     17 O2          1.8035    6.5267    1.1164 O.co2     1 <0>        -0.6295
     18 N2          0.2842   -2.3109    5.0464 N.pl3     1 <0>        -0.4955
     19 H1         -0.3501   -2.5626    5.7358 H         1 <0>         0.4493
     20 N3          1.6525   -2.5952    5.0714 N.am      1 <0>        -0.3147
     21 C15         2.2595   -2.1129    3.9684 C.2       1 <0>         0.5988
     22 O3          3.4424   -2.2009    3.6998 O.2       1 <0>        -0.4534
     23 C16         2.2961   -3.2782    6.0890 C.2       1 <0>         0.3854
     24 N4          3.5663   -3.5932    6.1945 N.2       1 <0>        -0.5085
     25 C17         4.0617   -4.2653    7.2561 C.ar      1 <0>         0.1080
     26 C18         5.3989   -4.6598    7.4931 C.ar      1 <0>        -0.0625
     27 C19         5.7348   -5.3482    8.6294 C.ar      1 <0>        -0.1043
     28 C20         4.7837   -5.6818    9.5829 C.ar      1 <0>        -0.0998
     29 C21         3.4664   -5.3111    9.3841 C.ar      1 <0>        -0.0606
     30 C22         3.1206   -4.6217    8.2487 C.ar      1 <0>        -0.1469
     31 S1          1.6080   -3.9625    7.5899 S.3       1 <0>         0.0143
     32 H2          2.9208    0.3355    1.3871 H         1 <0>         0.1112
     33 H3          3.1845   -1.4242    1.4343 H         1 <0>         0.1077
     34 H4          2.2635   -0.6980    0.0955 H         1 <0>         0.0954
     35 H5         -2.1251   -1.1967    3.8778 H         1 <0>         0.1572
     36 H6         -0.8821    0.2088   -0.3405 H         1 <0>         0.1133
     37 H7          0.8861    0.0244   -0.4280 H         1 <0>         0.1056
     38 H8         -1.8793    2.2353    0.5312 H         1 <0>         0.1276
     39 H9         -1.6198    4.6495    0.9232 H         1 <0>         0.1327
     40 H10         2.6416    4.2051    0.7132 H         1 <0>         0.1290
     41 H11         2.3595    1.7917    0.3320 H         1 <0>         0.1172
     42 H12         6.1637   -4.4162    6.7706 H         1 <0>         0.1373
     43 H13         6.7633   -5.6381    8.7861 H         1 <0>         0.1369
     44 H14         5.0693   -6.2249   10.4717 H         1 <0>         0.1405
     45 H15         2.7145   -5.5626   10.1173 H         1 <0>         0.1354
     46 O4         -0.3933    6.8216    1.2349 O.co2     1 <0>        -0.7511
@<TRIPOS>BOND
     1    1    2 1
     2    1   32 1
     3    1   33 1
     4    1   34 1
     5    2    8 1
     6    2    3 2
     7    3   21 1
     8    3    4 1
     9    4    5 2
    10    4   18 1
    11    5    6 1
    12    5   35 1
    13    6    7 2
    14    6    8 am
    15    8    9 1
    16    9   10 1
    17    9   36 1
    18    9   37 1
    19   10   15 ar
    20   10   11 ar
    21   11   12 ar
    22   11   38 1
    23   12   13 ar
    24   12   39 1
    25   13   14 ar
    26   13   16 1
    27   14   15 ar
    28   14   40 1
    29   15   41 1
    30   16   17 2
    31   16   46 1
    32   18   19 1
    33   18   20 1
    34   20   21 am
    35   20   23 1
    36   21   22 2
    37   23   31 1
    38   23   24 2
    39   24   25 1
    40   25   30 ar
    41   25   26 ar
    42   26   27 ar
    43   26   42 1
    44   27   28 ar
    45   27   43 1
    46   28   29 ar
    47   28   44 1
    48   29   30 ar
    49   29   45 1
    50   30   31 1
@<TRIPOS>MOLECULE
ZINC04741476
   41    44     0     0     0
SMALL
USER_CHARGES

@<TRIPOS>ATOM
      1 C1         -0.0091    1.5011    0.0974 C.3       1 <0>        -0.1483
      2 C2          0.0065   -0.0049    0.0437 C.2       1 <0>         0.2973
      3 C3         -1.1670   -0.7057    0.1500 C.2       1 <0>        -0.3256
      4 C4         -1.1321   -2.1747    0.0953 C.2       1 <0>         0.2815
      5 C5          0.0889   -2.7931   -0.0623 C.2       1 <0>        -0.3159
      6 C6          1.2397   -2.0013   -0.1634 C.2       1 <0>         0.5469
      7 O1          2.3254   -2.5413   -0.3036 O.2       1 <0>        -0.5354
      8 N1          1.1744   -0.6610   -0.1146 N.am      1 <0>        -0.4918
      9 C7          2.4123    0.1137   -0.2315 C.3       1 <0>         0.1280
     10 C8          3.0387    0.2683    1.1303 C.ar      1 <0>        -0.1739
     11 C9          2.7097    1.3480    1.9360 C.ar      1 <0>        -0.0630
     12 C10         3.3107    1.4495    3.1811 C.ar      1 <0>        -0.1762
     13 C11         4.2115    0.4780    3.5754 C.ar      1 <0>         0.1104
     14 N2          4.5008   -0.5351    2.7826 N.ar      1 <0>        -0.4842
     15 C12         3.9438   -0.6670    1.5944 C.ar      1 <0>         0.1339
     16 N3         -2.4303   -2.6033    0.2250 N.pl3     1 <0>        -0.5002
     17 H1         -2.7136   -3.5310    0.2244 H         1 <0>         0.4476
     18 N4         -3.2826   -1.5034    0.3578 N.am      1 <0>        -0.3529
     19 C13        -2.5832   -0.3515    0.3198 C.2       1 <0>         0.5915
     20 O2         -3.0395    0.7724    0.4100 O.2       1 <0>        -0.4940
     21 C14        -4.6706   -1.5865    0.5087 C.ar      1 <0>         0.1614
     22 C15        -5.4283   -0.4285    0.6267 C.ar      1 <0>        -0.1451
     23 C16        -6.7987   -0.5140    0.7751 C.ar      1 <0>        -0.0843
     24 C17        -7.4165   -1.7508    0.8061 C.ar      1 <0>        -0.1369
     25 C18        -6.6650   -2.9056    0.6889 C.ar      1 <0>        -0.0867
     26 C19        -5.2947   -2.8269    0.5350 C.ar      1 <0>        -0.1573
     27 H2          0.7500    1.8966   -0.5774 H         1 <0>         0.0935
     28 H3         -0.9905    1.8654   -0.2062 H         1 <0>         0.1118
     29 H4          0.2020    1.8305    1.1148 H         1 <0>         0.1029
     30 H5          0.1576   -3.8700   -0.1068 H         1 <0>         0.1559
     31 H6          3.1051   -0.4062   -0.8932 H         1 <0>         0.1202
     32 H7          2.1874    1.0981   -0.6419 H         1 <0>         0.1112
     33 H8          2.0024    2.0923    1.6012 H         1 <0>         0.1368
     34 H9          3.0783    2.2773    3.8346 H         1 <0>         0.1395
     35 H10         4.6840    0.5497    4.5438 H         1 <0>         0.1590
     36 H11         4.2017   -1.5133    0.9750 H         1 <0>         0.1659
     37 H12        -4.9464    0.5377    0.6029 H         1 <0>         0.1595
     38 H13        -7.3885    0.3861    0.8672 H         1 <0>         0.1344
     39 H14        -8.4883   -1.8149    0.9226 H         1 <0>         0.1291
     40 H15        -7.1505   -3.8700    0.7135 H         1 <0>         0.1318
     41 H16        -4.7088   -3.7291    0.4393 H         1 <0>         0.1216
@<TRIPOS>BOND
     1    1    2 1
     2    1   27 1
     3    1   28 1
     4    1   29 1
     5    2    8 1
     6    2    3 2
     7    3   19 1
     8    3    4 1
     9    4    5 2
    10    4   16 1
    11    5    6 1
    12    5   30 1
    13    6    7 2
    14    6    8 am
    15    8    9 1
    16    9   10 1
    17    9   31 1
    18    9   32 1
    19   10   15 ar
    20   10   11 ar
    21   11   12 ar
    22   11   33 1
    23   12   13 ar
    24   12   34 1
    25   13   14 ar
    26   13   35 1
    27   14   15 ar
    28   15   36 1
    29   16   17 1
    30   16   18 1
    31   18   19 am
    32   18   21 1
    33   19   20 2
    34   21   26 ar
    35   21   22 ar
    36   22   23 ar
    37   22   37 1
    38   23   24 ar
    39   23   38 1
    40   24   25 ar
    41   24   39 1
    42   25   26 ar
    43   25   40 1
    44   26   41 1
@<TRIPOS>MOLECULE
ZINC18244306
   45    48     0     0     0
SMALL
USER_CHARGES

@<TRIPOS>ATOM
      1 C1         -0.0184    1.5028    0.0103 C.3       1 <0>        -0.1450
      2 C2          0.0021   -0.0041    0.0020 C.2       1 <0>         0.2990
      3 C3          0.0057   -0.6820   -1.1896 C.2       1 <0>        -0.3281
      4 C4          0.0257   -2.1522   -1.1779 C.2       1 <0>         0.2820
      5 C5          0.0406   -2.7950    0.0406 C.2       1 <0>        -0.3177
      6 C6          0.0360   -2.0257    1.2109 C.2       1 <0>         0.5455
      7 O1          0.0495   -2.5874    2.2945 O.2       1 <0>        -0.5376
      8 N1          0.0224   -0.6836    1.1670 N.am      1 <0>        -0.4949
      9 C7          0.0241    0.0667    2.4252 C.3       1 <0>         0.0872
     10 C8         -1.4176    0.3083    2.8769 C.3       1 <0>        -0.0950
     11 C9         -1.4159    1.0801    4.1713 C.ar      1 <0>        -0.0865
     12 C10        -1.3896    0.4061    5.3779 C.ar      1 <0>        -0.1097
     13 C11        -1.3880    1.1141    6.5652 C.ar      1 <0>        -0.1170
     14 C12        -1.4122    2.4961    6.5458 C.ar      1 <0>        -0.1191
     15 C13        -1.4376    3.1701    5.3392 C.ar      1 <0>        -0.1184
     16 C14        -1.4349    2.4622    4.1518 C.ar      1 <0>        -0.1156
     17 N2          0.0250   -2.5553   -2.4906 N.pl3     1 <0>        -0.5005
     18 H1          0.0361   -3.4777   -2.7904 H         1 <0>         0.4473
     19 N3          0.0059   -1.4381   -3.3306 N.am      1 <0>        -0.3534
     20 C15        -0.0062   -0.2996   -2.6086 C.2       1 <0>         0.5913
     21 O2         -0.0243    0.8338   -3.0498 O.2       1 <0>        -0.4938
     22 C16         0.0007   -1.4938   -4.7280 C.ar      1 <0>         0.1619
     23 C17        -0.0124   -0.3205   -5.4712 C.ar      1 <0>        -0.1453
     24 C18        -0.0170   -0.3789   -6.8511 C.ar      1 <0>        -0.0842
     25 C19        -0.0084   -1.6039   -7.4928 C.ar      1 <0>        -0.1373
     26 C20         0.0047   -2.7739   -6.7558 C.ar      1 <0>        -0.0868
     27 C21         0.0147   -2.7223   -5.3757 C.ar      1 <0>        -0.1576
     28 H2          1.0042    1.8801    0.0026 H         1 <0>         0.1053
     29 H3         -0.5455    1.8639   -0.8728 H         1 <0>         0.1095
     30 H4         -0.5286    1.8543    0.9071 H         1 <0>         0.0901
     31 H5          0.0551   -3.8736    0.0925 H         1 <0>         0.1550
     32 H6          0.5530   -0.5045    3.1882 H         1 <0>         0.1116
     33 H7          0.5235    1.0241    2.2767 H         1 <0>         0.0997
     34 H8         -1.9465    0.8795    2.1140 H         1 <0>         0.0791
     35 H9         -1.9171   -0.6491    3.0255 H         1 <0>         0.0861
     36 H10        -1.3706   -0.6736    5.3930 H         1 <0>         0.1252
     37 H11        -1.3681    0.5875    7.5079 H         1 <0>         0.1238
     38 H12        -1.4117    3.0493    7.4734 H         1 <0>         0.1225
     39 H13        -1.4569    4.2499    5.3241 H         1 <0>         0.1234
     40 H14        -1.4510    2.9888    3.2091 H         1 <0>         0.1221
     41 H15        -0.0195    0.6364   -4.9706 H         1 <0>         0.1596
     42 H16        -0.0276    0.5330   -7.4295 H         1 <0>         0.1343
     43 H17        -0.0123   -1.6468   -8.5719 H         1 <0>         0.1289
     44 H18         0.0114   -3.7289   -7.2600 H         1 <0>         0.1316
     45 H19         0.0291   -3.6364   -4.8006 H         1 <0>         0.1215
@<TRIPOS>BOND
     1    1    2 1
     2    1   28 1
     3    1   29 1
     4    1   30 1
     5    2    8 1
     6    2    3 2
     7    3   20 1
     8    3    4 1
     9    4    5 2
    10    4   17 1
    11    5    6 1
    12    5   31 1
    13    6    7 2
    14    6    8 am
    15    8    9 1
    16    9   10 1
    17    9   32 1
    18    9   33 1
    19   10   11 1
    20   10   34 1
    21   10   35 1
    22   11   16 ar
    23   11   12 ar
    24   12   13 ar
    25   12   36 1
    26   13   14 ar
    27   13   37 1
    28   14   15 ar
    29   14   38 1
    30   15   16 ar
    31   15   39 1
    32   16   40 1
    33   17   18 1
    34   17   19 1
    35   19   20 am
    36   19   22 1
    37   20   21 2
    38   22   27 ar
    39   22   23 ar
    40   23   24 ar
    41   23   41 1
    42   24   25 ar
    43   24   42 1
    44   25   26 ar
    45   25   43 1
    46   26   27 ar
    47   26   44 1
    48   27   45 1
@<TRIPOS>MOLECULE
ZINC05274875
   45    49     0     0     0
SMALL
USER_CHARGES
3-(benzo[1,3]dioxol-5-ylmethyl)-2-methyl-8-phenyl-3,7,8-triazabicyclo[4.3.0]nona-1,5-diene-4,9-dione
@<TRIPOS>ATOM
      1 C1         -1.7421    1.6250   -0.4485 C.3       1 <0>        -0.1532
      2 C2         -0.5507    2.4713   -0.0805 C.2       1 <0>         0.3002
      3 C3          0.6636    1.8792    0.1525 C.2       1 <0>        -0.3257
      4 C4          1.8134    2.7205    0.5164 C.2       1 <0>         0.2819
      5 C5          1.6235    4.0822    0.6049 C.2       1 <0>        -0.3169
      6 C6          0.3505    4.6056    0.3460 C.2       1 <0>         0.5485
      7 O1          0.1740    5.8110    0.4219 O.2       1 <0>        -0.5371
      8 N1         -0.6800    3.8105    0.0158 N.am      1 <0>        -0.4922
      9 C7         -1.9881    4.4168   -0.2439 C.3       1 <0>         0.1312
     10 C8         -2.7185    4.6131    1.0596 C.ar      1 <0>        -0.1140
     11 C9         -2.4747    5.7390    1.8241 C.ar      1 <0>        -0.0736
     12 C10        -3.1425    5.9238    3.0202 C.ar      1 <0>        -0.1028
     13 C11        -4.0582    4.9799    3.4561 C.ar      1 <0>         0.0456
     14 C12        -4.3038    3.8458    2.6860 C.ar      1 <0>         0.0277
     15 C13        -3.6350    3.6700    1.4854 C.ar      1 <0>        -0.0878
     16 O2         -5.2357    3.0788    3.3237 O.3       1 <0>        -0.3070
     17 C14        -5.8573    3.9505    4.2865 C.3       1 <0>         0.2127
     18 O3         -4.8363    4.9235    4.5762 O.3       1 <0>        -0.3071
     19 N2          2.8794    1.8732    0.6932 N.pl3     1 <0>        -0.5003
     20 H1          3.7760    2.1495    0.9397 H         1 <0>         0.4474
     21 N3          2.4800    0.5532    0.4653 N.am      1 <0>        -0.3532
     22 C15         1.1725    0.5005    0.1407 C.2       1 <0>         0.5917
     23 O4          0.5328   -0.5021   -0.1145 O.2       1 <0>        -0.4939
     24 C16         3.3211   -0.5601    0.5613 C.ar      1 <0>         0.1618
     25 C17         2.8209   -1.8331    0.3199 C.ar      1 <0>        -0.1451
     26 C18         3.6554   -2.9298    0.4104 C.ar      1 <0>        -0.0842
     27 C19         4.9850   -2.7626    0.7517 C.ar      1 <0>        -0.1372
     28 C20         5.4848   -1.4970    0.9982 C.ar      1 <0>        -0.0869
     29 C21         4.6570   -0.3955    0.9038 C.ar      1 <0>        -0.1575
     30 H2         -1.4526    0.5742   -0.4575 H         1 <0>         0.1131
     31 H3         -2.5357    1.7770    0.2831 H         1 <0>         0.0972
     32 H4         -2.0999    1.9117   -1.4374 H         1 <0>         0.1007
     33 H5          2.4424    4.7349    0.8690 H         1 <0>         0.1554
     34 H6         -1.8509    5.3815   -0.7324 H         1 <0>         0.1209
     35 H7         -2.5703    3.7612   -0.8914 H         1 <0>         0.1094
     36 H8         -1.7606    6.4754    1.4862 H         1 <0>         0.1544
     37 H9         -2.9500    6.8042    3.6154 H         1 <0>         0.1400
     38 H10        -3.8268    2.7937    0.8840 H         1 <0>         0.1384
     39 H11        -6.7349    4.4328    3.8560 H         1 <0>         0.0875
     40 H12        -6.1259    3.3975    5.1866 H         1 <0>         0.1342
     41 H13         1.7816   -1.9648    0.0577 H         1 <0>         0.1596
     42 H14         3.2681   -3.9196    0.2189 H         1 <0>         0.1343
     43 H15         5.6346   -3.6222    0.8254 H         1 <0>         0.1289
     44 H16         6.5237   -1.3697    1.2645 H         1 <0>         0.1316
     45 H17         5.0481    0.5927    1.0957 H         1 <0>         0.1215
@<TRIPOS>BOND
     1    1    2 1
     2    1   30 1
     3    1   31 1
     4    1   32 1
     5    2    8 1
     6    2    3 2
     7    3   22 1
     8    3    4 1
     9    4    5 2
    10    4   19 1
    11    5    6 1
    12    5   33 1
    13    6    7 2
    14    6    8 am
    15    8    9 1
    16    9   10 1
    17    9   34 1
    18    9   35 1
    19   10   15 ar
    20   10   11 ar
    21   11   12 ar
    22   11   36 1
    23   12   13 ar
    24   12   37 1
    25   13   18 1
    26   13   14 ar
    27   14   15 ar
    28   14   16 1
    29   15   38 1
    30   16   17 1
    31   17   18 1
    32   17   39 1
    33   17   40 1
    34   19   20 1
    35   19   21 1
    36   21   22 am
    37   21   24 1
    38   22   23 2
    39   24   29 ar
    40   24   25 ar
    41   25   26 ar
    42   25   41 1
    43   26   27 ar
    44   26   42 1
    45   27   28 ar
    46   27   43 1
    47   28   29 ar
    48   28   44 1
    49   29   45 1
@<TRIPOS>MOLECULE
ZINC05274871
   44    48     0     0     0
SMALL
USER_CHARGES
8-benzothiazol-2-yl-2-methyl-3-morpholino-3,7,8-triazabicyclo[4.3.0]nona-1,5-diene-4,9-dione
@<TRIPOS>ATOM
      1 C1          6.7404   -2.7862   -0.0747 C.3       1 <0>        -0.1298
      2 C2          5.4329   -3.5354   -0.0658 C.2       1 <0>         0.3364
      3 C3          4.2483   -2.8449   -0.0518 C.2       1 <0>        -0.3274
      4 C4          2.9825   -3.5933   -0.0429 C.2       1 <0>         0.2896
      5 C5          3.0382   -4.9699   -0.0491 C.2       1 <0>        -0.3091
      6 C6          4.2909   -5.5958   -0.0635 C.2       1 <0>         0.5281
      7 O1          4.3490   -6.8150   -0.0686 O.2       1 <0>        -0.5344
      8 N1          5.4296   -4.8841   -0.0713 N.am      1 <0>        -0.3511
      9 N2          6.6235   -5.5477   -0.0858 N.3       1 <0>        -0.3060
     10 C7          6.7758   -6.3314   -1.3203 C.3       1 <0>        -0.0149
     11 C8          8.1485   -7.0091   -1.3221 C.3       1 <0>         0.0722
     12 O2          8.2775   -7.8167   -0.1488 O.3       1 <0>        -0.3769
     13 C9          8.1352   -7.0854    1.0719 C.3       1 <0>         0.0722
     14 C10         6.7623   -6.4084    1.0980 C.3       1 <0>        -0.0175
     15 N3          1.9751   -2.6604   -0.0235 N.pl3     1 <0>        -0.4896
     16 H1          1.0268   -2.8643   -0.0106 H         1 <0>         0.4519
     17 N4          2.5198   -1.3731   -0.0287 N.am      1 <0>        -0.3145
     18 C11         3.8669   -1.4260   -0.0419 C.2       1 <0>         0.5996
     19 O3          4.6256   -0.4755   -0.0447 O.2       1 <0>        -0.4480
     20 C12         1.7780   -0.2044   -0.0160 C.2       1 <0>         0.3745
     21 N5          2.2000    1.0388   -0.0134 N.2       1 <0>        -0.5021
     22 C13         1.3548    2.0922    0.0004 C.ar      1 <0>         0.1022
     23 C14         1.6759    3.4694    0.0047 C.ar      1 <0>        -0.0593
     24 C15         0.6878    4.4187    0.0197 C.ar      1 <0>        -0.1038
     25 C16        -0.6546    4.0679    0.0306 C.ar      1 <0>        -0.0936
     26 C17        -1.0049    2.7302    0.0311 C.ar      1 <0>        -0.0621
     27 C18        -0.0220    1.7724    0.0118 C.ar      1 <0>        -0.1429
     28 S1          0.0021   -0.0041    0.0020 S.3       1 <0>         0.0196
     29 H2          6.5448   -1.7139   -0.0681 H         1 <0>         0.1037
     30 H3          7.3193   -3.0553    0.8088 H         1 <0>         0.1004
     31 H4          7.3028   -3.0474   -0.9711 H         1 <0>         0.0998
     32 H5          2.1313   -5.5563   -0.0425 H         1 <0>         0.1603
     33 H6          5.9950   -7.0905   -1.3682 H         1 <0>         0.0866
     34 H7          6.6950   -5.6704   -2.1833 H         1 <0>         0.0936
     35 H8          8.9297   -6.2490   -1.3284 H         1 <0>         0.0653
     36 H9          8.2442   -7.6367   -2.2082 H         1 <0>         0.1099
     37 H10         8.9160   -6.3274    1.1352 H         1 <0>         0.0649
     38 H11         8.2205   -7.7681    1.9173 H         1 <0>         0.1099
     39 H12         6.6718   -5.8036    2.0003 H         1 <0>         0.0932
     40 H13         5.9813   -7.1687    1.0888 H         1 <0>         0.0921
     41 H14         2.7113    3.7764   -0.0035 H         1 <0>         0.1382
     42 H15         0.9601    5.4638    0.0234 H         1 <0>         0.1390
     43 H16        -1.4180    4.8318    0.0424 H         1 <0>         0.1429
     44 H17        -2.0454    2.4410    0.0444 H         1 <0>         0.1371
@<TRIPOS>BOND
     1    1    2 1
     2    1   29 1
     3    1   30 1
     4    1   31 1
     5    2    8 1
     6    2    3 2
     7    3   18 1
     8    3    4 1
     9    4    5 2
    10    4   15 1
    11    5    6 1
    12    5   32 1
    13    6    7 2
    14    6    8 am
    15    8    9 1
    16    9   14 1
    17    9   10 1
    18   10   11 1
    19   10   33 1
    20   10   34 1
    21   11   12 1
    22   11   35 1
    23   11   36 1
    24   12   13 1
    25   13   14 1
    26   13   37 1
    27   13   38 1
    28   14   39 1
    29   14   40 1
    30   15   16 1
    31   15   17 1
    32   17   18 am
    33   17   20 1
    34   18   19 2
    35   20   28 1
    36   20   21 2
    37   21   22 1
    38   22   27 ar
    39   22   23 ar
    40   23   24 ar
    41   23   41 1
    42   24   25 ar
    43   24   42 1
    44   25   26 ar
    45   25   43 1
    46   26   27 ar
    47   26   44 1
    48   27   28 1
@<TRIPOS>MOLECULE
ZINC04784790
   42    45     0     0     0
SMALL
USER_CHARGES
3-benzyl-8-(4-fluorophenyl)-2-methyl-3,7,8-triazabicyclo[4.3.0]nona-1,5-diene-4,9-dione
@<TRIPOS>ATOM
      1 C1         -2.4351    2.1118    0.1554 C.3       1 <0>        -0.1518
      2 C2         -0.9800    2.4775    0.0134 C.2       1 <0>         0.3022
      3 C3         -0.0317    1.4912   -0.0721 C.2       1 <0>        -0.3283
      4 C4          1.3837    1.8671   -0.2047 C.2       1 <0>         0.2816
      5 C5          1.7022    3.2070   -0.2426 C.2       1 <0>        -0.3154
      6 C6          0.6706    4.1500   -0.1537 C.2       1 <0>         0.5475
      7 O1          0.9442    5.3390   -0.1869 O.2       1 <0>        -0.5357
      8 N1         -0.6131    3.7746   -0.0332 N.am      1 <0>        -0.4904
      9 C7         -1.6482    4.8076    0.0553 C.3       1 <0>         0.1250
     10 C8         -2.0378    5.2486   -1.3320 C.ar      1 <0>        -0.1212
     11 C9         -1.3010    6.2222   -1.9802 C.ar      1 <0>        -0.0874
     12 C10        -1.6555    6.6233   -3.2547 C.ar      1 <0>        -0.1228
     13 C11        -2.7530    6.0583   -3.8769 C.ar      1 <0>        -0.1075
     14 C12        -3.4930    5.0885   -3.2266 C.ar      1 <0>        -0.1241
     15 C13        -3.1353    4.6836   -1.9542 C.ar      1 <0>        -0.1071
     16 N2          2.0973    0.6953   -0.2624 N.pl3     1 <0>        -0.5009
     17 H1          3.0613    0.6337   -0.3509 H         1 <0>         0.4477
     18 N3          1.2275   -0.3954   -0.1752 N.am      1 <0>        -0.3526
     19 C14        -0.0494    0.0216   -0.0606 C.2       1 <0>         0.5932
     20 O2         -1.0335   -0.6869    0.0345 O.2       1 <0>        -0.4937
     21 C15         1.6274   -1.7365   -0.2033 C.ar      1 <0>         0.1540
     22 C16         0.6798   -2.7468   -0.1042 C.ar      1 <0>        -0.1159
     23 C17         1.0759   -4.0694   -0.1384 C.ar      1 <0>        -0.1163
     24 C18         2.4180   -4.3884   -0.2591 C.ar      1 <0>         0.0822
     25 C19         3.3650   -3.3825   -0.3524 C.ar      1 <0>        -0.1193
     26 C20         2.9727   -2.0586   -0.3248 C.ar      1 <0>        -0.1280
     27 F1          2.8039   -5.6828   -0.2864 F         1 <0>        -0.1350
     28 H2         -2.5292    1.0315    0.2653 H         1 <0>         0.1126
     29 H3         -2.8491    2.6039    1.0355 H         1 <0>         0.0980
     30 H4         -2.9794    2.4356   -0.7317 H         1 <0>         0.1000
     31 H5          2.7298    3.5247   -0.3395 H         1 <0>         0.1553
     32 H6         -2.5218    4.4036    0.5669 H         1 <0>         0.1069
     33 H7         -1.2629    5.6611    0.6132 H         1 <0>         0.1150
     34 H8         -0.4462    6.6668   -1.4923 H         1 <0>         0.1373
     35 H9         -1.0776    7.3813   -3.7626 H         1 <0>         0.1252
     36 H10        -3.0326    6.3749   -4.8709 H         1 <0>         0.1241
     37 H11        -4.3506    4.6473   -3.7126 H         1 <0>         0.1254
     38 H12        -3.7136    3.9262   -1.4460 H         1 <0>         0.1242
     39 H13        -0.3666   -2.4984   -0.0052 H         1 <0>         0.1697
     40 H14         0.3387   -4.8555   -0.0666 H         1 <0>         0.1481
     41 H15         4.4113   -3.6334   -0.4465 H         1 <0>         0.1455
     42 H16         3.7117   -1.2743   -0.3972 H         1 <0>         0.1326
@<TRIPOS>BOND
     1    1    2 1
     2    1   28 1
     3    1   29 1
     4    1   30 1
     5    2    8 1
     6    2    3 2
     7    3   19 1
     8    3    4 1
     9    4    5 2
    10    4   16 1
    11    5    6 1
    12    5   31 1
    13    6    7 2
    14    6    8 am
    15    8    9 1
    16    9   10 1
    17    9   32 1
    18    9   33 1
    19   10   15 ar
    20   10   11 ar
    21   11   12 ar
    22   11   34 1
    23   12   13 ar
    24   12   35 1
    25   13   14 ar
    26   13   36 1
    27   14   15 ar
    28   14   37 1
    29   15   38 1
    30   16   17 1
    31   16   18 1
    32   18   19 am
    33   18   21 1
    34   19   20 2
    35   21   26 ar
    36   21   22 ar
    37   22   23 ar
    38   22   39 1
    39   23   24 ar
    40   23   40 1
    41   24   25 ar
    42   24   27 1
    43   25   26 ar
    44   25   41 1
    45   26   42 1
@<TRIPOS>MOLECULE
ZINC64447975
   44    47     0     0     0
SMALL
USER_CHARGES

@<TRIPOS>ATOM
      1 C1         -0.6213    1.9241    0.0614 C.3       1 <0>        -0.1199
      2 C2         -0.4830    0.4307   -0.0862 C.ar      1 <0>        -0.0842
      3 C3         -0.5655   -0.1511   -1.3363 C.ar      1 <0>        -0.1077
      4 C4         -0.4387   -1.5211   -1.4726 C.ar      1 <0>        -0.1058
      5 C5         -0.2290   -2.3135   -0.3586 C.ar      1 <0>        -0.1086
      6 C6         -0.1455   -1.7382    0.8940 C.ar      1 <0>        -0.0941
      7 C7         -0.2668   -0.3614    1.0337 C.ar      1 <0>         0.1346
      8 N1         -0.1775    0.2250    2.3003 N.am      1 <0>        -0.3657
      9 C8         -0.9311   -0.1249    3.3620 C.2       1 <0>         0.5928
     10 O1         -1.7888   -0.9871    3.3846 O.2       1 <0>        -0.4987
     11 C9         -0.5238    0.7284    4.4870 C.2       1 <0>        -0.3306
     12 C10        -0.9020    0.8577    5.7985 C.2       1 <0>         0.3057
     13 N2         -0.3042    1.7736    6.5878 N.am      1 <0>        -0.4920
     14 C11         0.6669    2.5826    6.1343 C.2       1 <0>         0.5469
     15 O2          1.1719    3.3933    6.8943 O.2       1 <0>        -0.5434
     16 C12         1.1133    2.5162    4.8085 C.2       1 <0>        -0.3270
     17 C13         0.5371    1.5983    3.9578 C.2       1 <0>         0.2855
     18 N3          0.7096    1.2502    2.6407 N.pl3     1 <0>        -0.4983
     19 H1          1.3497    1.6570    2.0360 H         1 <0>         0.4445
     20 C14        -0.7285    1.8899    7.9852 C.3       1 <0>         0.1348
     21 C15         0.0231    0.8880    8.8234 C.ar      1 <0>         0.0947
     22 C16         1.1712    1.2773    9.4874 C.ar      1 <0>        -0.1399
     23 C17         1.8551    0.3480   10.2558 C.ar      1 <0>        -0.0760
     24 C18         1.3564   -0.9440   10.3279 C.ar      1 <0>        -0.1614
     25 C19         0.2025   -1.2599    9.6364 C.ar      1 <0>         0.0981
     26 N4         -0.4251   -0.3483    8.9192 N.ar      1 <0>        -0.4718
     27 C20        -1.9878   -0.0245    6.3588 C.3       1 <0>        -0.1384
     28 H2          0.3603    2.3901   -0.0240 H         1 <0>         0.0716
     29 H3         -1.2750    2.3076   -0.7219 H         1 <0>         0.0764
     30 H4         -1.0493    2.1546    1.0370 H         1 <0>         0.0687
     31 H5         -0.7296    0.4649   -2.2081 H         1 <0>         0.1325
     32 H6         -0.5039   -1.9735   -2.4511 H         1 <0>         0.1314
     33 H7         -0.1307   -3.3834   -0.4684 H         1 <0>         0.1340
     34 H8          0.0179   -2.3575    1.7635 H         1 <0>         0.1306
     35 H9          1.8954    3.1738    4.4588 H         1 <0>         0.1531
     36 H10        -0.5178    2.8965    8.3463 H         1 <0>         0.1260
     37 H11        -1.7983    1.6944    8.0576 H         1 <0>         0.1152
     38 H12         1.5311    2.2925    9.4084 H         1 <0>         0.1434
     39 H13         2.7551    0.6235   10.7854 H         1 <0>         0.1384
     40 H14         1.8636   -1.6938   10.9169 H         1 <0>         0.1382
     41 H15        -0.1923   -2.2638    9.6874 H         1 <0>         0.1605
     42 H16        -1.5377   -0.8882    6.8482 H         1 <0>         0.1141
     43 H17        -2.5755    0.5386    7.0838 H         1 <0>         0.0894
     44 H18        -2.6355   -0.3619    5.5496 H         1 <0>         0.1022
@<TRIPOS>BOND
     1    1    2 1
     2    1   28 1
     3    1   29 1
     4    1   30 1
     5    2    7 ar
     6    2    3 ar
     7    3    4 ar
     8    3   31 1
     9    4    5 ar
    10    4   32 1
    11    5    6 ar
    12    5   33 1
    13    6    7 ar
    14    6   34 1
    15    7    8 1
    16    8   18 1
    17    8    9 am
    18    9   10 2
    19    9   11 1
    20   11   17 1
    21   11   12 2
    22   12   13 1
    23   12   27 1
    24   13   14 am
    25   13   20 1
    26   14   15 2
    27   14   16 1
    28   16   17 2
    29   16   35 1
    30   17   18 1
    31   18   19 1
    32   20   21 1
    33   20   36 1
    34   20   37 1
    35   21   26 ar
    36   21   22 ar
    37   22   23 ar
    38   22   38 1
    39   23   24 ar
    40   23   39 1
    41   24   25 ar
    42   24   40 1
    43   25   26 ar
    44   25   41 1
    45   27   42 1
    46   27   43 1
    47   27   44 1
@<TRIPOS>MOLECULE
ZINC13732187
   31    32     0     0     0
SMALL
USER_CHARGES
2-hydroxy-5-[(2-hydroxyphenyl)methylamino]benzoic acid
@<TRIPOS>ATOM
      1 C1         -1.0563   -8.4867    0.8387 C.ar      1 <0>        -0.1324
      2 C2          0.1268   -9.1168    0.4988 C.ar      1 <0>        -0.0999
      3 C3          1.2967   -8.3884    0.4059 C.ar      1 <0>        -0.1501
      4 C4          1.2841   -7.0233    0.6539 C.ar      1 <0>         0.1244
      5 C5          0.0961   -6.3936    0.9946 C.ar      1 <0>        -0.1295
      6 C6         -1.0705   -7.1276    1.0914 C.ar      1 <0>        -0.0856
      7 C7          0.0789   -4.9111    1.2650 C.3       1 <0>         0.1800
      8 N1          0.0574   -4.1830   -0.0060 N.pl3     1 <0>        -0.7455
      9 C8          0.0388   -2.7835   -0.0107 C.ar      1 <0>         0.1855
     10 C9          0.0408   -2.0854    1.1929 C.ar      1 <0>        -0.1844
     11 C10         0.0230   -0.7055    1.1982 C.ar      1 <0>        -0.1224
     12 C11         0.0021   -0.0041    0.0020 C.ar      1 <0>         0.0810
     13 C12        -0.0058   -0.6999   -1.2144 C.ar      1 <0>        -0.0964
     14 C13         0.0190   -2.0974   -1.2122 C.ar      1 <0>        -0.1310
     15 C14        -0.0336    0.0384   -2.4899 C.2       1 <0>         0.4877
     16 O1         -0.0497    1.2534   -2.4884 O.co2     1 <0>        -0.6148
     17 O2         -0.0163    1.3531    0.0095 O.3       1 <0>        -0.4771
     18 O3          2.4339   -6.3045    0.5635 O.3       1 <0>        -0.4892
     19 H1         -1.9700   -9.0580    0.9109 H         1 <0>         0.1258
     20 H2          0.1361  -10.1795    0.3063 H         1 <0>         0.1259
     21 H3          2.2205   -8.8811    0.1408 H         1 <0>         0.1287
     22 H4         -1.9949   -6.6385    1.3606 H         1 <0>         0.1289
     23 H5          0.9706   -4.6341    1.8274 H         1 <0>         0.0612
     24 H6         -0.8092   -4.6577    1.8440 H         1 <0>         0.0617
     25 H7          0.0561   -4.6709   -0.8444 H         1 <0>         0.3988
     26 H8          0.0566   -2.6261    2.1276 H         1 <0>         0.1140
     27 H9          0.0249   -0.1704    2.1363 H         1 <0>         0.1193
     28 H10         0.0175   -2.6404   -2.1458 H         1 <0>         0.1302
     29 H11         0.8616    1.7584    0.0033 H         1 <0>         0.3764
     30 H12         2.9301   -6.2504    1.3917 H         1 <0>         0.3890
     31 O4         -0.0412   -0.6340   -3.6576 O.co2     1 <0>        -0.7601
@<TRIPOS>BOND
     1    1    6 ar
     2    1    2 ar
     3    1   19 1
     4    2    3 ar
     5    2   20 1
     6    3    4 ar
     7    3   21 1
     8    4    5 ar
     9    4   18 1
    10    5    6 ar
    11    5    7 1
    12    6   22 1
    13    7    8 1
    14    7   23 1
    15    7   24 1
    16    8    9 1
    17    8   25 1
    18    9   14 ar
    19    9   10 ar
    20   10   11 ar
    21   10   26 1
    22   11   12 ar
    23   11   27 1
    24   12   13 ar
    25   12   17 1
    26   13   14 ar
    27   13   15 1
    28   14   28 1
    29   15   16 2
    30   15   31 1
    31   17   29 1
    32   18   30 1
@<TRIPOS>MOLECULE
ZINC03869768
   31    33     0     0     0
SMALL
USER_CHARGES

@<TRIPOS>ATOM
      1 C1          0.9745   -0.2752   -0.9649 C.ar      1 <0>        -0.0474
      2 C2          2.1550    0.4346   -0.9693 C.ar      1 <0>        -0.1488
      3 C3          2.3800    1.4188   -0.0145 C.ar      1 <0>         0.1280
      4 C4          1.4162    1.6917    0.9485 C.ar      1 <0>        -0.1504
      5 C5          0.2327    0.9869    0.9606 C.ar      1 <0>        -0.0665
      6 C6          0.0021   -0.0041    0.0020 C.ar      1 <0>        -0.0625
      7 C7         -1.2634   -0.7608    0.0105 C.2       1 <0>         0.1356
      8 C8         -1.2167   -2.1184   -0.0957 C.2       1 <0>        -0.0454
      9 C9         -2.4259   -2.8610   -0.0886 C.2       1 <0>         0.4007
     10 O1         -2.4232   -4.0781   -0.1814 O.2       1 <0>        -0.4492
     11 C10        -3.6832   -2.1065    0.0355 C.ar      1 <0>        -0.2689
     12 C11        -4.9234   -2.7585    0.0517 C.ar      1 <0>         0.2243
     13 C12        -6.0821   -2.0144    0.1703 C.ar      1 <0>        -0.2086
     14 C13        -6.0155   -0.6287    0.2722 C.ar      1 <0>         0.1994
     15 C14        -4.7926    0.0230    0.2564 C.ar      1 <0>        -0.1859
     16 C15        -3.6188   -0.7060    0.1392 C.ar      1 <0>         0.1873
     17 O2         -2.4200   -0.0864    0.1283 O.3       1 <0>        -0.1981
     18 O3         -7.1599    0.0925    0.3877 O.3       1 <0>        -0.4869
     19 O4         -4.9864   -4.1104   -0.0487 O.3       1 <0>        -0.4727
     20 O5         -0.0202   -2.7570   -0.2082 O.3       1 <0>        -0.4492
     21 O6          3.5454    2.1157   -0.0224 O.3       1 <0>        -0.4978
     22 H1          0.7987   -1.0369   -1.7101 H         1 <0>         0.1366
     23 H2          2.9071    0.2256   -1.7157 H         1 <0>         0.1375
     24 H3          1.5954    2.4572    1.6889 H         1 <0>         0.1366
     25 H4         -0.5157    1.1995    1.7097 H         1 <0>         0.1340
     26 H5         -7.0416   -2.5100    0.1835 H         1 <0>         0.1512
     27 H6         -4.7536    1.0994    0.3359 H         1 <0>         0.1553
     28 H7         -7.4448    0.2345    1.3008 H         1 <0>         0.4049
     29 H8         -4.9577   -4.5698    0.8018 H         1 <0>         0.4037
     30 H9         -0.0926   -3.7187   -0.2778 H         1 <0>         0.4073
     31 H10         3.5195    2.9194   -0.5594 H         1 <0>         0.3958
@<TRIPOS>BOND
     1    1    6 ar
     2    1    2 ar
     3    1   22 1
     4    2    3 ar
     5    2   23 1
     6    3    4 ar
     7    3   21 1
     8    4    5 ar
     9    4   24 1
    10    5    6 ar
    11    5   25 1
    12    6    7 1
    13    7   17 1
    14    7    8 2
    15    8    9 1
    16    8   20 1
    17    9   10 2
    18    9   11 1
    19   11   16 ar
    20   11   12 ar
    21   12   13 ar
    22   12   19 1
    23   13   14 ar
    24   13   26 1
    25   14   15 ar
    26   14   18 1
    27   15   16 ar
    28   15   27 1
    29   16   17 1
    30   18   28 1
    31   19   29 1
    32   20   30 1
    33   21   31 1
@<TRIPOS>MOLECULE
ZINC03869768
   30    32     0     0     0
SMALL
USER_CHARGES

@<TRIPOS>ATOM
      1 C1          0.1387    1.1253   -0.8121 C.ar      1 <0>        -0.0723
      2 C2          1.3222    1.8291   -0.8163 C.ar      1 <0>        -0.1492
      3 C3          2.3802    1.4188   -0.0136 C.ar      1 <0>         0.1107
      4 C4          2.2493    0.2973    0.7970 C.ar      1 <0>        -0.1487
      5 C5          1.0698   -0.4131    0.8081 C.ar      1 <0>        -0.0549
      6 C6          0.0021   -0.0041    0.0020 C.ar      1 <0>        -0.0373
      7 C7         -1.2618   -0.7600    0.0105 C.2       1 <0>         0.1024
      8 C8         -1.2272   -2.1382   -0.0967 C.2       1 <0>        -0.0073
      9 C9         -2.4246   -2.8649   -0.0894 C.2       1 <0>         0.3353
     10 C10        -3.6396   -2.1555    0.0286 C.2       1 <0>        -0.3335
     11 C11        -4.8747   -2.8371    0.0419 C.2       1 <0>         0.2665
     12 C12        -6.0380   -2.1324    0.1573 C.2       1 <0>        -0.3754
     13 C13        -6.0102   -0.7324    0.2627 C.2       1 <0>         0.3645
     14 O1         -7.1532   -0.0530    0.3751 O.2       1 <0>        -0.6613
     15 C14        -4.7917   -0.0455    0.2513 C.2       1 <0>        -0.3154
     16 C15        -3.6071   -0.7470    0.1346 C.2       1 <0>         0.2120
     17 O2         -2.4247   -0.0966    0.1278 O.3       1 <0>        -0.2026
     18 O3         -4.9062   -4.1898   -0.0602 O.3       1 <0>        -0.4482
     19 O4         -2.4171   -4.2129   -0.1933 O.3       1 <0>        -0.5752
     20 O5         -0.0356   -2.7853   -0.2091 O.3       1 <0>        -0.4646
     21 O6          3.5454    2.1154   -0.0218 O.3       1 <0>        -0.5000
     22 H1         -0.6842    1.4472   -1.4330 H         1 <0>         0.1347
     23 H2          1.4286    2.7011   -1.4445 H         1 <0>         0.1321
     24 H3          3.0741   -0.0177    1.4190 H         1 <0>         0.1323
     25 H4          0.9692   -1.2847    1.4377 H         1 <0>         0.1358
     26 H5         -6.9838   -2.6538    0.1671 H         1 <0>         0.1177
     27 H6         -4.7769    1.0313    0.3327 H         1 <0>         0.1225
     28 H7         -5.7973   -4.5650   -0.0417 H         1 <0>         0.3845
     29 H8         -0.1151   -3.7466   -0.2784 H         1 <0>         0.4051
     30 H9          3.5829    2.8269    0.6320 H         1 <0>         0.3897
@<TRIPOS>BOND
     1    1    6 ar
     2    1    2 ar
     3    1   22 1
     4    2    3 ar
     5    2   23 1
     6    3    4 ar
     7    3   21 1
     8    4    5 ar
     9    4   24 1
    10    5    6 ar
    11    5   25 1
    12    6    7 1
    13    7   17 1
    14    7    8 2
    15    8    9 1
    16    8   20 1
    17    9   10 2
    18    9   19 1
    19   10   16 1
    20   10   11 1
    21   11   12 2
    22   11   18 1
    23   12   13 1
    24   12   26 1
    25   13   14 2
    26   13   15 1
    27   15   16 2
    28   15   27 1
    29   16   17 1
    30   18   28 1
    31   20   29 1
    32   21   30 1
@<TRIPOS>MOLECULE
ZINC18185774
   31    33     0     0     0
SMALL
USER_CHARGES

@<TRIPOS>ATOM
      1 C1         -0.0169    1.3929    0.0097 C.ar      1 <0>        -0.0705
      2 C2          1.1675    2.0983    0.0022 C.ar      1 <0>        -0.1309
      3 C3          2.3803    1.4240   -0.0135 C.ar      1 <0>         0.1099
      4 C4          2.4067    0.0300   -0.0212 C.ar      1 <0>         0.0792
      5 C5          1.2240   -0.6832   -0.0138 C.ar      1 <0>        -0.0904
      6 C6          0.0021   -0.0041    0.0020 C.ar      1 <0>        -0.0661
      7 C7         -1.2642   -0.7606    0.0105 C.2       1 <0>         0.2069
      8 C8         -2.4374   -0.0724    0.0203 C.2       1 <0>        -0.3067
      9 C9         -3.6620   -0.7813    0.0286 C.2       1 <0>         0.4226
     10 O1         -4.7331   -0.1964    0.0371 O.2       1 <0>        -0.4521
     11 C10        -3.5935   -2.2524    0.0260 C.ar      1 <0>        -0.2661
     12 C11        -4.7554   -3.0344    0.0332 C.ar      1 <0>         0.2196
     13 C12        -4.6484   -4.4128    0.0300 C.ar      1 <0>        -0.2046
     14 C13        -3.3955   -5.0163    0.0203 C.ar      1 <0>         0.1928
     15 C14        -2.2415   -4.2483    0.0131 C.ar      1 <0>        -0.1829
     16 C15        -2.3286   -2.8648    0.0157 C.ar      1 <0>         0.1832
     17 O2         -1.2147   -2.1022    0.0028 O.3       1 <0>        -0.2181
     18 O3         -3.3016   -6.3705    0.0182 O.3       1 <0>        -0.4872
     19 O4         -5.9771   -2.4436    0.0436 O.3       1 <0>        -0.4722
     20 O5          3.5971   -0.6274   -0.0366 O.3       1 <0>        -0.4831
     21 O6          3.5446    2.1239   -0.0217 O.3       1 <0>        -0.4848
     22 H1         -0.9593    1.9201    0.0260 H         1 <0>         0.1451
     23 H2          1.1515    3.1781    0.0081 H         1 <0>         0.1468
     24 H3          1.2430   -1.7630   -0.0205 H         1 <0>         0.1466
     25 H4         -2.4342    1.0076    0.0222 H         1 <0>         0.1649
     26 H5         -5.5400   -5.0224    0.0355 H         1 <0>         0.1504
     27 H6         -1.2739   -4.7281    0.0059 H         1 <0>         0.1535
     28 H7         -3.2809   -6.7620   -0.8658 H         1 <0>         0.4041
     29 H8         -6.3379   -2.2705   -0.8367 H         1 <0>         0.4034
     30 H9          3.9502   -0.8223    0.8423 H         1 <0>         0.3919
     31 H10         3.8907    2.3221    0.8592 H         1 <0>         0.3948
@<TRIPOS>BOND
     1    1    6 ar
     2    1    2 ar
     3    1   22 1
     4    2    3 ar
     5    2   23 1
     6    3    4 ar
     7    3   21 1
     8    4    5 ar
     9    4   20 1
    10    5    6 ar
    11    5   24 1
    12    6    7 1
    13    7   17 1
    14    7    8 2
    15    8    9 1
    16    8   25 1
    17    9   10 2
    18    9   11 1
    19   11   16 ar
    20   11   12 ar
    21   12   13 ar
    22   12   19 1
    23   13   14 ar
    24   13   26 1
    25   14   15 ar
    26   14   18 1
    27   15   16 ar
    28   15   27 1
    29   16   17 1
    30   18   28 1
    31   19   29 1
    32   20   30 1
    33   21   31 1
@<TRIPOS>MOLECULE
ZINC05732362
   38    40     0     0     0
SMALL
USER_CHARGES
2-(3,4-dihydroxyphenyl)-5-hydroxy-3,7-dimethoxy-chromen-4-one
@<TRIPOS>ATOM
      1 C1          0.4676    1.1352    0.2511 C.3       1 <0>         0.0176
      2 O1         -0.1973    1.5936    1.4300 O.3       1 <0>        -0.3002
      3 C2         -0.4598    2.9230    1.5122 C.ar      1 <0>         0.2396
      4 C3         -0.0809    3.7653    0.4720 C.ar      1 <0>        -0.2927
      5 C4         -0.3436    5.1203    0.5449 C.ar      1 <0>         0.3028
      6 C5         -0.9936    5.6376    1.6734 C.ar      1 <0>        -0.3566
      7 C6         -1.3754    4.7841    2.7231 C.ar      1 <0>         0.2238
      8 C7         -1.1077    3.4267    2.6289 C.ar      1 <0>        -0.2225
      9 O2         -2.0013    5.2903    3.8062 O.3       1 <0>        -0.2014
     10 C8         -2.2813    6.5993    3.9280 C.2       1 <0>         0.2026
     11 C9         -1.9539    7.5091    2.9680 C.2       1 <0>        -0.0929
     12 C10        -1.2925    7.0737    1.7905 C.2       1 <0>         0.4291
     13 O3         -0.9832    7.8598    0.9093 O.2       1 <0>        -0.4790
     14 O4         -2.2590    8.8245    3.1370 O.3       1 <0>        -0.2955
     15 C11        -3.4787    9.2876    2.5540 C.3       1 <0>         0.0255
     16 C12        -2.9687    7.0679    5.1454 C.ar      1 <0>        -0.0862
     17 C13        -4.1093    6.4039    5.6056 C.ar      1 <0>        -0.0705
     18 C14        -4.7501    6.8434    6.7440 C.ar      1 <0>        -0.1377
     19 C15        -4.2654    7.9444    7.4361 C.ar      1 <0>         0.1591
     20 C16        -3.1286    8.6114    6.9831 C.ar      1 <0>         0.0591
     21 C17        -2.4780    8.1739    5.8454 C.ar      1 <0>        -0.1110
     22 O5         -2.6569    9.6902    7.6637 O.3       1 <0>        -0.5169
     23 O6         -4.9005    8.3729    8.5583 O.3       1 <0>        -0.5015
     24 O7          0.0249    5.9436   -0.4691 O.3       1 <0>        -0.5025
     25 H1          0.6174    0.0473    0.3142 H         1 <0>         0.1103
     26 H2          1.4434    1.6352    0.1626 H         1 <0>         0.0651
     27 H3         -0.1462    1.3703   -0.6309 H         1 <0>         0.0650
     28 H4          0.4194    3.3594   -0.3948 H         1 <0>         0.1496
     29 H5         -1.4009    2.7621    3.4282 H         1 <0>         0.1550
     30 H6         -3.6016   10.3602    2.7645 H         1 <0>         0.0995
     31 H7         -4.3247    8.7305    2.9828 H         1 <0>         0.0468
     32 H8         -3.4486    9.1286    1.4660 H         1 <0>         0.0507
     33 H9         -4.4883    5.5464    5.0694 H         1 <0>         0.1384
     34 H10        -5.6314    6.3294    7.0986 H         1 <0>         0.1445
     35 H11        -1.5944    8.6872    5.4958 H         1 <0>         0.1419
     36 H12        -1.7597   10.2167    7.3063 H         1 <0>         0.4454
     37 H13        -4.5175    9.2454    9.1079 H         1 <0>         0.4447
     38 H14        -0.1862    7.0214   -0.4069 H         1 <0>         0.4513
@<TRIPOS>BOND
     1    1    2 1
     2    1   25 1
     3    1   26 1
     4    1   27 1
     5    2    3 1
     6    3    8 ar
     7    3    4 ar
     8    4    5 ar
     9    4   28 1
    10    5    6 ar
    11    5   24 1
    12    6   12 1
    13    6    7 ar
    14    7    8 ar
    15    7    9 1
    16    8   29 1
    17    9   10 1
    18   10   11 2
    19   10   16 1
    20   11   12 1
    21   11   14 1
    22   12   13 2
    23   14   15 1
    24   15   30 1
    25   15   31 1
    26   15   32 1
    27   16   21 ar
    28   16   17 ar
    29   17   18 ar
    30   17   33 1
    31   18   19 ar
    32   18   34 1
    33   19   20 ar
    34   19   23 1
    35   20   21 ar
    36   20   22 1
    37   21   35 1
    38   22   36 1
    39   23   37 1
    40   24   38 1
@<TRIPOS>MOLECULE
ZINC03871576
   30    32     0     0     0
SMALL
USER_CHARGES

@<TRIPOS>ATOM
      1 C1         -0.0169    1.3935    0.0097 C.ar      1 <0>        -0.0604
      2 C2          1.1676    2.0963    0.0022 C.ar      1 <0>        -0.1497
      3 C3          2.3803    1.4179   -0.0135 C.ar      1 <0>         0.1360
      4 C4          2.4038    0.0284   -0.0212 C.ar      1 <0>        -0.1474
      5 C5          1.2241   -0.6823   -0.0133 C.ar      1 <0>        -0.0612
      6 C6          0.0021   -0.0041    0.0020 C.ar      1 <0>        -0.0853
      7 C7         -1.2639   -0.7610    0.0105 C.2       1 <0>         0.2092
      8 C8         -1.2134   -2.1203    0.0083 C.2       1 <0>        -0.3116
      9 C9         -2.4177   -2.8631    0.0169 C.2       1 <0>         0.4226
     10 O1         -2.4099   -4.0836    0.0156 O.2       1 <0>        -0.4538
     11 C10        -3.6809   -2.1061    0.0279 C.ar      1 <0>        -0.2659
     12 C11        -4.9199   -2.7591    0.0374 C.ar      1 <0>         0.2192
     13 C12        -6.0832   -2.0121    0.0480 C.ar      1 <0>        -0.2049
     14 C13        -6.0212   -0.6227    0.0493 C.ar      1 <0>         0.1922
     15 C14        -4.7984    0.0300    0.0400 C.ar      1 <0>        -0.1830
     16 C15        -3.6212   -0.7020    0.0293 C.ar      1 <0>         0.1830
     17 O2         -2.4220   -0.0821    0.0257 O.3       1 <0>        -0.2182
     18 O3         -7.1695    0.1013    0.0593 O.3       1 <0>        -0.4872
     19 O4         -4.9782   -4.1150    0.0356 O.3       1 <0>        -0.4722
     20 O5          3.5455    2.1145   -0.0218 O.3       1 <0>        -0.4965
     21 H1         -0.9589    1.9215    0.0260 H         1 <0>         0.1404
     22 H2          1.1538    3.1762    0.0081 H         1 <0>         0.1393
     23 H3          3.3485   -0.4949   -0.0338 H         1 <0>         0.1414
     24 H4          1.2432   -1.7622   -0.0196 H         1 <0>         0.1415
     25 H5         -0.2608   -2.6290   -0.0002 H         1 <0>         0.1637
     26 H6         -7.0423   -2.5086    0.0550 H         1 <0>         0.1502
     27 H7         -4.7627    1.1094    0.0411 H         1 <0>         0.1534
     28 H8         -7.4952    0.3100    0.9456 H         1 <0>         0.4037
     29 H9         -4.9875   -4.5094    0.9185 H         1 <0>         0.4031
     30 H10         3.8920    2.3119    0.8591 H         1 <0>         0.3984
@<TRIPOS>BOND
     1    1    6 ar
     2    1    2 ar
     3    1   21 1
     4    2    3 ar
     5    2   22 1
     6    3    4 ar
     7    3   20 1
     8    4    5 ar
     9    4   23 1
    10    5    6 ar
    11    5   24 1
    12    6    7 1
    13    7   17 1
    14    7    8 2
    15    8    9 1
    16    8   25 1
    17    9   10 2
    18    9   11 1
    19   11   16 ar
    20   11   12 ar
    21   12   13 ar
    22   12   19 1
    23   13   14 ar
    24   13   26 1
    25   14   15 ar
    26   14   18 1
    27   15   16 ar
    28   15   27 1
    29   16   17 1
    30   18   28 1
    31   19   29 1
    32   20   30 1
@<TRIPOS>MOLECULE
ZINC03871576
   29    31     0     0     0
SMALL
USER_CHARGES

@<TRIPOS>ATOM
      1 C1         -0.0169    1.3945    0.0097 C.ar      1 <0>        -0.0666
      2 C2          1.1672    2.0969    0.0022 C.ar      1 <0>        -0.1480
      3 C3          2.3804    1.4183   -0.0135 C.ar      1 <0>         0.1175
      4 C4          2.4042    0.0284   -0.0212 C.ar      1 <0>        -0.1471
      5 C5          1.2251   -0.6825   -0.0138 C.ar      1 <0>        -0.0696
      6 C6          0.0021   -0.0041    0.0020 C.ar      1 <0>        -0.0607
      7 C7         -1.2623   -0.7603    0.0105 C.2       1 <0>         0.1733
      8 C8         -1.2238   -2.1392    0.0085 C.2       1 <0>        -0.2675
      9 C9         -2.4161   -2.8666    0.0170 C.2       1 <0>         0.3649
     10 C10        -3.6370   -2.1554    0.0275 C.2       1 <0>        -0.3407
     11 C11        -4.8707   -2.8387    0.0369 C.2       1 <0>         0.2653
     12 C12        -6.0384   -2.1317    0.0475 C.2       1 <0>        -0.3780
     13 C13        -6.0158   -0.7277    0.0485 C.2       1 <0>         0.3615
     14 O1         -7.1627   -0.0461    0.0589 O.2       1 <0>        -0.6669
     15 C14        -4.7977   -0.0391    0.0393 C.2       1 <0>        -0.3147
     16 C15        -3.6098   -0.7430    0.0291 C.2       1 <0>         0.2111
     17 O2         -2.4272   -0.0920    0.0257 O.3       1 <0>        -0.2196
     18 O3         -4.8969   -4.1953    0.0351 O.3       1 <0>        -0.4477
     19 O4         -2.4024   -4.2178    0.0147 O.3       1 <0>        -0.5784
     20 O5          3.5452    2.1149   -0.0218 O.3       1 <0>        -0.4988
     21 H1         -0.9589    1.9225    0.0260 H         1 <0>         0.1416
     22 H2          1.1536    3.1768    0.0081 H         1 <0>         0.1349
     23 H3          3.3490   -0.4946   -0.0334 H         1 <0>         0.1360
     24 H4          1.2446   -1.7623   -0.0201 H         1 <0>         0.1407
     25 H5         -0.2747   -2.6546   -0.0001 H         1 <0>         0.1464
     26 H6         -6.9835   -2.6543    0.0547 H         1 <0>         0.1160
     27 H7         -4.7867    1.0408    0.0398 H         1 <0>         0.1203
     28 H8         -5.7877   -4.5715    0.0420 H         1 <0>         0.3828
     29 H9          3.8917    2.3124    0.8591 H         1 <0>         0.3921
@<TRIPOS>BOND
     1    1    6 ar
     2    1    2 ar
     3    1   21 1
     4    2    3 ar
     5    2   22 1
     6    3    4 ar
     7    3   20 1
     8    4    5 ar
     9    4   23 1
    10    5    6 ar
    11    5   24 1
    12    6    7 1
    13    7   17 1
    14    7    8 2
    15    8    9 1
    16    8   25 1
    17    9   10 2
    18    9   19 1
    19   10   16 1
    20   10   11 1
    21   11   12 2
    22   11   18 1
    23   12   13 1
    24   12   26 1
    25   13   14 2
    26   13   15 1
    27   15   16 2
    28   15   27 1
    29   16   17 1
    30   18   28 1
    31   20   29 1
@<TRIPOS>MOLECULE
ZINC00388549
   32    33     0     0     0
SMALL
USER_CHARGES

@<TRIPOS>ATOM
      1 C1         -0.0168    1.3871    0.0097 C.ar      1 <0>        -0.1873
      2 C2          1.1646    2.1008    0.0022 C.ar      1 <0>        -0.1242
      3 C3          2.3809    1.4354   -0.0134 C.ar      1 <0>         0.0834
      4 C4          2.4089    0.0328   -0.0213 C.ar      1 <0>        -0.1167
      5 C5          1.2076   -0.6831   -0.0132 C.ar      1 <0>        -0.1379
      6 C6          0.0021   -0.0041    0.0020 C.ar      1 <0>         0.1845
      7 N1         -1.2015   -0.7185    0.0097 N.pl3     1 <0>        -0.7465
      8 C7         -2.4789   -0.0015    0.0258 C.3       1 <0>         0.1800
      9 C8         -3.6124   -0.9946    0.0313 C.ar      1 <0>        -0.1118
     10 C9         -4.2763   -1.2915   -1.1433 C.ar      1 <0>        -0.1100
     11 C10        -5.3191   -2.2057   -1.1383 C.ar      1 <0>         0.0927
     12 C11        -5.6954   -2.8221    0.0461 C.ar      1 <0>        -0.1247
     13 C12        -5.0316   -2.5253    1.2202 C.ar      1 <0>        -0.1324
     14 C13        -3.9851   -1.6147    1.2143 C.ar      1 <0>         0.1170
     15 O1         -3.3279   -1.3267    2.3694 O.3       1 <0>        -0.4874
     16 O2         -5.9729   -2.4976   -2.2943 O.3       1 <0>        -0.4989
     17 C14         3.6956   -0.6813   -0.0384 C.2       1 <0>         0.5186
     18 O3          3.7163   -1.9046   -0.0452 O.co2     1 <0>        -0.6931
     19 O4          4.7446   -0.0518   -0.0458 O.co2     1 <0>        -0.6706
     20 O5          3.5412    2.1390   -0.0216 O.3       1 <0>        -0.4753
     21 H1         -0.9609    1.9113    0.0260 H         1 <0>         0.1126
     22 H2          1.1416    3.1805    0.0083 H         1 <0>         0.1175
     23 H3          1.2208   -1.7630   -0.0195 H         1 <0>         0.1258
     24 H4         -1.1897   -1.6884    0.0044 H         1 <0>         0.3978
     25 H5         -2.5357    0.6196    0.9197 H         1 <0>         0.0636
     26 H6         -2.5527    0.6292   -0.8602 H         1 <0>         0.0628
     27 H7         -3.9836   -0.8113   -2.0653 H         1 <0>         0.1356
     28 H8         -6.5077   -3.5338    0.0500 H         1 <0>         0.1327
     29 H9         -5.3251   -3.0046    2.1425 H         1 <0>         0.1345
     30 H10        -3.7096   -0.5899    2.8659 H         1 <0>         0.3901
     31 H11        -5.5896   -3.2358   -2.7874 H         1 <0>         0.3920
     32 H12         3.8865    2.3384    0.8593 H         1 <0>         0.3756
@<TRIPOS>BOND
     1    1    6 ar
     2    1    2 ar
     3    1   21 1
     4    2    3 ar
     5    2   22 1
     6    3    4 ar
     7    3   20 1
     8    4    5 ar
     9    4   17 1
    10    5    6 ar
    11    5   23 1
    12    6    7 1
    13    7    8 1
    14    7   24 1
    15    8    9 1
    16    8   25 1
    17    8   26 1
    18    9   14 ar
    19    9   10 ar
    20   10   11 ar
    21   10   27 1
    22   11   12 ar
    23   11   16 1
    24   12   13 ar
    25   12   28 1
    26   13   14 ar
    27   13   29 1
    28   14   15 1
    29   15   30 1
    30   16   31 1
    31   17   18 2
    32   17   19 1
    33   20   32 1
@<TRIPOS>MOLECULE
ZINC05998785
   35    37     0     0     0
SMALL
USER_CHARGES
2-(3,4-dihydroxyphenyl)-3,7-dihydroxy-5-methoxy-chromen-4-one
@<TRIPOS>ATOM
      1 C1          0.1164   -3.2340   -4.6837 C.3       1 <0>         0.0146
      2 O1          0.1395   -2.3745   -3.5424 O.3       1 <0>        -0.2770
      3 C2         -0.0045   -2.9604   -2.3267 C.ar      1 <0>         0.2606
      4 C3         -0.1646   -4.3301   -2.2284 C.ar      1 <0>        -0.2918
      5 C4         -0.3128   -4.9285   -0.9819 C.ar      1 <0>         0.2677
      6 C5         -0.3018   -4.1645    0.1747 C.ar      1 <0>        -0.2850
      7 C6         -0.1420   -2.7896    0.0970 C.ar      1 <0>         0.2329
      8 C7          0.0081   -2.1819   -1.1622 C.ar      1 <0>        -0.2970
      9 C8          0.1699   -0.7205   -1.2229 C.2       1 <0>         0.4321
     10 O2          0.2987   -0.1404   -2.2892 O.2       1 <0>        -0.4298
     11 C9          0.1753   -0.0125    0.0068 C.2       1 <0>        -0.0007
     12 C10         0.0226   -0.6971    1.1750 C.2       1 <0>         0.0554
     13 O3         -0.1295   -2.0320    1.2137 O.3       1 <0>        -0.2034
     14 C11         0.0238    0.0544    2.4436 C.ar      1 <0>        -0.0615
     15 C12         0.8172   -0.3747    3.5113 C.ar      1 <0>        -0.0754
     16 C13         0.8173    0.3294    4.6962 C.ar      1 <0>        -0.1252
     17 C14         0.0312    1.4651    4.8324 C.ar      1 <0>         0.1481
     18 C15        -0.7624    1.8989    3.7721 C.ar      1 <0>         0.0762
     19 C16        -0.7640    1.2009    2.5795 C.ar      1 <0>        -0.1743
     20 O4         -1.5314    3.0121    3.9093 O.3       1 <0>        -0.5150
     21 O5          0.0357    2.1561    6.0024 O.3       1 <0>        -0.5017
     22 O6          0.3261    1.3400    0.0191 O.3       1 <0>        -0.4769
     23 O7         -0.4694   -6.2744   -0.8969 O.3       1 <0>        -0.4940
     24 H1          0.2425   -2.6341   -5.5971 H         1 <0>         0.1102
     25 H2         -0.8463   -3.7647   -4.7236 H         1 <0>         0.0634
     26 H3          0.9352   -3.9648   -4.6090 H         1 <0>         0.0635
     27 H4         -0.1749   -4.9368   -3.1218 H         1 <0>         0.1484
     28 H5         -0.4175   -4.6407    1.1371 H         1 <0>         0.1494
     29 H6          1.4304   -1.2577    3.4078 H         1 <0>         0.1394
     30 H7          1.4308   -0.0031    5.5205 H         1 <0>         0.1448
     31 H8         -1.3752    1.5385    1.7556 H         1 <0>         0.1429
     32 H9         -2.1578    3.3545    3.0724 H         1 <0>         0.4466
     33 H10        -0.5868    3.0564    6.1118 H         1 <0>         0.4446
     34 H11         0.3296    1.8843    0.9750 H         1 <0>         0.4215
     35 H12        -0.5871   -6.7534    0.0863 H         1 <0>         0.4463
@<TRIPOS>BOND
     1    1    2 1
     2    1   24 1
     3    1   25 1
     4    1   26 1
     5    2    3 1
     6    3    8 ar
     7    3    4 ar
     8    4    5 ar
     9    4   27 1
    10    5    6 ar
    11    5   23 1
    12    6    7 ar
    13    6   28 1
    14    7   13 1
    15    7    8 ar
    16    8    9 1
    17    9   10 2
    18    9   11 1
    19   11   12 2
    20   11   22 1
    21   12   13 1
    22   12   14 1
    23   14   19 ar
    24   14   15 ar
    25   15   16 ar
    26   15   29 1
    27   16   17 ar
    28   16   30 1
    29   17   18 ar
    30   17   21 1
    31   18   19 ar
    32   18   20 1
    33   19   31 1
    34   20   32 1
    35   21   33 1
    36   22   34 1
    37   23   35 1
@<TRIPOS>MOLECULE
ZINC03869685
   32    34     0     0     0
SMALL
USER_CHARGES

@<TRIPOS>ATOM
      1 C1          0.9741   -0.2755   -0.9644 C.ar      1 <0>        -0.0748
      2 C2          2.1569    0.4329   -0.9701 C.ar      1 <0>        -0.1346
      3 C3          2.3856    1.4156   -0.0177 C.ar      1 <0>         0.1032
      4 C4          1.4203    1.6918    0.9495 C.ar      1 <0>         0.0788
      5 C5          0.2328    0.9863    0.9617 C.ar      1 <0>        -0.0762
      6 C6          0.0021   -0.0041    0.0020 C.ar      1 <0>        -0.0447
      7 C7         -1.2637   -0.7605    0.0100 C.2       1 <0>         0.1350
      8 C8         -2.4363   -0.0759    0.1235 C.2       1 <0>        -0.0429
      9 C9         -3.6628   -0.7894    0.1327 C.2       1 <0>         0.4011
     10 O1         -4.7327   -0.2102    0.2323 O.2       1 <0>        -0.4484
     11 C10        -3.5946   -2.2549    0.0170 C.ar      1 <0>        -0.2690
     12 C11        -4.7561   -3.0387    0.0170 C.ar      1 <0>         0.2244
     13 C12        -4.6504   -4.4123   -0.0941 C.ar      1 <0>        -0.2081
     14 C13        -3.3994   -5.0103   -0.2044 C.ar      1 <0>         0.2000
     15 C14        -2.2463   -4.2416   -0.2047 C.ar      1 <0>        -0.1854
     16 C15        -2.3316   -2.8618   -0.0952 C.ar      1 <0>         0.1876
     17 O2         -1.2182   -2.0992   -0.1003 O.3       1 <0>        -0.1970
     18 O3         -3.3070   -6.3605   -0.3125 O.3       1 <0>        -0.4866
     19 O4         -5.9758   -2.4535    0.1257 O.3       1 <0>        -0.4726
     20 O5         -2.4312    1.2810    0.2275 O.3       1 <0>        -0.4502
     21 O6          1.6480    2.6557    1.8815 O.3       1 <0>        -0.4836
     22 O7          3.5534    2.1101   -0.0273 O.3       1 <0>        -0.4861
     23 H1          0.7971   -1.0371   -1.7094 H         1 <0>         0.1379
     24 H2          2.9075    0.2221   -1.7176 H         1 <0>         0.1421
     25 H3         -0.5155    1.1988    1.7108 H         1 <0>         0.1429
     26 H4         -5.5413   -5.0229   -0.0948 H         1 <0>         0.1515
     27 H5         -1.2805   -4.7174   -0.2903 H         1 <0>         0.1559
     28 H6         -3.3257   -6.6843   -1.2235 H         1 <0>         0.4050
     29 H7         -6.3751   -2.2160   -0.7224 H         1 <0>         0.4036
     30 H8         -3.3120    1.6729    0.3033 H         1 <0>         0.4079
     31 H9          1.3508    3.5370    1.6166 H         1 <0>         0.3905
     32 H10         3.5287    2.9137   -0.5647 H         1 <0>         0.3924
@<TRIPOS>BOND
     1    1    6 ar
     2    1    2 ar
     3    1   23 1
     4    2    3 ar
     5    2   24 1
     6    3    4 ar
     7    3   22 1
     8    4    5 ar
     9    4   21 1
    10    5    6 ar
    11    5   25 1
    12    6    7 1
    13    7   17 1
    14    7    8 2
    15    8    9 1
    16    8   20 1
    17    9   10 2
    18    9   11 1
    19   11   16 ar
    20   11   12 ar
    21   12   13 ar
    22   12   19 1
    23   13   14 ar
    24   13   26 1
    25   14   15 ar
    26   14   18 1
    27   15   16 ar
    28   15   27 1
    29   16   17 1
    30   18   28 1
    31   19   29 1
    32   20   30 1
    33   21   31 1
    34   22   32 1
@<TRIPOS>MOLECULE
ZINC03869685
   31    33     0     0     0
SMALL
USER_CHARGES

@<TRIPOS>ATOM
      1 C1          0.1390    1.1246   -0.8120 C.ar      1 <0>        -0.0626
      2 C2          1.3229    1.8301   -0.8179 C.ar      1 <0>        -0.1333
      3 C3          2.3812    1.4233   -0.0172 C.ar      1 <0>         0.0878
      4 C4          2.2522    0.2984    0.7970 C.ar      1 <0>         0.0757
      5 C5          1.0694   -0.4139    0.8086 C.ar      1 <0>        -0.0997
      6 C6          0.0021   -0.0041    0.0020 C.ar      1 <0>        -0.0194
      7 C7         -1.2620   -0.7597    0.0100 C.2       1 <0>         0.1007
      8 C8         -2.4587   -0.0763    0.1245 C.2       1 <0>        -0.0038
      9 C9         -3.6655   -0.7872    0.1324 C.2       1 <0>         0.3349
     10 C10        -3.6167   -2.1939    0.0219 C.2       1 <0>        -0.3331
     11 C11        -4.8018   -2.9593    0.0240 C.2       1 <0>         0.2664
     12 C12        -4.7326   -4.3182   -0.0844 C.2       1 <0>        -0.3749
     13 C13        -3.4871   -4.9570   -0.1979 C.2       1 <0>         0.3648
     14 O1         -3.4307   -6.2860   -0.3033 O.2       1 <0>        -0.6598
     15 C14        -2.3054   -4.2086   -0.2016 C.2       1 <0>        -0.3143
     16 C15        -2.3616   -2.8325   -0.0921 C.2       1 <0>         0.2118
     17 O2         -1.2290   -2.0988   -0.0996 O.3       1 <0>        -0.2018
     18 O3         -6.0073   -2.3463    0.1339 O.3       1 <0>        -0.4482
     19 O4         -4.8484   -0.1420    0.2437 O.3       1 <0>        -0.5747
     20 O5         -2.4638    1.2803    0.2294 O.3       1 <0>        -0.4649
     21 O6          3.2919   -0.0973    1.5794 O.3       1 <0>        -0.4856
     22 O7          3.5458    2.1225   -0.0269 O.3       1 <0>        -0.4881
     23 H1         -0.6843    1.4460   -1.4327 H         1 <0>         0.1397
     24 H2          1.4276    2.7014   -1.4473 H         1 <0>         0.1381
     25 H3          0.9685   -1.2854    1.4384 H         1 <0>         0.1410
     26 H4         -5.6395   -4.9047   -0.0825 H         1 <0>         0.1180
     27 H5         -1.3506   -4.7057   -0.2895 H         1 <0>         0.1230
     28 H6         -6.7597   -2.9537    0.1258 H         1 <0>         0.3847
     29 H7         -3.3475    1.6656    0.3047 H         1 <0>         0.4058
     30 H8          3.2925    0.2977    2.4620 H         1 <0>         0.3855
     31 H9          3.5825    2.8346    0.6263 H         1 <0>         0.3863
@<TRIPOS>BOND
     1    1    6 ar
     2    1    2 ar
     3    1   23 1
     4    2    3 ar
     5    2   24 1
     6    3    4 ar
     7    3   22 1
     8    4    5 ar
     9    4   21 1
    10    5    6 ar
    11    5   25 1
    12    6    7 1
    13    7   17 1
    14    7    8 2
    15    8    9 1
    16    8   20 1
    17    9   10 2
    18    9   19 1
    19   10   16 1
    20   10   11 1
    21   11   12 2
    22   11   18 1
    23   12   13 1
    24   12   26 1
    25   13   14 2
    26   13   15 1
    27   15   16 2
    28   15   27 1
    29   16   17 1
    30   18   28 1
    31   20   29 1
    32   21   30 1
    33   22   31 1
