@<TRIPOS>MOLECULE
ZINC03810860
   51    54     0     0     0
SMALL
USER_CHARGES

@<TRIPOS>ATOM
      1 C1         -0.0167    1.3784    0.0096 C.ar      1 <0>        -0.0818
      2 C2          1.1695    2.0865    0.0021 C.ar      1 <0>        -0.1432
      3 C3          2.3802    1.4093   -0.0131 C.ar      1 <0>         0.1164
      4 C4          2.3963    0.0221   -0.0206 C.ar      1 <0>        -0.1423
      5 C5          1.2074   -0.6814   -0.0130 C.ar      1 <0>        -0.0815
      6 C6          0.0021   -0.0041    0.0020 C.ar      1 <0>        -0.1162
      7 C7         -1.2934   -0.7740    0.0107 C.3       1 <0>         0.1706
      8 H1         -2.1029   -0.2310   -0.4771 H         1 <0>         0.1166
      9 C8         -1.6717   -1.2934    1.3979 C.3       1 <0>        -0.1231
     10 H2         -0.9428   -1.0690    2.1766 H         1 <0>         0.1345
     11 C9         -1.4784   -2.6300    0.7322 C.2       1 <0>         0.5204
     12 O1         -1.5850   -3.7643    1.1485 O.2       1 <0>        -0.4864
     13 N1         -1.1478   -2.1460   -0.4775 N.am      1 <0>        -0.5692
     14 C10        -0.8037   -2.7223   -1.7064 C.ar      1 <0>         0.1724
     15 C11        -0.5034   -1.9130   -2.7940 C.ar      1 <0>        -0.1207
     16 C12        -0.1643   -2.4833   -4.0052 C.ar      1 <0>        -0.1200
     17 C13        -0.1240   -3.8613   -4.1356 C.ar      1 <0>         0.0746
     18 C14        -0.4232   -4.6703   -3.0523 C.ar      1 <0>        -0.1187
     19 C15        -0.7568   -4.1038   -1.8376 C.ar      1 <0>        -0.1239
     20 F1          0.2071   -4.4173   -5.3216 F         1 <0>        -0.1380
     21 C16        -3.1143   -0.9958    1.8119 C.3       1 <0>        -0.0917
     22 C17        -3.3346   -1.4505    3.2561 C.3       1 <0>        -0.1487
     23 C18        -4.7771   -1.1529    3.6700 C.3       1 <0>         0.1508
     24 H3         -5.4619   -1.6158    2.9594 H         1 <0>         0.1113
     25 C19        -5.0297   -1.7104    5.0471 C.ar      1 <0>        -0.1290
     26 C20        -4.7010   -0.9659    6.1646 C.ar      1 <0>        -0.0831
     27 C21        -4.9327   -1.4759    7.4280 C.ar      1 <0>        -0.1500
     28 C22        -5.4941   -2.7331    7.5743 C.ar      1 <0>         0.0996
     29 C23        -5.8229   -3.4778    6.4543 C.ar      1 <0>        -0.1499
     30 C24        -5.5952   -2.9636    5.1919 C.ar      1 <0>        -0.0794
     31 F2         -5.7206   -3.2329    8.8088 F         1 <0>        -0.1380
     32 O2         -4.9872    0.2605    3.6824 O.3       1 <0>        -0.5515
     33 O3          3.5484    2.1036   -0.0209 O.3       1 <0>        -0.4990
     34 H4         -0.9594    1.9052    0.0259 H         1 <0>         0.1335
     35 H5          1.1543    3.1664    0.0076 H         1 <0>         0.1337
     36 H6          3.3375   -0.5074   -0.0328 H         1 <0>         0.1308
     37 H7          1.2194   -1.7613   -0.0189 H         1 <0>         0.1228
     38 H8         -0.5354   -0.8382   -2.6929 H         1 <0>         0.1355
     39 H9          0.0694   -1.8542   -4.8514 H         1 <0>         0.1418
     40 H10        -0.3916   -5.7448   -3.1561 H         1 <0>         0.1423
     41 H11        -0.9856   -4.7350   -0.9917 H         1 <0>         0.1426
     42 H12        -3.3005    0.0754    1.7358 H         1 <0>         0.0934
     43 H13        -3.7989   -1.5312    1.1540 H         1 <0>         0.0736
     44 H14        -3.1484   -2.5217    3.3321 H         1 <0>         0.0834
     45 H15        -2.6500   -0.9151    3.9139 H         1 <0>         0.0745
     46 H16        -4.2628    0.0145    6.0503 H         1 <0>         0.1312
     47 H17        -4.6755   -0.8943    8.3009 H         1 <0>         0.1374
     48 H18        -6.2606   -4.4587    6.5672 H         1 <0>         0.1380
     49 H19        -5.8557   -3.5424    4.3182 H         1 <0>         0.1350
     50 H20        -4.4105    0.7385    4.2940 H         1 <0>         0.3743
     51 H21         3.8951    2.3001    0.8601 H         1 <0>         0.3943
@<TRIPOS>BOND
     1    1    6 ar
     2    1    2 ar
     3    1   34 1
     4    2    3 ar
     5    2   35 1
     6    3    4 ar
     7    3   33 1
     8    4    5 ar
     9    4   36 1
    10    5    6 ar
    11    5   37 1
    12    6    7 1
    13    7    8 1
    14    7   13 1
    15    7    9 1
    16    9   10 1
    17    9   11 1
    18    9   21 1
    19   11   12 2
    20   11   13 am
    21   13   14 1
    22   14   19 ar
    23   14   15 ar
    24   15   16 ar
    25   15   38 1
    26   16   17 ar
    27   16   39 1
    28   17   18 ar
    29   17   20 1
    30   18   19 ar
    31   18   40 1
    32   19   41 1
    33   21   22 1
    34   21   42 1
    35   21   43 1
    36   22   23 1
    37   22   44 1
    38   22   45 1
    39   23   24 1
    40   23   25 1
    41   23   32 1
    42   25   30 ar
    43   25   26 ar
    44   26   27 ar
    45   26   46 1
    46   27   28 ar
    47   27   47 1
    48   28   29 ar
    49   28   31 1
    50   29   30 ar
    51   29   48 1
    52   30   49 1
    53   32   50 1
    54   33   51 1
@<TRIPOS>MOLECULE
ZINC03975560
   70    74     0     0     0
SMALL
USER_CHARGES

@<TRIPOS>ATOM
      1 C1          6.4439    1.6060    3.3311 C.ar      1 <0>        -0.0658
      2 C2          5.6493    1.9536    2.2559 C.ar      1 <0>        -0.1488
      3 C3          4.3182    1.5639    2.2239 C.ar      1 <0>         0.1459
      4 C4          3.7871    0.8307    3.2751 C.ar      1 <0>        -0.1745
      5 C5          4.5873    0.4811    4.3456 C.ar      1 <0>        -0.0579
      6 C6          5.9137    0.8703    4.3748 C.ar      1 <0>        -0.1484
      7 C7          6.7828    0.4925    5.5465 C.3       1 <0>         0.1792
      8 H1          7.5679    1.2247    5.7349 H         1 <0>         0.1128
      9 C8          7.3100   -0.9402    5.4634 C.3       1 <0>        -0.1274
     10 H2          6.9601   -1.4987    4.5953 H         1 <0>         0.1377
     11 C9          6.4626   -1.1125    6.6961 C.2       1 <0>         0.5224
     12 O1          6.2538   -2.0730    7.4066 O.2       1 <0>        -0.4882
     13 N1          6.0138    0.1556    6.7454 N.am      1 <0>        -0.5709
     14 C10         5.1584    0.8646    7.5977 C.ar      1 <0>         0.1789
     15 C11         4.9004    2.2086    7.3629 C.ar      1 <0>        -0.1212
     16 C12         4.0519    2.9046    8.2014 C.ar      1 <0>        -0.1200
     17 C13         3.4676    2.2659    9.2822 C.ar      1 <0>         0.0693
     18 C14         3.7281    0.9271    9.5214 C.ar      1 <0>        -0.1184
     19 C15         4.5715    0.2260    8.6820 C.ar      1 <0>        -0.1256
     20 F1          2.6426    2.9501   10.1047 F         1 <0>        -0.1408
     21 C16         8.8144   -1.0747    5.7074 C.3       1 <0>        -0.0879
     22 C17         9.2409   -2.5257    5.4761 C.3       1 <0>        -0.1510
     23 C18        10.7453   -2.6602    5.7201 C.3       1 <0>         0.1515
     24 H3         10.9863   -2.2899    6.7165 H         1 <0>         0.1103
     25 C19        11.1440   -4.1095    5.6127 C.ar      1 <0>        -0.1265
     26 C20        11.4241   -4.6590    4.3755 C.ar      1 <0>        -0.0821
     27 C21        11.7945   -5.9867    4.2763 C.ar      1 <0>        -0.1493
     28 C22        11.8748   -6.7694    5.4156 C.ar      1 <0>         0.0974
     29 C23        11.5890   -6.2194    6.6537 C.ar      1 <0>        -0.1506
     30 C24        11.2239   -4.8900    6.7510 C.ar      1 <0>        -0.0801
     31 F2         12.2323   -8.0687    5.3194 F         1 <0>        -0.1397
     32 O2         11.4563   -1.8969    4.7434 O.3       1 <0>        -0.5529
     33 O3          3.5344    1.9046    1.1672 O.3       1 <0>        -0.2990
     34 C25         2.1738    1.4693    1.2018 C.3       1 <0>         0.2195
     35 H4          1.7049    1.8143    2.1234 H         1 <0>         0.0696
     36 C26         1.4223    2.0468   -0.0005 C.3       1 <0>         0.0638
     37 H5          1.9148    1.7353   -0.9217 H         1 <0>         0.0867
     38 C27        -0.0187    1.5275    0.0104 C.3       1 <0>         0.1262
     39 H6         -0.5266    1.8804    0.9080 H         1 <0>         0.0718
     40 C28         0.0021   -0.0041    0.0020 C.3       1 <0>         0.1082
     41 H7          0.4648   -0.3570   -0.9196 H         1 <0>         0.0673
     42 C29         0.8084   -0.5023    1.2042 C.3       1 <0>         0.0229
     43 H8          0.3216   -0.1832    2.1258 H         1 <0>         0.0734
     44 O4          2.1285    0.0420    1.1493 O.3       1 <0>        -0.3582
     45 C30         0.8834   -2.0071    1.1702 C.2       1 <0>         0.4754
     46 O5          1.9489   -2.5555    1.0158 O.co2     1 <0>        -0.5996
     47 O6         -1.3354   -0.5003    0.0853 O.3       1 <0>        -0.5537
     48 O7         -0.7069    2.0027   -1.1483 O.3       1 <0>        -0.5417
     49 O8          1.4165    3.4735    0.0804 O.3       1 <0>        -0.5562
     50 H9          7.4803    1.9088    3.3563 H         1 <0>         0.1327
     51 H10         6.0638    2.5285    1.4410 H         1 <0>         0.1333
     52 H11         2.7500    0.5300    3.2547 H         1 <0>         0.1330
     53 H12         4.1754   -0.0935    5.1621 H         1 <0>         0.1193
     54 H13         5.3595    2.7082    6.5226 H         1 <0>         0.1369
     55 H14         3.8472    3.9488    8.0163 H         1 <0>         0.1401
     56 H15         3.2711    0.4307   10.3647 H         1 <0>         0.1404
     57 H16         4.7741   -0.8182    8.8687 H         1 <0>         0.1423
     58 H17         9.3537   -0.4234    5.0195 H         1 <0>         0.0923
     59 H18         9.0431   -0.7879    6.7339 H         1 <0>         0.0711
     60 H19         8.7016   -3.1769    6.1640 H         1 <0>         0.0835
     61 H20         9.0122   -2.8124    4.4497 H         1 <0>         0.0767
     62 H21        11.3574   -4.0493    3.4865 H         1 <0>         0.1322
     63 H22        12.0173   -6.4147    3.3101 H         1 <0>         0.1372
     64 H23        11.6509   -6.8290    7.5430 H         1 <0>         0.1367
     65 H24        11.0012   -4.4607    7.7166 H         1 <0>         0.1346
     66 H25        11.2895   -2.1720    3.8315 H         1 <0>         0.3753
     67 H26        -1.3977   -1.4652    0.0848 H         1 <0>         0.4014
     68 H27        -0.7580    2.9665   -1.2078 H         1 <0>         0.3797
     69 H28         2.2979    3.8712    0.0782 H         1 <0>         0.3893
     70 O9         -0.2335   -2.7381    1.3116 O.co2     1 <0>        -0.7417
@<TRIPOS>BOND
     1    1    6 ar
     2    1    2 ar
     3    1   50 1
     4    2    3 ar
     5    2   51 1
     6    3    4 ar
     7    3   33 1
     8    4    5 ar
     9    4   52 1
    10    5    6 ar
    11    5   53 1
    12    6    7 1
    13    7    8 1
    14    7   13 1
    15    7    9 1
    16    9   10 1
    17    9   11 1
    18    9   21 1
    19   11   12 2
    20   11   13 am
    21   13   14 1
    22   14   19 ar
    23   14   15 ar
    24   15   16 ar
    25   15   54 1
    26   16   17 ar
    27   16   55 1
    28   17   18 ar
    29   17   20 1
    30   18   19 ar
    31   18   56 1
    32   19   57 1
    33   21   22 1
    34   21   58 1
    35   21   59 1
    36   22   23 1
    37   22   60 1
    38   22   61 1
    39   23   24 1
    40   23   25 1
    41   23   32 1
    42   25   30 ar
    43   25   26 ar
    44   26   27 ar
    45   26   62 1
    46   27   28 ar
    47   27   63 1
    48   28   29 ar
    49   28   31 1
    50   29   30 ar
    51   29   64 1
    52   30   65 1
    53   32   66 1
    54   33   34 1
    55   34   35 1
    56   34   44 1
    57   34   36 1
    58   36   37 1
    59   36   38 1
    60   36   49 1
    61   38   39 1
    62   38   40 1
    63   38   48 1
    64   40   41 1
    65   40   42 1
    66   40   47 1
    67   42   43 1
    68   42   44 1
    69   42   45 1
    70   45   46 2
    71   45   70 1
    72   47   67 1
    73   48   68 1
    74   49   69 1
