@<TRIPOS>MOLECULE
ZINC03975560
   70    74     0     0     0
SMALL
USER_CHARGES

@<TRIPOS>ATOM
      1 C1          6.4439    1.6060    3.3311 C.ar      1 <0>        -0.0658
      2 C2          5.6493    1.9536    2.2559 C.ar      1 <0>        -0.1488
      3 C3          4.3182    1.5639    2.2239 C.ar      1 <0>         0.1459
      4 C4          3.7871    0.8307    3.2751 C.ar      1 <0>        -0.1745
      5 C5          4.5873    0.4811    4.3456 C.ar      1 <0>        -0.0579
      6 C6          5.9137    0.8703    4.3748 C.ar      1 <0>        -0.1484
      7 C7          6.7828    0.4925    5.5465 C.3       1 <0>         0.1792
      8 H1          7.5679    1.2247    5.7349 H         1 <0>         0.1128
      9 C8          7.3100   -0.9402    5.4634 C.3       1 <0>        -0.1274
     10 H2          6.9601   -1.4987    4.5953 H         1 <0>         0.1377
     11 C9          6.4626   -1.1125    6.6961 C.2       1 <0>         0.5224
     12 O1          6.2538   -2.0730    7.4066 O.2       1 <0>        -0.4882
     13 N1          6.0138    0.1556    6.7454 N.am      1 <0>        -0.5709
     14 C10         5.1584    0.8646    7.5977 C.ar      1 <0>         0.1789
     15 C11         4.9004    2.2086    7.3629 C.ar      1 <0>        -0.1212
     16 C12         4.0519    2.9046    8.2014 C.ar      1 <0>        -0.1200
     17 C13         3.4676    2.2659    9.2822 C.ar      1 <0>         0.0693
     18 C14         3.7281    0.9271    9.5214 C.ar      1 <0>        -0.1184
     19 C15         4.5715    0.2260    8.6820 C.ar      1 <0>        -0.1256
     20 F1          2.6426    2.9501   10.1047 F         1 <0>        -0.1408
     21 C16         8.8144   -1.0747    5.7074 C.3       1 <0>        -0.0879
     22 C17         9.2409   -2.5257    5.4761 C.3       1 <0>        -0.1510
     23 C18        10.7453   -2.6602    5.7201 C.3       1 <0>         0.1515
     24 H3         10.9863   -2.2899    6.7165 H         1 <0>         0.1103
     25 C19        11.1440   -4.1095    5.6127 C.ar      1 <0>        -0.1265
     26 C20        11.4241   -4.6590    4.3755 C.ar      1 <0>        -0.0821
     27 C21        11.7945   -5.9867    4.2763 C.ar      1 <0>        -0.1493
     28 C22        11.8748   -6.7694    5.4156 C.ar      1 <0>         0.0974
     29 C23        11.5890   -6.2194    6.6537 C.ar      1 <0>        -0.1506
     30 C24        11.2239   -4.8900    6.7510 C.ar      1 <0>        -0.0801
     31 F2         12.2323   -8.0687    5.3194 F         1 <0>        -0.1397
     32 O2         11.4563   -1.8969    4.7434 O.3       1 <0>        -0.5529
     33 O3          3.5344    1.9046    1.1672 O.3       1 <0>        -0.2990
     34 C25         2.1738    1.4693    1.2018 C.3       1 <0>         0.2195
     35 H4          1.7049    1.8143    2.1234 H         1 <0>         0.0696
     36 C26         1.4223    2.0468   -0.0005 C.3       1 <0>         0.0638
     37 H5          1.9148    1.7353   -0.9217 H         1 <0>         0.0867
     38 C27        -0.0187    1.5275    0.0104 C.3       1 <0>         0.1262
     39 H6         -0.5266    1.8804    0.9080 H         1 <0>         0.0718
     40 C28         0.0021   -0.0041    0.0020 C.3       1 <0>         0.1082
     41 H7          0.4648   -0.3570   -0.9196 H         1 <0>         0.0673
     42 C29         0.8084   -0.5023    1.2042 C.3       1 <0>         0.0229
     43 H8          0.3216   -0.1832    2.1258 H         1 <0>         0.0734
     44 O4          2.1285    0.0420    1.1493 O.3       1 <0>        -0.3582
     45 C30         0.8834   -2.0071    1.1702 C.2       1 <0>         0.4754
     46 O5          1.9489   -2.5555    1.0158 O.co2     1 <0>        -0.5996
     47 O6         -1.3354   -0.5003    0.0853 O.3       1 <0>        -0.5537
     48 O7         -0.7069    2.0027   -1.1483 O.3       1 <0>        -0.5417
     49 O8          1.4165    3.4735    0.0804 O.3       1 <0>        -0.5562
     50 H9          7.4803    1.9088    3.3563 H         1 <0>         0.1327
     51 H10         6.0638    2.5285    1.4410 H         1 <0>         0.1333
     52 H11         2.7500    0.5300    3.2547 H         1 <0>         0.1330
     53 H12         4.1754   -0.0935    5.1621 H         1 <0>         0.1193
     54 H13         5.3595    2.7082    6.5226 H         1 <0>         0.1369
     55 H14         3.8472    3.9488    8.0163 H         1 <0>         0.1401
     56 H15         3.2711    0.4307   10.3647 H         1 <0>         0.1404
     57 H16         4.7741   -0.8182    8.8687 H         1 <0>         0.1423
     58 H17         9.3537   -0.4234    5.0195 H         1 <0>         0.0923
     59 H18         9.0431   -0.7879    6.7339 H         1 <0>         0.0711
     60 H19         8.7016   -3.1769    6.1640 H         1 <0>         0.0835
     61 H20         9.0122   -2.8124    4.4497 H         1 <0>         0.0767
     62 H21        11.3574   -4.0493    3.4865 H         1 <0>         0.1322
     63 H22        12.0173   -6.4147    3.3101 H         1 <0>         0.1372
     64 H23        11.6509   -6.8290    7.5430 H         1 <0>         0.1367
     65 H24        11.0012   -4.4607    7.7166 H         1 <0>         0.1346
     66 H25        11.2895   -2.1720    3.8315 H         1 <0>         0.3753
     67 H26        -1.3977   -1.4652    0.0848 H         1 <0>         0.4014
     68 H27        -0.7580    2.9665   -1.2078 H         1 <0>         0.3797
     69 H28         2.2979    3.8712    0.0782 H         1 <0>         0.3893
     70 O9         -0.2335   -2.7381    1.3116 O.co2     1 <0>        -0.7417
@<TRIPOS>BOND
     1    1    6 ar
     2    1    2 ar
     3    1   50 1
     4    2    3 ar
     5    2   51 1
     6    3    4 ar
     7    3   33 1
     8    4    5 ar
     9    4   52 1
    10    5    6 ar
    11    5   53 1
    12    6    7 1
    13    7    8 1
    14    7   13 1
    15    7    9 1
    16    9   10 1
    17    9   11 1
    18    9   21 1
    19   11   12 2
    20   11   13 am
    21   13   14 1
    22   14   19 ar
    23   14   15 ar
    24   15   16 ar
    25   15   54 1
    26   16   17 ar
    27   16   55 1
    28   17   18 ar
    29   17   20 1
    30   18   19 ar
    31   18   56 1
    32   19   57 1
    33   21   22 1
    34   21   58 1
    35   21   59 1
    36   22   23 1
    37   22   60 1
    38   22   61 1
    39   23   24 1
    40   23   25 1
    41   23   32 1
    42   25   30 ar
    43   25   26 ar
    44   26   27 ar
    45   26   62 1
    46   27   28 ar
    47   27   63 1
    48   28   29 ar
    49   28   31 1
    50   29   30 ar
    51   29   64 1
    52   30   65 1
    53   32   66 1
    54   33   34 1
    55   34   35 1
    56   34   44 1
    57   34   36 1
    58   36   37 1
    59   36   38 1
    60   36   49 1
    61   38   39 1
    62   38   40 1
    63   38   48 1
    64   40   41 1
    65   40   42 1
    66   40   47 1
    67   42   43 1
    68   42   44 1
    69   42   45 1
    70   45   46 2
    71   45   70 1
    72   47   67 1
    73   48   68 1
    74   49   69 1
@<TRIPOS>MOLECULE
ZINC16612613
   78    82     0     0     0
SMALL
USER_CHARGES
8-(4-tert-butylbenzoyl)-3-[2-oxo-2-(1-piperidyl)ethyl]-1-phenyl-1,3,8-triazaspiro[4.5]decan-4-one
@<TRIPOS>ATOM
      1 C1          0.6723   11.1887   -7.3638 C.3       1 <0>        -0.1401
      2 C2          0.5604    9.6698   -7.2170 C.3       1 <0>        -0.0338
      3 C3          1.8453    9.0124   -7.7247 C.3       1 <0>        -0.1463
      4 C4         -0.6291    9.1645   -8.0359 C.3       1 <0>        -0.1403
      5 C5          0.3564    9.3191   -5.7656 C.ar      1 <0>        -0.0450
      6 C6         -0.7483    9.8045   -5.0885 C.ar      1 <0>        -0.1203
      7 C7         -0.9410    9.4872   -3.7598 C.ar      1 <0>        -0.0598
      8 C8         -0.0189    8.6743   -3.0988 C.ar      1 <0>        -0.1342
      9 C9          1.0959    8.1919   -3.7864 C.ar      1 <0>        -0.0971
     10 C10         1.2743    8.5128   -5.1163 C.ar      1 <0>        -0.1280
     11 C11        -0.2188    8.3306   -1.6748 C.2       1 <0>         0.5619
     12 O1         -1.3434    8.1881   -1.2361 O.2       1 <0>        -0.5349
     13 N1          0.8459    8.1753   -0.8632 N.am      1 <0>        -0.5997
     14 C12         2.2026    8.4693   -1.3444 C.3       1 <0>         0.0683
     15 C13         3.0869    7.2406   -1.1058 C.3       1 <0>        -0.1098
     16 C14         3.0030    6.8327    0.3622 C.3       1 <0>         0.0729
     17 C15         1.5668    6.4861    0.7435 C.3       1 <0>        -0.1471
     18 C16         0.6710    7.7092    0.5193 C.3       1 <0>         0.1173
     19 C17         3.5304    7.9364    1.2461 C.2       1 <0>         0.5392
     20 O2          3.2722    9.1165    1.1384 O.2       1 <0>        -0.4973
     21 N2          4.3386    7.3865    2.1767 N.am      1 <0>        -0.6098
     22 C18         4.3866    5.9310    1.9883 C.3       1 <0>         0.2497
     23 N3          3.8873    5.6756    0.6170 N.pl3     1 <0>        -0.4498
     24 C19         3.1724    4.4771    0.5597 C.ar      1 <0>         0.0954
     25 C20         2.4725    4.1384   -0.5914 C.ar      1 <0>        -0.1287
     26 C21         1.7670    2.9523   -0.6449 C.ar      1 <0>        -0.0971
     27 C22         1.7521    2.1050    0.4479 C.ar      1 <0>        -0.1328
     28 C23         2.4524    2.4365    1.5934 C.ar      1 <0>        -0.0925
     29 C24         3.1600    3.6210    1.6535 C.ar      1 <0>        -0.1623
     30 C25         5.0581    8.1280    3.2152 C.3       1 <0>         0.1158
     31 C26         4.1953    8.2335    4.4463 C.2       1 <0>         0.4968
     32 O3          3.0884    7.7379    4.4553 O.2       1 <0>        -0.5274
     33 N4          4.6538    8.8784    5.5373 N.am      1 <0>        -0.6108
     34 C27         5.9949    9.4785    5.5438 C.3       1 <0>         0.1040
     35 C28         5.8677   10.9545    5.9502 C.3       1 <0>        -0.1373
     36 C29         5.1315   11.0474    7.2887 C.3       1 <0>        -0.1211
     37 C30         3.7236   10.4662    7.1399 C.3       1 <0>        -0.1359
     38 C31         3.8243    8.9895    6.7450 C.3       1 <0>         0.1111
     39 H1          1.5197   11.5487   -6.7803 H         1 <0>         0.0576
     40 H2          0.8199   11.4424   -8.4135 H         1 <0>         0.0609
     41 H3         -0.2431   11.6570   -7.0020 H         1 <0>         0.0582
     42 H4          1.7656    7.9304   -7.6202 H         1 <0>         0.0599
     43 H5          1.9929    9.2661   -8.7745 H         1 <0>         0.0605
     44 H6          2.6927    9.3724   -7.1413 H         1 <0>         0.0600
     45 H7         -1.5444    9.6329   -7.6742 H         1 <0>         0.0583
     46 H8         -0.4814    9.4182   -9.0856 H         1 <0>         0.0609
     47 H9         -0.7087    8.0825   -7.9313 H         1 <0>         0.0576
     48 H10        -1.4611   10.4334   -5.6012 H         1 <0>         0.1286
     49 H11        -1.8037    9.8667   -3.2324 H         1 <0>         0.1317
     50 H12         1.8154    7.5661   -3.2795 H         1 <0>         0.1382
     51 H13         2.1344    8.1372   -5.6505 H         1 <0>         0.1341
     52 H14         2.6070    9.3221   -0.7991 H         1 <0>         0.0967
     53 H15         2.1713    8.6957   -2.4101 H         1 <0>         0.1154
     54 H16         4.1196    7.4815   -1.3577 H         1 <0>         0.0913
     55 H17         2.7423    6.4176   -1.7320 H         1 <0>         0.0833
     56 H18         1.2157    5.6601    0.1250 H         1 <0>         0.0990
     57 H19         1.5294    6.1957    1.7934 H         1 <0>         0.0836
     58 H20         0.9552    8.5022    1.2110 H         1 <0>         0.0758
     59 H21        -0.3715    7.4368    0.6840 H         1 <0>         0.0988
     60 H22         3.7456    5.4371    2.7186 H         1 <0>         0.0786
     61 H23         5.4118    5.5739    2.0864 H         1 <0>         0.1046
     62 H24         2.4804    4.8016   -1.4437 H         1 <0>         0.1286
     63 H25         1.2227    2.6884   -1.5395 H         1 <0>         0.1271
     64 H26         1.1957    1.1804    0.4052 H         1 <0>         0.1243
     65 H27         2.4421    1.7705    2.4436 H         1 <0>         0.1257
     66 H28         3.7028    3.8815    2.5502 H         1 <0>         0.1297
     67 H29         5.9813    7.6039    3.4624 H         1 <0>         0.1144
     68 H30         5.2943    9.1276    2.8504 H         1 <0>         0.1172
     69 H31         6.6270    8.9528    6.2594 H         1 <0>         0.0756
     70 H32         6.4312    9.4087    4.5474 H         1 <0>         0.0837
     71 H33         5.3077   11.4972    5.1886 H         1 <0>         0.0692
     72 H34         6.8617   11.3904    6.0507 H         1 <0>         0.0787
     73 H35         5.0628   12.0917    7.5937 H         1 <0>         0.0680
     74 H36         5.6791   10.4838    8.0440 H         1 <0>         0.0658
     75 H37         3.1839   11.0134    6.3670 H         1 <0>         0.0671
     76 H38         3.1917   10.5539    8.0873 H         1 <0>         0.0771
     77 H39         2.8280    8.5969    6.5414 H         1 <0>         0.0920
     78 H40         4.2817    8.4226    7.5558 H         1 <0>         0.0690
@<TRIPOS>BOND
     1    1    2 1
     2    1   39 1
     3    1   40 1
     4    1   41 1
     5    2    3 1
     6    2    4 1
     7    2    5 1
     8    3   42 1
     9    3   43 1
    10    3   44 1
    11    4   45 1
    12    4   46 1
    13    4   47 1
    14    5   10 ar
    15    5    6 ar
    16    6    7 ar
    17    6   48 1
    18    7    8 ar
    19    7   49 1
    20    8    9 ar
    21    8   11 1
    22    9   10 ar
    23    9   50 1
    24   10   51 1
    25   11   12 2
    26   11   13 am
    27   13   18 1
    28   13   14 1
    29   14   15 1
    30   14   52 1
    31   14   53 1
    32   15   16 1
    33   15   54 1
    34   15   55 1
    35   16   23 1
    36   16   17 1
    37   16   19 1
    38   17   18 1
    39   17   56 1
    40   17   57 1
    41   18   58 1
    42   18   59 1
    43   19   20 2
    44   19   21 am
    45   21   22 1
    46   21   30 1
    47   22   23 1
    48   22   60 1
    49   22   61 1
    50   23   24 1
    51   24   29 ar
    52   24   25 ar
    53   25   26 ar
    54   25   62 1
    55   26   27 ar
    56   26   63 1
    57   27   28 ar
    58   27   64 1
    59   28   29 ar
    60   28   65 1
    61   29   66 1
    62   30   31 1
    63   30   67 1
    64   30   68 1
    65   31   32 2
    66   31   33 am
    67   33   38 1
    68   33   34 1
    69   34   35 1
    70   34   69 1
    71   34   70 1
    72   35   36 1
    73   35   71 1
    74   35   72 1
    75   36   37 1
    76   36   73 1
    77   36   74 1
    78   37   38 1
    79   37   75 1
    80   37   76 1
    81   38   77 1
    82   38   78 1
