@<TRIPOS>MOLECULE
ZINC03828640
   64    68     0     0     0
SMALL
USER_CHARGES

@<TRIPOS>ATOM
      1 C1          2.4030   -3.5768   -2.0092 C.ar      1 <0>        -0.1203
      2 C2          3.6670   -3.0308   -2.2260 C.ar      1 <0>        -0.0806
      3 C3          4.1055   -1.9679   -1.4981 C.ar      1 <0>        -0.1408
      4 C4          3.2737   -1.4096   -0.5123 C.ar      1 <0>         0.0301
      5 C5          1.9881   -1.9645   -0.2921 C.ar      1 <0>        -0.0755
      6 C6          1.5704   -3.0626   -1.0635 C.ar      1 <0>        -0.0905
      7 C7          1.1563   -1.4060    0.6930 C.ar      1 <0>        -0.0358
      8 C8          1.5947   -0.3425    1.4208 C.ar      1 <0>        -0.1522
      9 C9          2.8583    0.2032    1.2041 C.ar      1 <0>         0.0093
     10 C10         3.6914   -0.3118    0.2587 C.ar      1 <0>        -0.6758
     11 S1          5.2853    0.3945    0.0034 S.o2      1 <0>         2.6957
     12 O1          5.3860    1.5007    0.8896 O.2       1 <0>        -0.9606
     13 O2          6.2136   -0.6813    0.0193 O.2       1 <0>        -0.9492
     14 N1          5.3058    1.0147   -1.5320 N.pl3     1 <0>        -1.1160
     15 C11         4.4105    2.1181   -1.8883 C.3       1 <0>         0.1171
     16 C12         4.8902    2.7643   -3.1895 C.3       1 <0>        -0.0952
     17 C13         6.2587    3.4102   -2.9638 C.3       1 <0>        -0.1158
     18 C14         6.1448    4.4793   -1.8752 C.3       1 <0>        -0.1217
     19 C15         5.1422    5.5487   -2.3134 C.3       1 <0>        -0.0956
     20 C16         3.7737    4.9028   -2.5391 C.3       1 <0>        -0.1255
     21 C17         3.8876    3.8337   -3.6277 C.3       1 <0>        -0.1134
     22 C18         5.0283    6.6177   -1.2248 C.3       1 <0>         0.0885
     23 N2          4.1608    7.7013   -1.6934 N.pl3     1 <0>        -0.6662
     24 C19         3.9075    8.7873   -0.8752 C.ar      1 <0>         0.6845
     25 N3          4.4656    8.8219    0.3199 N.ar      1 <0>        -0.5846
     26 C20         4.2448    9.8579    1.1425 C.ar      1 <0>         0.2022
     27 C21         4.8216    9.9274    2.4180 C.ar      1 <0>        -0.1475
     28 C22         4.5652   11.0033    3.2152 C.ar      1 <0>        -0.0186
     29 C23         3.7380   12.0356    2.7823 C.ar      1 <0>        -0.1209
     30 C24         3.1607   11.9993    1.5468 C.ar      1 <0>        -0.0370
     31 C25         3.4039   10.9096    0.7040 C.ar      1 <0>        -0.1948
     32 C26         2.8323   10.8181   -0.5896 C.ar      1 <0>         0.5606
     33 N4          3.1160    9.7554   -1.3282 N.ar      1 <0>        -0.5977
     34 N5          2.0062   11.8119   -1.0692 N.pl3     1 <0>        -0.7694
     35 H1          2.0778   -4.4178   -2.6036 H         1 <0>         0.1319
     36 H2          4.3081   -3.4580   -2.9829 H         1 <0>         0.1328
     37 H3          5.0877   -1.5558   -1.6767 H         1 <0>         0.1313
     38 H4          0.5936   -3.4958   -0.9069 H         1 <0>         0.1342
     39 H5          0.1742   -1.8182    0.8715 H         1 <0>         0.1385
     40 H6          0.9534    0.0849    2.1774 H         1 <0>         0.1364
     41 H7          3.1817    1.0473    1.7952 H         1 <0>         0.1434
     42 H8          5.9106    0.6473   -2.1954 H         1 <0>         0.4207
     43 H9          3.3988    1.7358   -2.0240 H         1 <0>         0.0668
     44 H10         4.4142    2.8611   -1.0907 H         1 <0>         0.0824
     45 H11         4.9714    2.0027   -3.9650 H         1 <0>         0.0867
     46 H12         6.9730    2.6484   -2.6516 H         1 <0>         0.0741
     47 H13         6.6005    3.8706   -3.8908 H         1 <0>         0.0711
     48 H14         5.8030    4.0189   -0.9482 H         1 <0>         0.0792
     49 H15         7.1198    4.9394   -1.7144 H         1 <0>         0.0726
     50 H16         5.4840    6.0090   -3.2404 H         1 <0>         0.0914
     51 H17         3.4319    4.4424   -1.6121 H         1 <0>         0.0729
     52 H18         3.0594    5.6646   -2.8514 H         1 <0>         0.0650
     53 H19         4.2294    4.2941   -4.5547 H         1 <0>         0.0738
     54 H20         2.9127    3.3736   -3.7885 H         1 <0>         0.0731
     55 H21         4.6027    6.1752   -0.3242 H         1 <0>         0.0902
     56 H22         6.0182    7.0156   -1.0013 H         1 <0>         0.0896
     57 H23         3.7641    7.6571   -2.5774 H         1 <0>         0.4405
     58 H24         5.4649    9.1334    2.7674 H         1 <0>         0.1568
     59 H25         5.0104   11.0552    4.1977 H         1 <0>         0.1559
     60 H26         3.5503   12.8765    3.4335 H         1 <0>         0.1526
     61 H27         2.5203   12.8060    1.2219 H         1 <0>         0.1487
     62 H28         1.8096   12.5865   -0.5193 H         1 <0>         0.4311
     63 H29         1.6216   11.7367   -1.9564 H         1 <0>         0.4316
     64 H30         5.0388    8.0933    0.6055 H         1 <0>         0.4384
@<TRIPOS>BOND
     1    1    6 ar
     2    1    2 ar
     3    1   35 1
     4    2    3 ar
     5    2   36 1
     6    3    4 ar
     7    3   37 1
     8    4   10 ar
     9    4    5 ar
    10    5    6 ar
    11    5    7 ar
    12    6   38 1
    13    7    8 ar
    14    7   39 1
    15    8    9 ar
    16    8   40 1
    17    9   10 ar
    18    9   41 1
    19   10   11 1
    20   11   12 2
    21   11   13 2
    22   11   14 1
    23   14   15 1
    24   14   42 1
    25   15   16 1
    26   15   43 1
    27   15   44 1
    28   16   21 1
    29   16   17 1
    30   16   45 1
    31   17   18 1
    32   17   46 1
    33   17   47 1
    34   18   19 1
    35   18   48 1
    36   18   49 1
    37   19   20 1
    38   19   22 1
    39   19   50 1
    40   20   21 1
    41   20   51 1
    42   20   52 1
    43   21   53 1
    44   21   54 1
    45   22   23 1
    46   22   55 1
    47   22   56 1
    48   23   24 1
    49   23   57 1
    50   24   33 ar
    51   24   25 ar
    52   25   26 ar
    53   25   64 1
    54   26   31 ar
    55   26   27 ar
    56   27   28 ar
    57   27   58 1
    58   28   29 ar
    59   28   59 1
    60   29   30 ar
    61   29   60 1
    62   30   31 ar
    63   30   61 1
    64   31   32 ar
    65   32   33 ar
    66   32   34 1
    67   34   62 1
    68   34   63 1
