@<TRIPOS>MOLECULE
ZINC03828640
   64    68     0     0     0
SMALL
USER_CHARGES

@<TRIPOS>ATOM
      1 C1          2.4030   -3.5768   -2.0092 C.ar      1 <0>        -0.1203
      2 C2          3.6670   -3.0308   -2.2260 C.ar      1 <0>        -0.0806
      3 C3          4.1055   -1.9679   -1.4981 C.ar      1 <0>        -0.1408
      4 C4          3.2737   -1.4096   -0.5123 C.ar      1 <0>         0.0301
      5 C5          1.9881   -1.9645   -0.2921 C.ar      1 <0>        -0.0755
      6 C6          1.5704   -3.0626   -1.0635 C.ar      1 <0>        -0.0905
      7 C7          1.1563   -1.4060    0.6930 C.ar      1 <0>        -0.0358
      8 C8          1.5947   -0.3425    1.4208 C.ar      1 <0>        -0.1522
      9 C9          2.8583    0.2032    1.2041 C.ar      1 <0>         0.0093
     10 C10         3.6914   -0.3118    0.2587 C.ar      1 <0>        -0.6758
     11 S1          5.2853    0.3945    0.0034 S.o2      1 <0>         2.6957
     12 O1          5.3860    1.5007    0.8896 O.2       1 <0>        -0.9606
     13 O2          6.2136   -0.6813    0.0193 O.2       1 <0>        -0.9492
     14 N1          5.3058    1.0147   -1.5320 N.pl3     1 <0>        -1.1160
     15 C11         4.4105    2.1181   -1.8883 C.3       1 <0>         0.1171
     16 C12         4.8902    2.7643   -3.1895 C.3       1 <0>        -0.0952
     17 C13         6.2587    3.4102   -2.9638 C.3       1 <0>        -0.1158
     18 C14         6.1448    4.4793   -1.8752 C.3       1 <0>        -0.1217
     19 C15         5.1422    5.5487   -2.3134 C.3       1 <0>        -0.0956
     20 C16         3.7737    4.9028   -2.5391 C.3       1 <0>        -0.1255
     21 C17         3.8876    3.8337   -3.6277 C.3       1 <0>        -0.1134
     22 C18         5.0283    6.6177   -1.2248 C.3       1 <0>         0.0885
     23 N2          4.1608    7.7013   -1.6934 N.pl3     1 <0>        -0.6662
     24 C19         3.9075    8.7873   -0.8752 C.ar      1 <0>         0.6845
     25 N3          4.4656    8.8219    0.3199 N.ar      1 <0>        -0.5846
     26 C20         4.2448    9.8579    1.1425 C.ar      1 <0>         0.2022
     27 C21         4.8216    9.9274    2.4180 C.ar      1 <0>        -0.1475
     28 C22         4.5652   11.0033    3.2152 C.ar      1 <0>        -0.0186
     29 C23         3.7380   12.0356    2.7823 C.ar      1 <0>        -0.1209
     30 C24         3.1607   11.9993    1.5468 C.ar      1 <0>        -0.0370
     31 C25         3.4039   10.9096    0.7040 C.ar      1 <0>        -0.1948
     32 C26         2.8323   10.8181   -0.5896 C.ar      1 <0>         0.5606
     33 N4          3.1160    9.7554   -1.3282 N.ar      1 <0>        -0.5977
     34 N5          2.0062   11.8119   -1.0692 N.pl3     1 <0>        -0.7694
     35 H1          2.0778   -4.4178   -2.6036 H         1 <0>         0.1319
     36 H2          4.3081   -3.4580   -2.9829 H         1 <0>         0.1328
     37 H3          5.0877   -1.5558   -1.6767 H         1 <0>         0.1313
     38 H4          0.5936   -3.4958   -0.9069 H         1 <0>         0.1342
     39 H5          0.1742   -1.8182    0.8715 H         1 <0>         0.1385
     40 H6          0.9534    0.0849    2.1774 H         1 <0>         0.1364
     41 H7          3.1817    1.0473    1.7952 H         1 <0>         0.1434
     42 H8          5.9106    0.6473   -2.1954 H         1 <0>         0.4207
     43 H9          3.3988    1.7358   -2.0240 H         1 <0>         0.0668
     44 H10         4.4142    2.8611   -1.0907 H         1 <0>         0.0824
     45 H11         4.9714    2.0027   -3.9650 H         1 <0>         0.0867
     46 H12         6.9730    2.6484   -2.6516 H         1 <0>         0.0741
     47 H13         6.6005    3.8706   -3.8908 H         1 <0>         0.0711
     48 H14         5.8030    4.0189   -0.9482 H         1 <0>         0.0792
     49 H15         7.1198    4.9394   -1.7144 H         1 <0>         0.0726
     50 H16         5.4840    6.0090   -3.2404 H         1 <0>         0.0914
     51 H17         3.4319    4.4424   -1.6121 H         1 <0>         0.0729
     52 H18         3.0594    5.6646   -2.8514 H         1 <0>         0.0650
     53 H19         4.2294    4.2941   -4.5547 H         1 <0>         0.0738
     54 H20         2.9127    3.3736   -3.7885 H         1 <0>         0.0731
     55 H21         4.6027    6.1752   -0.3242 H         1 <0>         0.0902
     56 H22         6.0182    7.0156   -1.0013 H         1 <0>         0.0896
     57 H23         3.7641    7.6571   -2.5774 H         1 <0>         0.4405
     58 H24         5.4649    9.1334    2.7674 H         1 <0>         0.1568
     59 H25         5.0104   11.0552    4.1977 H         1 <0>         0.1559
     60 H26         3.5503   12.8765    3.4335 H         1 <0>         0.1526
     61 H27         2.5203   12.8060    1.2219 H         1 <0>         0.1487
     62 H28         1.8096   12.5865   -0.5193 H         1 <0>         0.4311
     63 H29         1.6216   11.7367   -1.9564 H         1 <0>         0.4316
     64 H30         5.0388    8.0933    0.6055 H         1 <0>         0.4384
@<TRIPOS>BOND
     1    1    6 ar
     2    1    2 ar
     3    1   35 1
     4    2    3 ar
     5    2   36 1
     6    3    4 ar
     7    3   37 1
     8    4   10 ar
     9    4    5 ar
    10    5    6 ar
    11    5    7 ar
    12    6   38 1
    13    7    8 ar
    14    7   39 1
    15    8    9 ar
    16    8   40 1
    17    9   10 ar
    18    9   41 1
    19   10   11 1
    20   11   12 2
    21   11   13 2
    22   11   14 1
    23   14   15 1
    24   14   42 1
    25   15   16 1
    26   15   43 1
    27   15   44 1
    28   16   21 1
    29   16   17 1
    30   16   45 1
    31   17   18 1
    32   17   46 1
    33   17   47 1
    34   18   19 1
    35   18   48 1
    36   18   49 1
    37   19   20 1
    38   19   22 1
    39   19   50 1
    40   20   21 1
    41   20   51 1
    42   20   52 1
    43   21   53 1
    44   21   54 1
    45   22   23 1
    46   22   55 1
    47   22   56 1
    48   23   24 1
    49   23   57 1
    50   24   33 ar
    51   24   25 ar
    52   25   26 ar
    53   25   64 1
    54   26   31 ar
    55   26   27 ar
    56   27   28 ar
    57   27   58 1
    58   28   29 ar
    59   28   59 1
    60   29   30 ar
    61   29   60 1
    62   30   31 ar
    63   30   61 1
    64   31   32 ar
    65   32   33 ar
    66   32   34 1
    67   34   62 1
    68   34   63 1
@<TRIPOS>MOLECULE
ZINC03952356
   67    70     0     0     0
SMALL
USER_CHARGES

@<TRIPOS>ATOM
      1 C1          1.3345    2.7623   -0.6738 C.ar      1 <0>        -0.1089
      2 C2          2.6121    3.2783   -0.6020 C.ar      1 <0>        -0.1173
      3 C3          3.7116    2.4331   -0.5309 C.ar      1 <0>        -0.0776
      4 C4          3.5241    1.0688   -0.5286 C.ar      1 <0>        -0.0931
      5 C5          2.2377    0.5514   -0.6045 C.ar      1 <0>        -0.1176
      6 C6          1.1466    1.3929   -0.6767 C.ar      1 <0>        -0.1163
      7 C7          4.6684    0.0935   -0.4376 C.3       1 <0>        -0.0848
      8 C8          5.9870    0.7776   -0.7926 C.3       1 <0>        -0.1152
      9 H1          5.9957    1.0299   -1.8529 H         1 <0>         0.0988
     10 C9          6.1090    2.0569    0.0435 C.3       1 <0>        -0.1095
     11 C10         5.0779    3.0636   -0.4626 C.3       1 <0>        -0.0836
     12 C11         7.1548   -0.1589   -0.4762 C.3       1 <0>        -0.0054
     13 N1          7.0854   -1.3396   -1.3475 N.4       1 <0>        -0.5122
     14 C12         8.2067   -2.2388   -1.0437 C.3       1 <0>        -0.0077
     15 C13         8.1345   -3.4686   -1.9511 C.3       1 <0>        -0.1157
     16 H2          7.1578   -3.9409   -1.8459 H         1 <0>         0.0961
     17 C14         8.3405   -3.0418   -3.4059 C.3       1 <0>        -0.1278
     18 C15         8.2683   -4.2715   -4.3133 C.3       1 <0>        -0.1154
     19 C16         9.3610   -5.2651   -3.9136 C.3       1 <0>        -0.0940
     20 H3         10.3377   -4.7928   -4.0189 H         1 <0>         0.0858
     21 C17         9.1549   -5.6919   -2.4589 C.3       1 <0>        -0.1205
     22 C18         9.2272   -4.4621   -1.5515 C.3       1 <0>        -0.1117
     23 C19         9.2888   -6.4948   -4.8211 C.3       1 <0>         0.1157
     24 N2         10.4070   -7.3916   -4.5182 N.pl3     1 <0>        -1.1006
     25 S1         10.3616   -8.9697   -5.0179 S.o2      1 <0>         2.7008
     26 O1         11.5973   -9.5542   -4.6301 O.2       1 <0>        -0.9268
     27 O2          9.1076   -9.4919   -4.6006 O.2       1 <0>        -0.9493
     28 C20        10.3410   -8.9579   -6.7797 C.ar      1 <0>        -0.6373
     29 C21        11.4126   -8.4358   -7.4801 C.ar      1 <0>         0.0361
     30 C22        11.3965   -8.4266   -8.8621 C.ar      1 <0>        -0.0663
     31 C23        10.3089   -8.9398   -9.5442 C.ar      1 <0>        -0.0625
     32 C24         9.2380   -9.4625   -8.8440 C.ar      1 <0>        -0.0867
     33 C25         9.2560   -9.4757   -7.4616 C.ar      1 <0>        -0.0181
     34 N3         12.5770   -7.8864   -6.7498 N.pl3     1 <0>         0.0223
     35 O3         13.5664   -7.5480   -7.3567 O.2       1 <0>        -0.1230
     36 O4         12.5387   -7.7760   -5.5465 O.3       1 <0>        -0.1505
     37 H4          0.4840    3.4261   -0.7231 H         1 <0>         0.1280
     38 H5          2.7583    4.3484   -0.6013 H         1 <0>         0.1257
     39 H6          2.0901   -0.5184   -0.6080 H         1 <0>         0.1210
     40 H7          0.1491    0.9830   -0.7346 H         1 <0>         0.1271
     41 H8          4.7281   -0.2968    0.5784 H         1 <0>         0.0878
     42 H9          4.4937   -0.7309   -1.1289 H         1 <0>         0.0696
     43 H10         5.9164    1.8300    1.0921 H         1 <0>         0.0796
     44 H11         7.1111    2.4720   -0.0647 H         1 <0>         0.0813
     45 H12         5.3665    3.4047   -1.4568 H         1 <0>         0.0815
     46 H13         5.0464    3.9172    0.2145 H         1 <0>         0.0868
     47 H14         8.0960    0.3637   -0.6467 H         1 <0>         0.1359
     48 H15         7.0969   -0.4726    0.5661 H         1 <0>         0.1348
     49 H16         6.2141   -1.8234   -1.1897 H         1 <0>         0.4259
     50 H17         9.1479   -1.7162   -1.2142 H         1 <0>         0.1337
     51 H18         8.1488   -2.5525   -0.0014 H         1 <0>         0.1344
     52 H19         7.5621   -2.3339   -3.6906 H         1 <0>         0.0590
     53 H20         9.3172   -2.5694   -3.5111 H         1 <0>         0.0810
     54 H21         7.2916   -4.7438   -4.2081 H         1 <0>         0.0734
     55 H22         8.4151   -3.9674   -5.3497 H         1 <0>         0.0757
     56 H23         8.1783   -6.1642   -2.3537 H         1 <0>         0.0729
     57 H24         9.9334   -6.3997   -2.1742 H         1 <0>         0.0809
     58 H25        10.2039   -3.9898   -1.6567 H         1 <0>         0.0767
     59 H26         9.0804   -4.7662   -0.5151 H         1 <0>         0.0774
     60 H27         8.3475   -7.0174   -4.6506 H         1 <0>         0.0842
     61 H28         9.3466   -6.1812   -5.8633 H         1 <0>         0.0605
     62 H29        11.1740   -7.0609   -4.0249 H         1 <0>         0.4295
     63 H30        12.2333   -8.0181   -9.4091 H         1 <0>         0.1648
     64 H31        10.2960   -8.9319  -10.6241 H         1 <0>         0.1600
     65 H32         8.3882   -9.8631   -9.3769 H         1 <0>         0.1574
     66 H33         8.4208   -9.8875   -6.9146 H         1 <0>         0.1673
     67 H34         7.1390   -1.0493   -2.3123 H         1 <0>         0.4259
@<TRIPOS>BOND
     1    1    6 ar
     2    1    2 ar
     3    1   37 1
     4    2    3 ar
     5    2   38 1
     6    3   11 1
     7    3    4 ar
     8    4    5 ar
     9    4    7 1
    10    5    6 ar
    11    5   39 1
    12    6   40 1
    13    7    8 1
    14    7   41 1
    15    7   42 1
    16    8    9 1
    17    8   10 1
    18    8   12 1
    19   10   11 1
    20   10   43 1
    21   10   44 1
    22   11   45 1
    23   11   46 1
    24   12   13 1
    25   12   47 1
    26   12   48 1
    27   13   14 1
    28   13   49 1
    29   13   67 1
    30   14   15 1
    31   14   50 1
    32   14   51 1
    33   15   16 1
    34   15   22 1
    35   15   17 1
    36   17   18 1
    37   17   52 1
    38   17   53 1
    39   18   19 1
    40   18   54 1
    41   18   55 1
    42   19   20 1
    43   19   21 1
    44   19   23 1
    45   21   22 1
    46   21   56 1
    47   21   57 1
    48   22   58 1
    49   22   59 1
    50   23   24 1
    51   23   60 1
    52   23   61 1
    53   24   25 1
    54   24   62 1
    55   25   26 2
    56   25   27 2
    57   25   28 1
    58   28   33 ar
    59   28   29 ar
    60   29   30 ar
    61   29   34 1
    62   30   31 ar
    63   30   63 1
    64   31   32 ar
    65   31   64 1
    66   32   33 ar
    67   32   65 1
    68   33   66 1
    69   34   35 2
    70   34   36 1
@<TRIPOS>MOLECULE
ZINC08022499
   67    70     0     0     0
SMALL
USER_CHARGES

@<TRIPOS>ATOM
      1 C1          0.6519    2.2866   -1.7271 C.ar      1 <0>        -0.1090
      2 C2          1.8909    2.8858   -1.5947 C.ar      1 <0>        -0.1161
      3 C3          3.0139    2.1049   -1.4172 C.ar      1 <0>        -0.1176
      4 C4          2.9111    0.7203   -1.3728 C.ar      1 <0>        -0.0929
      5 C5          1.6782    0.1234   -1.5097 C.ar      1 <0>        -0.0778
      6 C6          0.5479    0.9118   -1.6838 C.ar      1 <0>        -0.1174
      7 C7          1.4942   -1.3715   -1.4876 C.3       1 <0>        -0.0833
      8 C8          2.7139   -2.0539   -0.8717 C.3       1 <0>        -0.1096
      9 C9          3.9700   -1.5284   -1.5765 C.3       1 <0>        -0.1148
     10 H1          3.8389   -1.5928   -2.6567 H         1 <0>         0.0986
     11 C10         4.1767   -0.0709   -1.1695 C.3       1 <0>        -0.0845
     12 C11         5.1834   -2.3592   -1.1543 C.3       1 <0>        -0.0060
     13 N1          6.3610   -1.9306   -1.9208 N.4       1 <0>        -0.5115
     14 C12         7.5261   -2.7283   -1.5154 C.3       1 <0>        -0.0168
     15 C13         8.7525   -2.2819   -2.3138 C.3       1 <0>        -0.1110
     16 C14         8.5400   -2.5998   -3.7953 C.3       1 <0>        -0.1305
     17 C15         8.3385   -4.1064   -3.9698 C.3       1 <0>        -0.1231
     18 C16         9.5759   -4.8488   -3.4613 C.3       1 <0>        -0.0955
     19 C17         9.7884   -4.5309   -1.9798 C.3       1 <0>        -0.1270
     20 C18         9.9899   -3.0243   -1.8053 C.3       1 <0>        -0.1136
     21 C19         9.3744   -6.3553   -3.6359 C.3       1 <0>         0.1164
     22 N2         10.6033   -7.0591   -3.2609 N.pl3     1 <0>        -1.1005
     23 S1         10.5621   -8.6829   -2.9383 S.o2      1 <0>         2.7012
     24 O1         11.9021   -9.0801   -2.6817 O.2       1 <0>        -0.9254
     25 O2          9.5148   -8.8839   -1.9991 O.2       1 <0>        -0.9512
     26 C20        10.0710   -9.4965   -4.4220 C.ar      1 <0>        -0.6376
     27 C21         8.8888  -10.2124   -4.4591 C.ar      1 <0>        -0.0194
     28 C22         8.5036  -10.8506   -5.6230 C.ar      1 <0>        -0.0872
     29 C23         9.3002  -10.7727   -6.7503 C.ar      1 <0>        -0.0618
     30 C24        10.4816  -10.0563   -6.7135 C.ar      1 <0>        -0.0660
     31 C25        10.8648   -9.4143   -5.5505 C.ar      1 <0>         0.0368
     32 N3         12.1274   -8.6428   -5.5126 N.pl3     1 <0>         0.0215
     33 O3         12.8842   -8.6752   -6.4549 O.2       1 <0>        -0.1208
     34 O4         12.4020   -7.9802   -4.5393 O.3       1 <0>        -0.1507
     35 H2         -0.2319    2.8930   -1.8595 H         1 <0>         0.1279
     36 H3          1.9791    3.9616   -1.6304 H         1 <0>         0.1271
     37 H4          3.9812    2.5737   -1.3124 H         1 <0>         0.1212
     38 H5         -0.4204    0.4446   -1.7864 H         1 <0>         0.1255
     39 H6          0.6101   -1.6161   -0.8990 H         1 <0>         0.0867
     40 H7          1.3575   -1.7318   -2.5072 H         1 <0>         0.0813
     41 H8          2.7659   -1.8222    0.1922 H         1 <0>         0.0798
     42 H9          2.6397   -3.1325   -1.0097 H         1 <0>         0.0811
     43 H10         4.9726    0.3621   -1.7755 H         1 <0>         0.0699
     44 H11         4.4624   -0.0282   -0.1185 H         1 <0>         0.0879
     45 H12         5.3703   -2.2146   -0.0902 H         1 <0>         0.1352
     46 H13         4.9873   -3.4136   -1.3488 H         1 <0>         0.1355
     47 H14         6.1881   -2.0644   -2.9058 H         1 <0>         0.4252
     48 H15         7.7129   -2.5837   -0.4513 H         1 <0>         0.1352
     49 H16         7.3299   -3.7827   -1.7099 H         1 <0>         0.1380
     50 H17         8.8961   -1.2086   -2.1894 H         1 <0>         0.0962
     51 H18         7.6585   -2.0709   -4.1575 H         1 <0>         0.0608
     52 H19         9.4138   -2.2818   -4.3640 H         1 <0>         0.0931
     53 H20         7.4647   -4.4244   -3.4010 H         1 <0>         0.0626
     54 H21         8.1871   -4.3328   -5.0252 H         1 <0>         0.0797
     55 H22        10.4497   -4.5308   -4.0301 H         1 <0>         0.0910
     56 H23         8.9146   -4.8489   -1.4111 H         1 <0>         0.0670
     57 H24        10.6700   -5.0598   -1.6176 H         1 <0>         0.0830
     58 H25        10.8637   -2.7063   -2.3741 H         1 <0>         0.0869
     59 H26        10.1413   -2.7979   -0.7499 H         1 <0>         0.0785
     60 H27         8.5557   -6.6887   -2.9981 H         1 <0>         0.0811
     61 H28         9.1351   -6.5717   -4.6770 H         1 <0>         0.0608
     62 H29        11.4412   -6.5740   -3.2015 H         1 <0>         0.4308
     63 H30         8.2665  -10.2732   -3.5785 H         1 <0>         0.1666
     64 H31         7.5804  -11.4104   -5.6517 H         1 <0>         0.1572
     65 H32         8.9995  -11.2720   -7.6595 H         1 <0>         0.1602
     66 H33        11.1040   -9.9957   -7.5940 H         1 <0>         0.1653
     67 H34         6.5426   -0.9546   -1.7408 H         1 <0>         0.4257
@<TRIPOS>BOND
     1    1    6 ar
     2    1    2 ar
     3    1   35 1
     4    2    3 ar
     5    2   36 1
     6    3    4 ar
     7    3   37 1
     8    4   11 1
     9    4    5 ar
    10    5    6 ar
    11    5    7 1
    12    6   38 1
    13    7    8 1
    14    7   39 1
    15    7   40 1
    16    8    9 1
    17    8   41 1
    18    8   42 1
    19    9   10 1
    20    9   11 1
    21    9   12 1
    22   11   43 1
    23   11   44 1
    24   12   13 1
    25   12   45 1
    26   12   46 1
    27   13   14 1
    28   13   47 1
    29   13   67 1
    30   14   15 1
    31   14   48 1
    32   14   49 1
    33   15   20 1
    34   15   16 1
    35   15   50 1
    36   16   17 1
    37   16   51 1
    38   16   52 1
    39   17   18 1
    40   17   53 1
    41   17   54 1
    42   18   19 1
    43   18   21 1
    44   18   55 1
    45   19   20 1
    46   19   56 1
    47   19   57 1
    48   20   58 1
    49   20   59 1
    50   21   22 1
    51   21   60 1
    52   21   61 1
    53   22   23 1
    54   22   62 1
    55   23   24 2
    56   23   25 2
    57   23   26 1
    58   26   31 ar
    59   26   27 ar
    60   27   28 ar
    61   27   63 1
    62   28   29 ar
    63   28   64 1
    64   29   30 ar
    65   29   65 1
    66   30   31 ar
    67   30   66 1
    68   31   32 1
    69   32   33 2
    70   32   34 1
