@<TRIPOS>MOLECULE
ZINC01656970
   43    48     0     0     0
SMALL
USER_CHARGES
2-BLAHylbenzothiophene
@<TRIPOS>ATOM
      1 C1          3.6948    5.4200   -4.2625 C.ar      1 <0>        -0.1101
      2 C2          2.9494    4.8577   -3.2339 C.ar      1 <0>        -0.1135
      3 C3          2.5228    5.6198   -2.1834 C.ar      1 <0>        -0.1311
      4 C4          2.8386    6.9803   -2.1410 C.ar      1 <0>        -0.0467
      5 C5          3.5963    7.5543   -3.1849 C.ar      1 <0>        -0.0460
      6 C6          4.0190    6.7459   -4.2485 C.ar      1 <0>        -0.1084
      7 C7          3.9300    8.9743   -3.1478 C.ar      1 <0>        -0.1001
      8 C8          3.5159    9.7563   -2.1310 C.ar      1 <0>        -0.1054
      9 C9          2.7345    9.2020   -1.0270 C.ar      1 <0>        -0.0510
     10 C10         2.3956    7.8251   -1.0272 C.ar      1 <0>         0.0020
     11 C11         1.6428    7.2825    0.0224 C.ar      1 <0>        -0.0112
     12 C12         1.2333    8.1157    1.0866 C.ar      1 <0>        -0.0174
     13 C13         0.4829    7.5998    2.1557 C.ar      1 <0>        -0.1087
     14 C14         0.0993    8.4216    3.1705 C.ar      1 <0>        -0.1045
     15 C15         0.4410    9.7738    3.1673 C.ar      1 <0>        -0.1153
     16 C16         1.1663   10.3104    2.1504 C.ar      1 <0>        -0.1008
     17 C17         1.5821    9.4918    1.0806 C.ar      1 <0>        -0.0525
     18 C18         2.3293   10.0217    0.0239 C.ar      1 <0>        -0.0700
     19 C19         1.2868    5.8539    0.0190 C.2       1 <0>        -0.0716
     20 C20         1.9450    4.8157    0.5991 C.2       1 <0>        -0.1318
     21 C21         1.4365    3.5077    0.4801 C.ar      1 <0>        -0.0880
     22 C22         1.9727    2.3061    1.0088 C.ar      1 <0>        -0.0711
     23 C23         1.3480    1.1170    0.8042 C.ar      1 <0>        -0.1213
     24 C24         0.1748    1.0290    0.0661 C.ar      1 <0>        -0.0901
     25 C25        -0.3811    2.1759   -0.4665 C.ar      1 <0>        -0.0778
     26 C26         0.2386    3.3887   -0.2624 C.ar      1 <0>        -0.1147
     27 S1         -0.1149    5.0592   -0.7476 S.3       1 <0>         0.0466
     28 H1          4.0223    4.7999   -5.0839 H         1 <0>         0.1246
     29 H2          2.7044    3.8063   -3.2650 H         1 <0>         0.1214
     30 H3          1.9438    5.1725   -1.3889 H         1 <0>         0.1547
     31 H4          4.5997    7.1703   -5.0542 H         1 <0>         0.1289
     32 H5          4.5096    9.4064   -3.9501 H         1 <0>         0.1320
     33 H6          3.7753   10.8047   -2.1259 H         1 <0>         0.1336
     34 H7          0.2106    6.5548    2.1722 H         1 <0>         0.1266
     35 H8         -0.4783    8.0207    3.9903 H         1 <0>         0.1262
     36 H9          0.1244   10.4042    3.9851 H         1 <0>         0.1268
     37 H10         1.4231   11.3594    2.1622 H         1 <0>         0.1318
     38 H11         2.5925   11.0691    0.0224 H         1 <0>         0.1385
     39 H12         2.8566    4.9935    1.1502 H         1 <0>         0.1406
     40 H13         2.8859    2.3372    1.5846 H         1 <0>         0.1268
     41 H14         1.7764    0.2179    1.2219 H         1 <0>         0.1291
     42 H15        -0.3016    0.0718   -0.0865 H         1 <0>         0.1362
     43 H16        -1.2955    2.1219   -1.0387 H         1 <0>         0.1327
@<TRIPOS>BOND
     1    1    6 ar
     2    1    2 ar
     3    1   28 1
     4    2    3 ar
     5    2   29 1
     6    3    4 ar
     7    3   30 1
     8    4   10 ar
     9    4    5 ar
    10    5    6 ar
    11    5    7 ar
    12    6   31 1
    13    7    8 ar
    14    7   32 1
    15    8    9 ar
    16    8   33 1
    17    9   18 ar
    18    9   10 ar
    19   10   11 ar
    20   11   12 ar
    21   11   19 1
    22   12   17 ar
    23   12   13 ar
    24   13   14 ar
    25   13   34 1
    26   14   15 ar
    27   14   35 1
    28   15   16 ar
    29   15   36 1
    30   16   17 ar
    31   16   37 1
    32   17   18 ar
    33   18   38 1
    34   19   27 1
    35   19   20 2
    36   20   21 1
    37   20   39 1
    38   21   26 ar
    39   21   22 ar
    40   22   23 ar
    41   22   40 1
    42   23   24 ar
    43   23   41 1
    44   24   25 ar
    45   24   42 1
    46   25   26 ar
    47   25   43 1
    48   26   27 1
@<TRIPOS>MOLECULE
ZINC04962613
   39    41     0     0     0
SMALL
USER_CHARGES

@<TRIPOS>ATOM
      1 C1         -0.0225    1.3184    0.5144 C.ar      1 <0>        -0.1646
      2 C2          1.1554    2.0413    0.4599 C.ar      1 <0>        -0.0797
      3 C3          2.3641    1.3863    0.3323 C.ar      1 <0>        -0.1845
      4 C4          2.3963   -0.0016    0.2591 C.ar      1 <0>         0.2117
      5 C5          1.2103   -0.7247    0.3147 C.ar      1 <0>        -0.1582
      6 C6          0.0054   -0.0625    0.4419 C.ar      1 <0>        -0.0837
      7 N1          3.6150   -0.6666    0.1298 N.pl3     1 <0>        -0.5807
      8 N2          3.6454   -2.0654    0.0562 N.2       1 <0>        -0.1958
      9 C7          4.7766   -2.6842   -0.1594 C.2       1 <0>         0.1619
     10 C8          6.0433   -1.9200   -0.1929 C.ar      1 <0>        -0.1202
     11 C9          6.5172   -1.2976    0.9619 C.ar      1 <0>        -0.0872
     12 C10         7.6991   -0.5869    0.9249 C.ar      1 <0>        -0.1251
     13 C11         8.4169   -0.4882   -0.2545 C.ar      1 <0>        -0.0895
     14 C12         7.9567   -1.1004   -1.4051 C.ar      1 <0>        -0.1476
     15 C13         6.7749   -1.8228   -1.3822 C.ar      1 <0>         0.1339
     16 O1          6.3247   -2.4296   -2.5112 O.3       1 <0>        -0.4871
     17 C14         4.7904   -4.1488   -0.3699 C.ar      1 <0>        -0.0588
     18 C15         5.9848   -4.8022   -0.6732 C.ar      1 <0>        -0.0622
     19 C16         5.9917   -6.1680   -0.8679 C.ar      1 <0>        -0.1333
     20 C17         4.8174   -6.8932   -0.7640 C.ar      1 <0>        -0.0899
     21 C18         3.6277   -6.2563   -0.4643 C.ar      1 <0>        -0.1528
     22 C19         3.6059   -4.8864   -0.2599 C.ar      1 <0>         0.1391
     23 O2          2.4382   -4.2603    0.0402 O.3       1 <0>        -0.4785
     24 H1         -0.9662    1.8333    0.6184 H         1 <0>         0.1203
     25 H2          1.1296    3.1195    0.5168 H         1 <0>         0.1237
     26 H3          3.2834    1.9515    0.2891 H         1 <0>         0.1188
     27 H4          1.2313   -1.8030    0.2578 H         1 <0>         0.1352
     28 H5         -0.9164   -0.6236    0.4847 H         1 <0>         0.1234
     29 H6          4.4418   -0.1608    0.0908 H         1 <0>         0.3881
     30 H7          5.9595   -1.3718    1.8838 H         1 <0>         0.1275
     31 H8          8.0654   -0.1052    1.8195 H         1 <0>         0.1319
     32 H9          9.3411    0.0702   -0.2758 H         1 <0>         0.1322
     33 H10         8.5216   -1.0192   -2.3221 H         1 <0>         0.1351
     34 H11         5.8109   -1.8506   -3.0907 H         1 <0>         0.3919
     35 H12         6.9030   -4.2395   -0.7558 H         1 <0>         0.1275
     36 H13         6.9169   -6.6732   -1.1028 H         1 <0>         0.1282
     37 H14         4.8306   -7.9620   -0.9181 H         1 <0>         0.1286
     38 H15         2.7149   -6.8281   -0.3850 H         1 <0>         0.1320
     39 H16         1.9443   -3.9571   -0.7338 H         1 <0>         0.3882
@<TRIPOS>BOND
     1    1    6 ar
     2    1    2 ar
     3    1   24 1
     4    2    3 ar
     5    2   25 1
     6    3    4 ar
     7    3   26 1
     8    4    5 ar
     9    4    7 1
    10    5    6 ar
    11    5   27 1
    12    6   28 1
    13    7    8 1
    14    7   29 1
    15    8    9 2
    16    9   10 1
    17    9   17 1
    18   10   15 ar
    19   10   11 ar
    20   11   12 ar
    21   11   30 1
    22   12   13 ar
    23   12   31 1
    24   13   14 ar
    25   13   32 1
    26   14   15 ar
    27   14   33 1
    28   15   16 1
    29   16   34 1
    30   17   22 ar
    31   17   18 ar
    32   18   19 ar
    33   18   35 1
    34   19   20 ar
    35   19   36 1
    36   20   21 ar
    37   20   37 1
    38   21   22 ar
    39   21   38 1
    40   22   23 1
    41   23   39 1
@<TRIPOS>MOLECULE
ZINC06576609
   46    50     0     0     0
SMALL
USER_CHARGES
5-(2-fluorophenyl)-3-(2-naphthyl)-6-thia-2-azabicyclo[5.4.0]undeca-2,8,10,12-tetraene
@<TRIPOS>ATOM
      1 C1          2.4145   -3.9762    6.3457 C.ar      1 <0>        -0.1098
      2 C2          1.4885   -2.9362    6.2902 C.ar      1 <0>        -0.1185
      3 C3          1.5809   -1.9667    5.3396 C.ar      1 <0>        -0.1013
      4 C4          2.6252   -2.0122    4.3981 C.ar      1 <0>        -0.0574
      5 C5          2.7526   -1.0259    3.4092 C.ar      1 <0>        -0.0769
      6 C6          3.7930   -1.1076    2.4950 C.ar      1 <0>        -0.0735
      7 C7          4.7217   -2.1643    2.5630 C.ar      1 <0>        -0.0713
      8 C8          4.6154   -3.1229    3.5169 C.ar      1 <0>        -0.1146
      9 C9          3.5674   -3.0707    4.4551 C.ar      1 <0>        -0.0383
     10 C10         3.4381   -4.0525    5.4512 C.ar      1 <0>        -0.1104
     11 C11         3.9306   -0.0797    1.4507 C.2       1 <0>         0.3139
     12 N1          4.9780   -0.1291    0.7850 N.2       1 <0>        -0.5780
     13 C12         5.6008    0.3706   -0.2816 C.ar      1 <0>         0.1673
     14 C13         6.8192   -0.2688   -0.6098 C.ar      1 <0>        -0.0809
     15 C14         7.5536    0.1040   -1.7056 C.ar      1 <0>        -0.1125
     16 C15         7.1050    1.1313   -2.5196 C.ar      1 <0>        -0.1007
     17 C16         5.9307    1.7765   -2.2127 C.ar      1 <0>        -0.0891
     18 C17         5.1668    1.4189   -1.0947 C.ar      1 <0>        -0.1346
     19 S1          3.7076    2.3415   -0.8117 S.3       1 <0>        -0.0695
     20 C18         2.4935    1.2478   -0.0860 C.3       1 <0>        -0.0413
     21 H1          2.4461    0.3354   -0.6804 H         1 <0>         0.1007
     22 C19         2.7979    0.8789    1.3380 C.3       1 <0>        -0.1411
     23 C20         1.1470    1.9230   -0.1322 C.ar      1 <0>        -0.1028
     24 C21         1.0652    3.3027   -0.1355 C.ar      1 <0>        -0.0786
     25 C22        -0.1697    3.9223   -0.1783 C.ar      1 <0>        -0.1216
     26 C23        -1.3244    3.1628   -0.2176 C.ar      1 <0>        -0.0845
     27 C24        -1.2449    1.7833   -0.2202 C.ar      1 <0>        -0.1485
     28 C25        -0.0085    1.1615   -0.1719 C.ar      1 <0>         0.1112
     29 F1          0.0703   -0.1872   -0.1693 F         1 <0>        -0.1336
     30 H2          2.3188   -4.7331    7.1101 H         1 <0>         0.1242
     31 H3          0.6856   -2.8994    7.0117 H         1 <0>         0.1245
     32 H4          0.8565   -1.1663    5.3084 H         1 <0>         0.1280
     33 H5          2.0444   -0.2122    3.3571 H         1 <0>         0.1344
     34 H6          5.5284   -2.2122    1.8466 H         1 <0>         0.1345
     35 H7          5.3352   -3.9271    3.5564 H         1 <0>         0.1297
     36 H8          4.1476   -4.8649    5.5071 H         1 <0>         0.1281
     37 H9          7.1797   -1.0699    0.0183 H         1 <0>         0.1317
     38 H10         8.4801   -0.4019   -1.9337 H         1 <0>         0.1330
     39 H11         7.6744    1.4237   -3.3894 H         1 <0>         0.1338
     40 H12         5.5886    2.5789   -2.8495 H         1 <0>         0.1299
     41 H13         3.0440    1.7850    1.8917 H         1 <0>         0.1066
     42 H14         1.9109    0.4272    1.7822 H         1 <0>         0.1058
     43 H15         1.9665    3.8970   -0.1049 H         1 <0>         0.1392
     44 H16        -0.2326    5.0004   -0.1808 H         1 <0>         0.1353
     45 H17        -2.2887    3.6479   -0.2510 H         1 <0>         0.1372
     46 H18        -2.1468    1.1903   -0.2553 H         1 <0>         0.1404
@<TRIPOS>BOND
     1    1   10 ar
     2    1    2 ar
     3    1   30 1
     4    2    3 ar
     5    2   31 1
     6    3    4 ar
     7    3   32 1
     8    4    9 ar
     9    4    5 ar
    10    5    6 ar
    11    5   33 1
    12    6    7 ar
    13    6   11 1
    14    7    8 ar
    15    7   34 1
    16    8    9 ar
    17    8   35 1
    18    9   10 ar
    19   10   36 1
    20   11   22 1
    21   11   12 2
    22   12   13 1
    23   13   18 ar
    24   13   14 ar
    25   14   15 ar
    26   14   37 1
    27   15   16 ar
    28   15   38 1
    29   16   17 ar
    30   16   39 1
    31   17   18 ar
    32   17   40 1
    33   18   19 1
    34   19   20 1
    35   20   21 1
    36   20   22 1
    37   20   23 1
    38   22   41 1
    39   22   42 1
    40   23   28 ar
    41   23   24 ar
    42   24   25 ar
    43   24   43 1
    44   25   26 ar
    45   25   44 1
    46   26   27 ar
    47   26   45 1
    48   27   28 ar
    49   27   46 1
    50   28   29 1
@<TRIPOS>MOLECULE
ZINC04023085
   27    28     0     0     0
SMALL
USER_CHARGES
2-(3,5-dihydroxyphenyl)benzene-1,3,5-triol
@<TRIPOS>ATOM
      1 C1          1.7586    0.5609    3.3492 C.ar      1 <0>        -0.1263
      2 C2          1.2078    1.5143    2.4950 C.ar      1 <0>        -0.0081
      3 C3          0.0389    2.1795    2.8596 C.ar      1 <0>        -0.1271
      4 C4         -0.5778    1.8834    4.0644 C.ar      1 <0>         0.1215
      5 C5         -0.0270    0.9334    4.9122 C.ar      1 <0>        -0.1678
      6 C6          1.1397    0.2734    4.5549 C.ar      1 <0>         0.1218
      7 O1          1.6759   -0.6565    5.3883 O.3       1 <0>        -0.4956
      8 O2         -1.7206    2.5280    4.4184 O.3       1 <0>        -0.4947
      9 C7          1.8673    1.8245    1.2042 C.ar      1 <0>        -0.1176
     10 C8          3.1388    2.4056    1.1876 C.ar      1 <0>         0.1561
     11 C9          3.7479    2.6975   -0.0211 C.ar      1 <0>        -0.1800
     12 C10         3.1005    2.4104   -1.2144 C.ar      1 <0>         0.1466
     13 C11         1.8405    1.8293   -1.2040 C.ar      1 <0>        -0.1813
     14 C12         1.2222    1.5322   -0.0014 C.ar      1 <0>         0.1581
     15 O3         -0.0110    0.9628    0.0073 O.3       1 <0>        -0.4872
     16 O4          3.7029    2.6991   -2.3975 O.3       1 <0>        -0.4935
     17 O5          3.7734    2.6876    2.3550 O.3       1 <0>        -0.4867
     18 H1          2.6671    0.0470    3.0718 H         1 <0>         0.1323
     19 H2         -0.3882    2.9222    2.2019 H         1 <0>         0.1321
     20 H3         -0.5075    0.7074    5.8527 H         1 <0>         0.1360
     21 H4          2.3085   -0.2962    6.0247 H         1 <0>         0.3939
     22 H5         -1.5739    3.3440    4.9161 H         1 <0>         0.3927
     23 H6          4.7285    3.1498   -0.0351 H         1 <0>         0.1422
     24 H7          1.3413    1.6080   -2.1358 H         1 <0>         0.1423
     25 H8          0.0021   -0.0041    0.0020 H         1 <0>         0.3977
     26 H9          3.5074    3.5848   -2.7326 H         1 <0>         0.3975
     27 H10         3.5873    3.5714    2.7004 H         1 <0>         0.3950
@<TRIPOS>BOND
     1    1    6 ar
     2    1    2 ar
     3    1   18 1
     4    2    3 ar
     5    2    9 1
     6    3    4 ar
     7    3   19 1
     8    4    5 ar
     9    4    8 1
    10    5    6 ar
    11    5   20 1
    12    6    7 1
    13    7   21 1
    14    8   22 1
    15    9   14 ar
    16    9   10 ar
    17   10   11 ar
    18   10   17 1
    19   11   12 ar
    20   11   23 1
    21   12   13 ar
    22   12   16 1
    23   13   14 ar
    24   13   24 1
    25   14   15 1
    26   15   25 1
    27   16   26 1
    28   17   27 1
@<TRIPOS>MOLECULE
ZINC03869855
   35    38     0     0     0
SMALL
USER_CHARGES

@<TRIPOS>ATOM
      1 C1         -0.0166    1.3729    0.0096 C.ar      1 <0>        -0.1778
      2 C2          1.1712    2.0895    0.0021 C.ar      1 <0>        -0.1003
      3 C3          2.3858    1.4368   -0.0134 C.ar      1 <0>        -0.1625
      4 C4          2.4270    0.0485   -0.0212 C.ar      1 <0>         0.1515
      5 C5          1.2254   -0.6776   -0.0132 C.ar      1 <0>        -0.1542
      6 C6          0.0021   -0.0041    0.0020 C.ar      1 <0>        -0.0487
      7 C7          1.2825   -2.1476   -0.0216 C.2       1 <0>         0.3118
      8 C8          2.5139   -2.7424   -0.0371 C.2       1 <0>        -0.4361
      9 C9          3.6703   -1.9476   -0.0443 C.2       1 <0>         0.4867
     10 O1          4.7616   -2.4898   -0.0581 O.2       1 <0>        -0.4932
     11 O2          3.6080   -0.6065   -0.0368 O.3       1 <0>        -0.3131
     12 C10         2.6284   -4.2450   -0.0458 C.3       1 <0>         0.1069
     13 C11         2.7757   -4.7293   -1.4653 C.2       1 <0>        -0.4360
     14 C12         4.0187   -4.9640   -1.9853 C.2       1 <0>         0.3118
     15 C13         4.1079   -5.4358   -3.3759 C.ar      1 <0>        -0.1543
     16 C14         5.3446   -5.6956   -3.9704 C.ar      1 <0>        -0.0487
     17 C15         5.3936   -6.1367   -5.2741 C.ar      1 <0>        -0.1779
     18 C16         4.2230   -6.3223   -5.9951 C.ar      1 <0>        -0.1003
     19 C17         2.9955   -6.0693   -5.4199 C.ar      1 <0>        -0.1626
     20 C18         2.9237   -5.6242   -4.1061 C.ar      1 <0>         0.1516
     21 O3          1.7298   -5.3726   -3.5272 O.3       1 <0>        -0.3131
     22 C19         1.6380   -4.9470   -2.2571 C.2       1 <0>         0.4866
     23 O4          0.5359   -4.7390   -1.7804 O.2       1 <0>        -0.4928
     24 O5          5.1325   -4.7677   -1.2435 O.3       1 <0>        -0.6378
     25 O6          0.1511   -2.8887   -0.0139 O.3       1 <0>        -0.6374
     26 H1         -0.9605    1.8975    0.0259 H         1 <0>         0.1129
     27 H2          1.1444    3.1692    0.0081 H         1 <0>         0.1161
     28 H3          3.3044    2.0047   -0.0198 H         1 <0>         0.1225
     29 H4         -0.9239   -0.5599    0.0075 H         1 <0>         0.1295
     30 H5          3.5013   -4.5462    0.5333 H         1 <0>         0.0390
     31 H6          1.7317   -4.6803    0.3954 H         1 <0>         0.0388
     32 H7          6.2572   -5.5512   -3.4112 H         1 <0>         0.1296
     33 H8          6.3479   -6.3389   -5.7375 H         1 <0>         0.1129
     34 H9          4.2736   -6.6679   -7.0171 H         1 <0>         0.1161
     35 H10         2.0906   -6.2169   -5.9907 H         1 <0>         0.1225
@<TRIPOS>BOND
     1    1    6 ar
     2    1    2 ar
     3    1   26 1
     4    2    3 ar
     5    2   27 1
     6    3    4 ar
     7    3   28 1
     8    4   11 1
     9    4    5 ar
    10    5    6 ar
    11    5    7 1
    12    6   29 1
    13    7    8 2
    14    7   25 1
    15    8    9 1
    16    8   12 1
    17    9   10 2
    18    9   11 1
    19   12   13 1
    20   12   30 1
    21   12   31 1
    22   13   22 1
    23   13   14 2
    24   14   15 1
    25   14   24 1
    26   15   20 ar
    27   15   16 ar
    28   16   17 ar
    29   16   32 1
    30   17   18 ar
    31   17   33 1
    32   18   19 ar
    33   18   34 1
    34   19   20 ar
    35   19   35 1
    36   20   21 1
    37   21   22 1
    38   22   23 2
@<TRIPOS>MOLECULE
ZINC03869855
   37    40     0     0     0
SMALL
USER_CHARGES

@<TRIPOS>ATOM
      1 C1         -0.0166    1.3738    0.0096 C.ar      1 <0>        -0.1459
      2 C2          1.1716    2.0894    0.0021 C.ar      1 <0>        -0.0609
      3 C3          2.3858    1.4365   -0.0134 C.ar      1 <0>        -0.1381
      4 C4          2.4258    0.0477   -0.0212 C.ar      1 <0>         0.1515
      5 C5          1.2233   -0.6749   -0.0132 C.ar      1 <0>        -0.2164
      6 C6          0.0021   -0.0041    0.0020 C.ar      1 <0>        -0.0323
      7 C7          1.2898   -2.1506   -0.0218 C.2       1 <0>         0.4339
      8 O1          0.2773   -2.8315   -0.0157 O.2       1 <0>        -0.4589
      9 C8          2.5710   -2.7411   -0.0377 C.2       1 <0>        -0.3281
     10 C9          3.6745   -1.9488   -0.0444 C.2       1 <0>         0.3639
     11 O2          3.6033   -0.6118   -0.0368 O.3       1 <0>        -0.2626
     12 O3          4.8914   -2.5327   -0.0597 O.3       1 <0>        -0.3881
     13 C10         2.7144   -4.2413   -0.0468 C.3       1 <0>         0.0441
     14 C11         2.6533   -4.7603    1.3666 C.2       1 <0>        -0.3278
     15 C12         3.8164   -4.7855    2.1646 C.2       1 <0>         0.4339
     16 O4          4.8888   -4.3919    1.7357 O.2       1 <0>        -0.4589
     17 C13         3.6840   -5.3070    3.5403 C.ar      1 <0>        -0.2164
     18 C14         4.7783   -5.3694    4.4007 C.ar      1 <0>        -0.0323
     19 C15         4.6125   -5.8623    5.6768 C.ar      1 <0>        -0.1459
     20 C16         3.3652   -6.2943    6.1031 C.ar      1 <0>        -0.0609
     21 C17         2.2753   -6.2373    5.2607 C.ar      1 <0>        -0.1381
     22 C18         2.4218   -5.7432    3.9704 C.ar      1 <0>         0.1515
     23 O5          1.3683   -5.6776    3.1294 O.3       1 <0>        -0.2626
     24 C19         1.4765   -5.2018    1.8825 C.2       1 <0>         0.3638
     25 O6          0.3736   -5.1641    1.1054 O.3       1 <0>        -0.3882
     26 H1         -0.9603    1.8987    0.0259 H         1 <0>         0.1371
     27 H2          1.1453    3.1691    0.0081 H         1 <0>         0.1419
     28 H3          3.3047    2.0039   -0.0198 H         1 <0>         0.1432
     29 H4         -0.9237   -0.5603    0.0078 H         1 <0>         0.1433
     30 H5          1.9051   -4.6801   -0.6304 H         1 <0>         0.0859
     31 H6          3.6717   -4.5120   -0.4922 H         1 <0>         0.0859
     32 H7          5.7500   -5.0340    4.0695 H         1 <0>         0.1433
     33 H8          5.4573   -5.9129    6.3478 H         1 <0>         0.1372
     34 H9          3.2467   -6.6795    7.1051 H         1 <0>         0.1419
     35 H10         1.3089   -6.5767    5.6031 H         1 <0>         0.1432
     36 H11        -0.4250   -5.4938    1.5396 H         1 <0>         0.4085
     37 H12         5.6282   -1.9064   -0.0636 H         1 <0>         0.4085
@<TRIPOS>BOND
     1    1    6 ar
     2    1    2 ar
     3    1   26 1
     4    2    3 ar
     5    2   27 1
     6    3    4 ar
     7    3   28 1
     8    4   11 1
     9    4    5 ar
    10    5    6 ar
    11    5    7 1
    12    6   29 1
    13    7    8 2
    14    7    9 1
    15    9   10 2
    16    9   13 1
    17   10   11 1
    18   10   12 1
    19   12   37 1
    20   13   14 1
    21   13   30 1
    22   13   31 1
    23   14   24 2
    24   14   15 1
    25   15   16 2
    26   15   17 1
    27   17   22 ar
    28   17   18 ar
    29   18   19 ar
    30   18   32 1
    31   19   20 ar
    32   19   33 1
    33   20   21 ar
    34   20   34 1
    35   21   22 ar
    36   21   35 1
    37   22   23 1
    38   23   24 1
    39   24   25 1
    40   25   36 1
@<TRIPOS>MOLECULE
ZINC03869855
   35    38     0     0     0
SMALL
USER_CHARGES

@<TRIPOS>ATOM
      1 C1         -0.0166    1.3738    0.0096 C.ar      1 <0>        -0.1823
      2 C2          1.1716    2.0894    0.0021 C.ar      1 <0>        -0.0923
      3 C3          2.3858    1.4365   -0.0134 C.ar      1 <0>        -0.1660
      4 C4          2.4258    0.0477   -0.0212 C.ar      1 <0>         0.1630
      5 C5          1.2233   -0.6749   -0.0132 C.ar      1 <0>        -0.2040
      6 C6          0.0021   -0.0041    0.0020 C.ar      1 <0>        -0.0461
      7 C7          1.2898   -2.1506   -0.0218 C.2       1 <0>         0.3943
      8 O1          0.2773   -2.8315   -0.0157 O.2       1 <0>        -0.5101
      9 C8          2.5710   -2.7411   -0.0377 C.2       1 <0>        -0.4518
     10 C9          3.6745   -1.9488   -0.0444 C.2       1 <0>         0.4200
     11 O2          3.6033   -0.6118   -0.0368 O.3       1 <0>        -0.2846
     12 O3          4.8914   -2.5327   -0.0597 O.3       1 <0>        -0.6146
     13 C10         2.7144   -4.2413   -0.0468 C.3       1 <0>         0.1118
     14 C11         2.6533   -4.7603    1.3666 C.2       1 <0>        -0.4517
     15 C12         3.8164   -4.7855    2.1646 C.2       1 <0>         0.3942
     16 O4          4.8888   -4.3919    1.7357 O.2       1 <0>        -0.5097
     17 C13         3.6840   -5.3070    3.5403 C.ar      1 <0>        -0.2040
     18 C14         4.7783   -5.3694    4.4007 C.ar      1 <0>        -0.0461
     19 C15         4.6125   -5.8623    5.6768 C.ar      1 <0>        -0.1823
     20 C16         3.3652   -6.2943    6.1031 C.ar      1 <0>        -0.0923
     21 C17         2.2753   -6.2373    5.2607 C.ar      1 <0>        -0.1660
     22 C18         2.4218   -5.7432    3.9704 C.ar      1 <0>         0.1630
     23 O5          1.3683   -5.6776    3.1294 O.3       1 <0>        -0.2846
     24 C19         1.4765   -5.2018    1.8825 C.2       1 <0>         0.4200
     25 O6          0.3736   -5.1641    1.1054 O.3       1 <0>        -0.6148
     26 H1         -0.9603    1.8987    0.0259 H         1 <0>         0.1135
     27 H2          1.1453    3.1691    0.0081 H         1 <0>         0.1171
     28 H3          3.3047    2.0039   -0.0198 H         1 <0>         0.1237
     29 H4         -0.9237   -0.5603    0.0078 H         1 <0>         0.1270
     30 H5          1.9051   -4.6801   -0.6304 H         1 <0>         0.0372
     31 H6          3.6717   -4.5120   -0.4922 H         1 <0>         0.0371
     32 H7          5.7500   -5.0340    4.0695 H         1 <0>         0.1270
     33 H8          5.4573   -5.9129    6.3478 H         1 <0>         0.1135
     34 H9          3.2467   -6.6795    7.1051 H         1 <0>         0.1171
     35 H10         1.3089   -6.5767    5.6031 H         1 <0>         0.1237
@<TRIPOS>BOND
     1    1    6 ar
     2    1    2 ar
     3    1   26 1
     4    2    3 ar
     5    2   27 1
     6    3    4 ar
     7    3   28 1
     8    4   11 1
     9    4    5 ar
    10    5    6 ar
    11    5    7 1
    12    6   29 1
    13    7    8 2
    14    7    9 1
    15    9   10 2
    16    9   13 1
    17   10   11 1
    18   10   12 1
    19   13   14 1
    20   13   30 1
    21   13   31 1
    22   14   24 2
    23   14   15 1
    24   15   16 2
    25   15   17 1
    26   17   22 ar
    27   17   18 ar
    28   18   19 ar
    29   18   32 1
    30   19   20 ar
    31   19   33 1
    32   20   21 ar
    33   20   34 1
    34   21   22 ar
    35   21   35 1
    36   22   23 1
    37   23   24 1
    38   24   25 1
@<TRIPOS>MOLECULE
ZINC03869855
   37    40     0     0     0
SMALL
USER_CHARGES

@<TRIPOS>ATOM
      1 C1         -0.0166    1.3729    0.0096 C.ar      1 <0>        -0.1362
      2 C2          1.1712    2.0895    0.0021 C.ar      1 <0>        -0.0598
      3 C3          2.3858    1.4368   -0.0130 C.ar      1 <0>        -0.1327
      4 C4          2.4270    0.0485   -0.0209 C.ar      1 <0>         0.1639
      5 C5          1.2254   -0.6776   -0.0133 C.ar      1 <0>        -0.1914
      6 C6          0.0021   -0.0041    0.0020 C.ar      1 <0>        -0.0662
      7 C7          1.2825   -2.1476   -0.0219 C.2       1 <0>         0.2424
      8 C8          2.5139   -2.7424   -0.0369 C.2       1 <0>        -0.2811
      9 C9          3.6703   -1.9476   -0.0437 C.2       1 <0>         0.5235
     10 O1          4.7616   -2.4899   -0.0571 O.2       1 <0>        -0.4497
     11 O2          3.6080   -0.6065   -0.0361 O.3       1 <0>        -0.2774
     12 C10         2.6284   -4.2450   -0.0457 C.3       1 <0>         0.0385
     13 C11         2.7762   -4.7292   -1.4651 C.2       1 <0>        -0.3309
     14 C12         1.6339   -4.9430   -2.2649 C.2       1 <0>         0.4334
     15 O3          0.5103   -4.7431   -1.8328 O.2       1 <0>        -0.4559
     16 C13         1.8524   -5.4179   -3.6464 C.ar      1 <0>        -0.2158
     17 C14         0.7842   -5.6558   -4.5090 C.ar      1 <0>        -0.0323
     18 C15         1.0308   -6.0981   -5.7907 C.ar      1 <0>        -0.1454
     19 C16         2.3332   -6.3059   -6.2203 C.ar      1 <0>        -0.0608
     20 C17         3.3980   -6.0739   -5.3757 C.ar      1 <0>        -0.1375
     21 C18         3.1702   -5.6273   -4.0800 C.ar      1 <0>         0.1509
     22 O4          4.1977   -5.3929   -3.2368 O.3       1 <0>        -0.2619
     23 C19         4.0107   -4.9575   -1.9845 C.2       1 <0>         0.3663
     24 O5          5.0916   -4.7413   -1.2055 O.3       1 <0>        -0.3886
     25 O6          0.1511   -2.8887   -0.0146 O.3       1 <0>        -0.4150
     26 H1         -0.9605    1.8975    0.0259 H         1 <0>         0.1393
     27 H2          1.1444    3.1692    0.0078 H         1 <0>         0.1435
     28 H3          3.3044    2.0047   -0.0191 H         1 <0>         0.1475
     29 H4         -0.9239   -0.5599    0.0083 H         1 <0>         0.1367
     30 H5          3.5011   -4.5463    0.5337 H         1 <0>         0.0881
     31 H6          1.7316   -4.6803    0.3952 H         1 <0>         0.0909
     32 H7         -0.2302   -5.4950   -4.1752 H         1 <0>         0.1433
     33 H8          0.2065   -6.2840   -6.4633 H         1 <0>         0.1373
     34 H9          2.5150   -6.6533   -7.2266 H         1 <0>         0.1421
     35 H10         4.4079   -6.2394   -5.7209 H         1 <0>         0.1435
     36 H11         5.9344   -4.9249   -1.6425 H         1 <0>         0.4099
     37 H12        -0.6619   -2.3652   -0.0036 H         1 <0>         0.3979
@<TRIPOS>BOND
     1    1    6 ar
     2    1    2 ar
     3    1   26 1
     4    2    3 ar
     5    2   27 1
     6    3    4 ar
     7    3   28 1
     8    4   11 1
     9    4    5 ar
    10    5    6 ar
    11    5    7 1
    12    6   29 1
    13    7    8 2
    14    7   25 1
    15    8    9 1
    16    8   12 1
    17    9   10 2
    18    9   11 1
    19   12   13 1
    20   12   30 1
    21   12   31 1
    22   13   23 2
    23   13   14 1
    24   14   15 2
    25   14   16 1
    26   16   21 ar
    27   16   17 ar
    28   17   18 ar
    29   17   32 1
    30   18   19 ar
    31   18   33 1
    32   19   20 ar
    33   19   34 1
    34   20   21 ar
    35   20   35 1
    36   21   22 1
    37   22   23 1
    38   23   24 1
    39   24   36 1
    40   25   37 1
@<TRIPOS>MOLECULE
ZINC03869855
   35    38     0     0     0
SMALL
USER_CHARGES

@<TRIPOS>ATOM
      1 C1         -0.0166    1.3734    0.0096 C.ar      1 <0>        -0.1802
      2 C2          1.1713    2.0895    0.0021 C.ar      1 <0>        -0.0964
      3 C3          2.3857    1.4367   -0.0134 C.ar      1 <0>        -0.1641
      4 C4          2.4263    0.0482   -0.0212 C.ar      1 <0>         0.1569
      5 C5          1.2243   -0.6763   -0.0132 C.ar      1 <0>        -0.1767
      6 C6          0.0021   -0.0041    0.0020 C.ar      1 <0>        -0.0473
      7 C7          1.2863   -2.1491   -0.0217 C.2       1 <0>         0.3574
      8 C8          2.5426   -2.7418   -0.0374 C.2       1 <0>        -0.4477
      9 C9          3.6725   -1.9480   -0.0443 C.2       1 <0>         0.4520
     10 O1          4.8264   -2.5114   -0.0589 O.2       1 <0>        -0.5552
     11 O2          3.6056   -0.6090   -0.0368 O.3       1 <0>        -0.2976
     12 C10         2.6717   -4.2432   -0.0462 C.3       1 <0>         0.1122
     13 C11         2.8238   -4.7259   -1.4657 C.2       1 <0>        -0.4481
     14 C12         1.7002   -4.9470   -2.2522 C.2       1 <0>         0.3527
     15 O3          0.5157   -4.7469   -1.7922 O.2       1 <0>        -0.5718
     16 C13         1.9130   -5.4184   -3.6327 C.ar      1 <0>        -0.1771
     17 C14         0.8376   -5.6634   -4.4867 C.ar      1 <0>        -0.0477
     18 C15         1.0749   -6.1028   -5.7706 C.ar      1 <0>        -0.1800
     19 C16         2.3744   -6.3015   -6.2133 C.ar      1 <0>        -0.0965
     20 C17         3.4458   -6.0629   -5.3787 C.ar      1 <0>        -0.1639
     21 C18         3.2279   -5.6189   -4.0806 C.ar      1 <0>         0.1571
     22 O4          4.2639   -5.3788   -3.2488 O.3       1 <0>        -0.2973
     23 C19         4.0810   -4.9454   -1.9932 C.2       1 <0>         0.4568
     24 O5          5.1096   -4.7317   -1.2547 O.3       1 <0>        -0.5576
     25 O6          0.2146   -2.8605   -0.0144 O.3       1 <0>        -0.5743
     26 H1         -0.9605    1.8981    0.0259 H         1 <0>         0.1131
     27 H2          1.1448    3.1692    0.0081 H         1 <0>         0.1166
     28 H3          3.3045    2.0044   -0.0198 H         1 <0>         0.1231
     29 H4         -0.9238   -0.5601    0.0078 H         1 <0>         0.1281
     30 H5          3.5475   -4.5360    0.5329 H         1 <0>         0.0342
     31 H6          1.7793   -4.6872    0.3949 H         1 <0>         0.0380
     32 H7         -0.1748   -5.5098   -4.1434 H         1 <0>         0.1281
     33 H8          0.2454   -6.2938   -6.4353 H         1 <0>         0.1131
     34 H9          2.5488   -6.6470   -7.2216 H         1 <0>         0.1167
     35 H10         4.4534   -6.2210   -5.7340 H         1 <0>         0.1232
@<TRIPOS>BOND
     1    1    6 ar
     2    1    2 ar
     3    1   26 1
     4    2    3 ar
     5    2   27 1
     6    3    4 ar
     7    3   28 1
     8    4   11 1
     9    4    5 ar
    10    5    6 ar
    11    5    7 1
    12    6   29 1
    13    7    8 2
    14    7   25 1
    15    8    9 1
    16    8   12 1
    17    9   10 2
    18    9   11 1
    19   12   13 1
    20   12   30 1
    21   12   31 1
    22   13   23 2
    23   13   14 1
    24   14   15 2
    25   14   16 1
    26   16   21 ar
    27   16   17 ar
    28   17   18 ar
    29   17   32 1
    30   18   19 ar
    31   18   33 1
    32   19   20 ar
    33   19   34 1
    34   20   21 ar
    35   20   35 1
    36   21   22 1
    37   22   23 1
    38   23   24 1
@<TRIPOS>MOLECULE
ZINC03869855
   36    39     0     0     0
SMALL
USER_CHARGES

@<TRIPOS>ATOM
      1 C1         -0.0166    1.3729    0.0096 C.ar      1 <0>        -0.1436
      2 C2          1.1712    2.0895    0.0021 C.ar      1 <0>        -0.0762
      3 C3          2.3858    1.4368   -0.0130 C.ar      1 <0>        -0.1355
      4 C4          2.4270    0.0485   -0.0209 C.ar      1 <0>         0.1591
      5 C5          1.2254   -0.6776   -0.0133 C.ar      1 <0>        -0.1717
      6 C6          0.0021   -0.0041    0.0020 C.ar      1 <0>        -0.0737
      7 C7          1.2825   -2.1476   -0.0219 C.2       1 <0>         0.1902
      8 C8          2.5139   -2.7424   -0.0369 C.2       1 <0>        -0.2266
      9 C9          3.6703   -1.9476   -0.0437 C.2       1 <0>         0.5043
     10 O1          4.7616   -2.4899   -0.0571 O.2       1 <0>        -0.4065
     11 O2          3.6080   -0.6065   -0.0361 O.3       1 <0>        -0.2878
     12 C10         2.6284   -4.2450   -0.0457 C.3       1 <0>         0.0689
     13 C11         2.7762   -4.7292   -1.4651 C.2       1 <0>        -0.4872
     14 C12         1.6339   -4.9430   -2.2649 C.2       1 <0>         0.4149
     15 O3          0.5103   -4.7431   -1.8328 O.2       1 <0>        -0.5376
     16 C13         1.8524   -5.4179   -3.6464 C.ar      1 <0>        -0.2120
     17 C14         0.7842   -5.6558   -4.5090 C.ar      1 <0>        -0.0431
     18 C15         1.0308   -6.0981   -5.7907 C.ar      1 <0>        -0.1734
     19 C16         2.3332   -6.3059   -6.2203 C.ar      1 <0>        -0.0803
     20 C17         3.3980   -6.0739   -5.3757 C.ar      1 <0>        -0.1587
     21 C18         3.1702   -5.6273   -4.0800 C.ar      1 <0>         0.1626
     22 O4          4.1977   -5.3929   -3.2368 O.3       1 <0>        -0.2771
     23 C19         4.0107   -4.9575   -1.9845 C.2       1 <0>         0.4451
     24 O5          5.0916   -4.7413   -1.2055 O.3       1 <0>        -0.6068
     25 O6          0.1511   -2.8887   -0.0146 O.3       1 <0>        -0.4110
     26 H1         -0.9605    1.8975    0.0259 H         1 <0>         0.1316
     27 H2          1.1444    3.1692    0.0078 H         1 <0>         0.1355
     28 H3          3.3044    2.0047   -0.0191 H         1 <0>         0.1414
     29 H4         -0.9239   -0.5599    0.0083 H         1 <0>         0.1324
     30 H5          3.5011   -4.5463    0.5337 H         1 <0>         0.0714
     31 H6          1.7316   -4.6803    0.3952 H         1 <0>         0.0628
     32 H7         -0.2302   -5.4950   -4.1752 H         1 <0>         0.1296
     33 H8          0.2065   -6.2840   -6.4633 H         1 <0>         0.1205
     34 H9          2.5150   -6.6533   -7.2266 H         1 <0>         0.1251
     35 H10         4.4079   -6.2394   -5.7209 H         1 <0>         0.1305
     36 H11        -0.6619   -2.3652   -0.0036 H         1 <0>         0.3826
@<TRIPOS>BOND
     1    1    6 ar
     2    1    2 ar
     3    1   26 1
     4    2    3 ar
     5    2   27 1
     6    3    4 ar
     7    3   28 1
     8    4   11 1
     9    4    5 ar
    10    5    6 ar
    11    5    7 1
    12    6   29 1
    13    7    8 2
    14    7   25 1
    15    8    9 1
    16    8   12 1
    17    9   10 2
    18    9   11 1
    19   12   13 1
    20   12   30 1
    21   12   31 1
    22   13   23 2
    23   13   14 1
    24   14   15 2
    25   14   16 1
    26   16   21 ar
    27   16   17 ar
    28   17   18 ar
    29   17   32 1
    30   18   19 ar
    31   18   33 1
    32   19   20 ar
    33   19   34 1
    34   20   21 ar
    35   20   35 1
    36   21   22 1
    37   22   23 1
    38   23   24 1
    39   25   36 1
@<TRIPOS>MOLECULE
ZINC03869855
   36    39     0     0     0
SMALL
USER_CHARGES

@<TRIPOS>ATOM
      1 C1         -0.0166    1.3729    0.0096 C.ar      1 <0>        -0.1692
      2 C2          1.1712    2.0895    0.0021 C.ar      1 <0>        -0.0863
      3 C3          2.3858    1.4368   -0.0130 C.ar      1 <0>        -0.1576
      4 C4          2.4270    0.0485   -0.0209 C.ar      1 <0>         0.1523
      5 C5          1.2254   -0.6776   -0.0133 C.ar      1 <0>        -0.1667
      6 C6          0.0021   -0.0041    0.0020 C.ar      1 <0>        -0.0424
      7 C7          1.2825   -2.1476   -0.0219 C.2       1 <0>         0.3378
      8 C8          2.5139   -2.7424   -0.0369 C.2       1 <0>        -0.4754
      9 C9          3.6703   -1.9476   -0.0437 C.2       1 <0>         0.5067
     10 O1          4.7616   -2.4899   -0.0571 O.2       1 <0>        -0.5276
     11 O2          3.6080   -0.6065   -0.0361 O.3       1 <0>        -0.3038
     12 C10         2.6284   -4.2450   -0.0457 C.3       1 <0>         0.0675
     13 C11         2.7762   -4.7292   -1.4651 C.2       1 <0>        -0.2272
     14 C12         4.0194   -4.9638   -1.9847 C.2       1 <0>         0.1898
     15 C13         4.1091   -5.4356   -3.3753 C.ar      1 <0>        -0.1719
     16 C14         5.3459   -5.6954   -3.9694 C.ar      1 <0>        -0.0736
     17 C15         5.3954   -6.1364   -5.2731 C.ar      1 <0>        -0.1435
     18 C16         4.2251   -6.3224   -5.9944 C.ar      1 <0>        -0.0760
     19 C17         2.9974   -6.0690   -5.4197 C.ar      1 <0>        -0.1355
     20 C18         2.9252   -5.6240   -4.1060 C.ar      1 <0>         0.1593
     21 O3          1.7310   -5.3725   -3.5274 O.3       1 <0>        -0.2878
     22 C19         1.6387   -4.9468   -2.2574 C.2       1 <0>         0.5049
     23 O4          0.5365   -4.7389   -1.7810 O.2       1 <0>        -0.4060
     24 O5          5.1329   -4.7676   -1.2425 O.3       1 <0>        -0.4118
     25 O6          0.1511   -2.8887   -0.0146 O.3       1 <0>        -0.6227
     26 H1         -0.9605    1.8975    0.0259 H         1 <0>         0.1207
     27 H2          1.1444    3.1692    0.0078 H         1 <0>         0.1243
     28 H3          3.3044    2.0047   -0.0191 H         1 <0>         0.1286
     29 H4         -0.9239   -0.5599    0.0083 H         1 <0>         0.1340
     30 H5          3.5011   -4.5463    0.5337 H         1 <0>         0.0619
     31 H6          1.7316   -4.6803    0.3952 H         1 <0>         0.0729
     32 H7          6.2583   -5.5510   -3.4099 H         1 <0>         0.1327
     33 H8          6.3499   -6.3382   -5.7363 H         1 <0>         0.1317
     34 H9          4.2760   -6.6686   -7.0161 H         1 <0>         0.1355
     35 H10         2.0927   -6.2166   -5.9908 H         1 <0>         0.1414
     36 H11         5.9565   -4.9644   -1.7094 H         1 <0>         0.3832
@<TRIPOS>BOND
     1    1    6 ar
     2    1    2 ar
     3    1   26 1
     4    2    3 ar
     5    2   27 1
     6    3    4 ar
     7    3   28 1
     8    4   11 1
     9    4    5 ar
    10    5    6 ar
    11    5    7 1
    12    6   29 1
    13    7    8 2
    14    7   25 1
    15    8    9 1
    16    8   12 1
    17    9   10 2
    18    9   11 1
    19   12   13 1
    20   12   30 1
    21   12   31 1
    22   13   22 1
    23   13   14 2
    24   14   15 1
    25   14   24 1
    26   15   20 ar
    27   15   16 ar
    28   16   17 ar
    29   16   32 1
    30   17   18 ar
    31   17   33 1
    32   18   19 ar
    33   18   34 1
    34   19   20 ar
    35   19   35 1
    36   20   21 1
    37   21   22 1
    38   22   23 2
    39   24   36 1
@<TRIPOS>MOLECULE
ZINC00394919
   26    26     0     0     0
SMALL
USER_CHARGES
1,4-diethoxybenzene
@<TRIPOS>ATOM
      1 C1          2.1997    5.6265    0.0104 C.3       1 <0>        -0.1531
      2 C2          2.4208    4.1126    0.0007 C.3       1 <0>         0.0546
      3 O1          1.1565    3.4465    0.0091 O.3       1 <0>        -0.3166
      4 C3          1.1749    2.0869    0.0020 C.ar      1 <0>         0.0936
      5 C4         -0.0167    1.3771    0.0096 C.ar      1 <0>        -0.1115
      6 C5          0.0021   -0.0041    0.0020 C.ar      1 <0>        -0.1115
      7 C6          1.2125   -0.6811   -0.0137 C.ar      1 <0>         0.0936
      8 C7          2.4041    0.0286   -0.0213 C.ar      1 <0>        -0.1693
      9 C8          2.3853    1.4098   -0.0137 C.ar      1 <0>        -0.1694
     10 O2          1.2309   -2.0408   -0.0212 O.3       1 <0>        -0.3166
     11 C9          2.5128   -2.6722   -0.0373 C.3       1 <0>         0.0546
     12 C10         2.3329   -4.1915   -0.0437 C.3       1 <0>        -0.1531
     13 H1          3.1641    6.1345    0.0039 H         1 <0>         0.0786
     14 H2          1.6305    5.9163   -0.8728 H         1 <0>         0.0668
     15 H3          1.6472    5.9072    0.9070 H         1 <0>         0.0668
     16 H4          2.9900    3.8228    0.8839 H         1 <0>         0.0607
     17 H5          2.9733    3.8318   -0.8960 H         1 <0>         0.0607
     18 H6         -0.9592    1.9043    0.0169 H         1 <0>         0.1387
     19 H7         -0.9258   -0.5567    0.0079 H         1 <0>         0.1387
     20 H8          3.3466   -0.4986   -0.0328 H         1 <0>         0.1300
     21 H9          3.3132    1.9625   -0.0189 H         1 <0>         0.1300
     22 H10         3.0569   -2.3670   -0.9312 H         1 <0>         0.0607
     23 H11         3.0746   -2.3765    0.8487 H         1 <0>         0.0607
     24 H12         3.3107   -4.6731   -0.0560 H         1 <0>         0.0786
     25 H13         1.7888   -4.4967    0.8501 H         1 <0>         0.0668
     26 H14         1.7711   -4.4872   -0.9297 H         1 <0>         0.0668
@<TRIPOS>BOND
     1    1    2 1
     2    1   13 1
     3    1   14 1
     4    1   15 1
     5    2    3 1
     6    2   16 1
     7    2   17 1
     8    3    4 1
     9    4    9 ar
    10    4    5 ar
    11    5    6 ar
    12    5   18 1
    13    6    7 ar
    14    6   19 1
    15    7    8 ar
    16    7   10 1
    17    8    9 ar
    18    8   20 1
    19    9   21 1
    20   10   11 1
    21   11   12 1
    22   11   22 1
    23   11   23 1
    24   12   24 1
    25   12   25 1
    26   12   26 1
@<TRIPOS>MOLECULE
ZINC05579959
   37    41     0     0     0
SMALL
USER_CHARGES

@<TRIPOS>ATOM
      1 C1         -0.0178    1.4608    0.0101 C.3       1 <0>         0.0769
      2 N1          0.0021   -0.0041    0.0020 N.pl3     1 <0>        -0.4711
      3 C2          0.0079   -0.7854   -1.1346 C.ar      1 <0>         0.1389
      4 C3         -0.0023   -0.4744   -2.4909 C.ar      1 <0>        -0.1637
      5 C4          0.0076   -1.4894   -3.4297 C.ar      1 <0>         0.1431
      6 C5          0.0274   -2.8225   -3.0282 C.ar      1 <0>        -0.1679
      7 C6          0.0373   -3.1444   -1.7007 C.ar      1 <0>        -0.0338
      8 C7          0.0284   -2.1339   -0.7385 C.ar      1 <0>        -0.0899
      9 C8          0.0349   -2.1314    0.7301 C.ar      1 <0>        -0.0780
     10 C9          0.0236   -0.7995    1.1326 C.ar      1 <0>         0.1152
     11 C10         0.0317   -0.4719    2.5048 C.ar      1 <0>         0.1518
     12 C11         0.0543   -1.4164    3.4790 C.ar      1 <0>        -0.1009
     13 C12         0.0705   -2.7894    3.1579 C.ar      1 <0>         0.1182
     14 C13         0.0540   -3.1859    1.7425 C.ar      1 <0>         0.1665
     15 N2          0.0704   -4.4661    1.4064 N.ar      1 <0>        -0.4153
     16 C14         0.0875   -5.3958    2.3595 C.ar      1 <0>         0.1040
     17 C15         0.1057   -6.7683    2.0376 C.ar      1 <0>        -0.0870
     18 C16         0.1234   -7.6911    3.0342 C.ar      1 <0>        -0.0915
     19 C17         0.1235   -7.3181    4.3781 C.ar      1 <0>        -0.0979
     20 C18         0.1065   -6.0137    4.7562 C.ar      1 <0>        -0.0812
     21 C19         0.0882   -5.0035    3.7722 C.ar      1 <0>         0.0906
     22 N3          0.0921   -3.7161    4.1092 N.ar      1 <0>        -0.4050
     23 O1          0.0167    0.8375    2.8642 O.3       1 <0>        -0.4901
     24 O2         -0.0025   -1.1837   -4.7539 O.3       1 <0>        -0.4956
     25 H1          1.0048    1.8381    0.0023 H         1 <0>         0.0762
     26 H2         -0.5450    1.8219   -0.8730 H         1 <0>         0.0848
     27 H3         -0.5280    1.8123    0.9069 H         1 <0>         0.0899
     28 H4         -0.0184    0.5574   -2.8095 H         1 <0>         0.1317
     29 H5          0.0347   -3.6067   -3.7707 H         1 <0>         0.1354
     30 H6          0.0523   -4.1804   -1.3961 H         1 <0>         0.1384
     31 H7          0.0602   -1.1121    4.5152 H         1 <0>         0.1584
     32 H8          0.1053   -7.0840    1.0048 H         1 <0>         0.1426
     33 H9          0.1373   -8.7405    2.7794 H         1 <0>         0.1370
     34 H10         0.1371   -8.0860    5.1374 H         1 <0>         0.1370
     35 H11         0.1066   -5.7517    5.8040 H         1 <0>         0.1425
     36 H12        -0.8709    1.2045    2.9765 H         1 <0>         0.3955
     37 H13         0.8779   -1.0829   -5.1410 H         1 <0>         0.3944
@<TRIPOS>BOND
     1    1    2 1
     2    1   25 1
     3    1   26 1
     4    1   27 1
     5    2   10 1
     6    2    3 1
     7    3    8 ar
     8    3    4 ar
     9    4    5 ar
    10    4   28 1
    11    5    6 ar
    12    5   24 1
    13    6    7 ar
    14    6   29 1
    15    7    8 ar
    16    7   30 1
    17    8    9 1
    18    9   14 ar
    19    9   10 ar
    20   10   11 ar
    21   11   12 ar
    22   11   23 1
    23   12   13 ar
    24   12   31 1
    25   13   22 ar
    26   13   14 ar
    27   14   15 ar
    28   15   16 ar
    29   16   21 ar
    30   16   17 ar
    31   17   18 ar
    32   17   32 1
    33   18   19 ar
    34   18   33 1
    35   19   20 ar
    36   19   34 1
    37   20   21 ar
    38   20   35 1
    39   21   22 ar
    40   23   36 1
    41   24   37 1
@<TRIPOS>MOLECULE
ZINC01697899
   32    34     0     0     0
SMALL
USER_CHARGES
1,4-dimethoxyanthracene
@<TRIPOS>ATOM
      1 C1          5.8532    6.2821   -0.0162 C.3       1 <0>         0.0272
      2 O1          4.6993    5.4392   -0.0115 O.3       1 <0>        -0.3128
      3 C2          3.4868    6.0530    0.0032 C.ar      1 <0>         0.1096
      4 C3          3.4068    7.4134    0.0123 C.ar      1 <0>        -0.1857
      5 C4          2.1806    8.0751    0.0264 C.ar      1 <0>        -0.1857
      6 C5          0.9997    7.3952    0.0328 C.ar      1 <0>         0.1097
      7 C6          1.0087    5.9800    0.0241 C.ar      1 <0>        -0.0355
      8 C7          2.2990    5.2836    0.0087 C.ar      1 <0>        -0.0354
      9 C8          2.3444    3.8915    0.0008 C.ar      1 <0>        -0.0736
     10 C9          1.1553    3.1643    0.0076 C.ar      1 <0>        -0.0499
     11 C10         1.1640    1.7528    0.0004 C.ar      1 <0>        -0.1043
     12 C11        -0.0126    1.0758    0.0080 C.ar      1 <0>        -0.1140
     13 C12        -1.2404    1.7386    0.0175 C.ar      1 <0>        -0.1140
     14 C13        -1.3200    3.0936    0.0303 C.ar      1 <0>        -0.1043
     15 C14        -0.1352    3.8609    0.0231 C.ar      1 <0>        -0.0499
     16 C15        -0.1800    5.2539    0.0310 C.ar      1 <0>        -0.0736
     17 O2         -0.1790    8.0717    0.0466 O.3       1 <0>        -0.3128
     18 C16        -0.1079    9.4989    0.0548 C.3       1 <0>         0.0272
     19 H1          6.7527    5.6666   -0.0281 H         1 <0>         0.1022
     20 H2          5.8357    6.9171   -0.9020 H         1 <0>         0.0565
     21 H3          5.8514    6.9056    0.8779 H         1 <0>         0.0565
     22 H4          4.3176    7.9937    0.0080 H         1 <0>         0.1285
     23 H5          2.1658    9.1550    0.0328 H         1 <0>         0.1285
     24 H6          3.2949    3.3788   -0.0103 H         1 <0>         0.1416
     25 H7          2.1005    1.2151   -0.0108 H         1 <0>         0.1301
     26 H8          0.0021   -0.0041    0.0020 H         1 <0>         0.1234
     27 H9         -2.1513    1.1582    0.0191 H         1 <0>         0.1234
     28 H10        -2.2835    3.5815    0.0418 H         1 <0>         0.1301
     29 H11        -1.1302    5.7671    0.0420 H         1 <0>         0.1416
     30 H12        -1.1161    9.9129    0.0656 H         1 <0>         0.1022
     31 H13         0.4307    9.8308    0.9424 H         1 <0>         0.0565
     32 H14         0.4161    9.8416   -0.8375 H         1 <0>         0.0565
@<TRIPOS>BOND
     1    1    2 1
     2    1   19 1
     3    1   20 1
     4    1   21 1
     5    2    3 1
     6    3    8 ar
     7    3    4 ar
     8    4    5 ar
     9    4   22 1
    10    5    6 ar
    11    5   23 1
    12    6    7 ar
    13    6   17 1
    14    7   16 ar
    15    7    8 ar
    16    8    9 ar
    17    9   10 ar
    18    9   24 1
    19   10   15 ar
    20   10   11 ar
    21   11   12 ar
    22   11   25 1
    23   12   13 ar
    24   12   26 1
    25   13   14 ar
    26   13   27 1
    27   14   15 ar
    28   14   28 1
    29   15   16 ar
    30   16   29 1
    31   17   18 1
    32   18   30 1
    33   18   31 1
    34   18   32 1
@<TRIPOS>MOLECULE
ZINC05835088
   43    47     0     0     0
SMALL
USER_CHARGES

@<TRIPOS>ATOM
      1 C1          2.5699    1.3138    2.8012 C.ar      1 <0>        -0.1717
      2 C2          3.0600    2.0228    1.7145 C.ar      1 <0>        -0.0810
      3 C3          3.3734    1.3775    0.5370 C.ar      1 <0>        -0.1588
      4 C4          3.1988    0.0031    0.4323 C.ar      1 <0>         0.1604
      5 C5          2.7034   -0.7129    1.5324 C.ar      1 <0>        -0.2042
      6 C6          2.3897   -0.0498    2.7171 C.ar      1 <0>        -0.0405
      7 C7          2.5258   -2.1732    1.3984 C.2       1 <0>         0.4258
      8 O1          2.0985   -2.8478    2.3211 O.2       1 <0>        -0.5160
      9 C8          2.8695   -2.7567    0.1608 C.2       1 <0>        -0.4689
     10 C9          3.3417   -1.9718   -0.8425 C.2       1 <0>         0.4491
     11 O2          3.4987   -0.6486   -0.7109 O.3       1 <0>        -0.2756
     12 O3          3.6650   -2.5487   -2.0192 O.3       1 <0>        -0.6418
     13 C10         2.7144   -4.2413   -0.0468 C.3       1 <0>         0.1844
     14 C11         2.1721   -4.8704    1.2106 C.2       1 <0>        -0.0304
     15 C12         2.8359   -5.5373    2.1863 C.2       1 <0>        -0.2047
     16 C13         2.1243   -6.0339    3.2622 C.2       1 <0>        -0.1360
     17 C14         0.7837   -5.8394    3.3099 C.2       1 <0>        -0.2453
     18 S1          0.4897   -4.9240    1.8056 S.3       1 <0>         0.0875
     19 C15         1.7602   -4.4922   -1.1859 C.2       1 <0>        -0.2686
     20 C16         0.4870   -3.8845   -1.1925 C.2       1 <0>         0.4292
     21 O4          0.1305   -3.1486   -0.2868 O.2       1 <0>        -0.4356
     22 C17        -0.3970   -4.1744   -2.3399 C.ar      1 <0>        -0.2075
     23 C18        -1.6715   -3.6187   -2.4321 C.ar      1 <0>        -0.0317
     24 C19        -2.4649   -3.9141   -3.5193 C.ar      1 <0>        -0.1539
     25 C20        -1.9994   -4.7591   -4.5159 C.ar      1 <0>        -0.0690
     26 C21        -0.7401   -5.3147   -4.4355 C.ar      1 <0>        -0.1442
     27 C22         0.0753   -5.0289   -3.3475 C.ar      1 <0>         0.1593
     28 O5          1.3117   -5.5610   -3.2490 O.3       1 <0>        -0.2657
     29 C23         2.1226   -5.3007   -2.2159 C.2       1 <0>         0.3418
     30 O6          3.3472   -5.8680   -2.1944 O.3       1 <0>        -0.4058
     31 H1          2.3327    1.8320    3.7186 H         1 <0>         0.1204
     32 H2          3.1973    3.0913    1.7913 H         1 <0>         0.1247
     33 H3          3.7537    1.9398   -0.3030 H         1 <0>         0.1292
     34 H4          2.0083   -0.6010    3.5640 H         1 <0>         0.1304
     35 H5          3.6846   -4.6785   -0.2826 H         1 <0>         0.0829
     36 H6          3.9048   -5.6787    2.1238 H         1 <0>         0.1126
     37 H7          2.6289   -6.5692    4.0529 H         1 <0>         0.1086
     38 H8          0.0773   -6.1532    4.0641 H         1 <0>         0.1629
     39 H9         -2.0352   -2.9612   -1.6563 H         1 <0>         0.1409
     40 H10        -3.4536   -3.4861   -3.5957 H         1 <0>         0.1316
     41 H11        -2.6299   -4.9844   -5.3633 H         1 <0>         0.1357
     42 H12        -0.3881   -5.9717   -5.2171 H         1 <0>         0.1386
     43 H13         3.5341   -6.4293   -2.9593 H         1 <0>         0.4009
@<TRIPOS>BOND
     1    1    6 ar
     2    1    2 ar
     3    1   31 1
     4    2    3 ar
     5    2   32 1
     6    3    4 ar
     7    3   33 1
     8    4   11 1
     9    4    5 ar
    10    5    6 ar
    11    5    7 1
    12    6   34 1
    13    7    8 2
    14    7    9 1
    15    9   10 2
    16    9   13 1
    17   10   11 1
    18   10   12 1
    19   13   14 1
    20   13   19 1
    21   13   35 1
    22   14   18 1
    23   14   15 2
    24   15   16 1
    25   15   36 1
    26   16   17 2
    27   16   37 1
    28   17   18 1
    29   17   38 1
    30   19   29 2
    31   19   20 1
    32   20   21 2
    33   20   22 1
    34   22   27 ar
    35   22   23 ar
    36   23   24 ar
    37   23   39 1
    38   24   25 ar
    39   24   40 1
    40   25   26 ar
    41   25   41 1
    42   26   27 ar
    43   26   42 1
    44   27   28 1
    45   28   29 1
    46   29   30 1
    47   30   43 1
@<TRIPOS>MOLECULE
ZINC05835088
   43    47     0     0     0
SMALL
USER_CHARGES

@<TRIPOS>ATOM
      1 C1          0.9288    1.7275   -0.0186 C.ar      1 <0>        -0.1682
      2 C2          0.4958    1.7463    1.2992 C.ar      1 <0>        -0.0832
      3 C3          0.5647    0.6103    2.0779 C.ar      1 <0>        -0.1551
      4 C4          1.0716   -0.5672    1.5435 C.ar      1 <0>         0.1545
      5 C5          1.5100   -0.5871    0.2099 C.ar      1 <0>        -0.1642
      6 C6          1.4346    0.5703   -0.5679 C.ar      1 <0>        -0.0399
      7 C7          2.0449   -1.8405   -0.3444 C.2       1 <0>         0.3525
      8 C8          2.0901   -2.9363    0.4726 C.2       1 <0>        -0.4504
      9 C9          1.6327   -2.8371    1.7955 C.2       1 <0>         0.5173
     10 O1          1.6784   -3.8208    2.5134 O.2       1 <0>        -0.5193
     11 O2          1.1465   -1.6886    2.2925 O.3       1 <0>        -0.2979
     12 C10         2.6284   -4.2450   -0.0457 C.3       1 <0>         0.1717
     13 C11         3.4889   -4.8881    1.0112 C.2       1 <0>        -0.0828
     14 C12         3.1597   -5.8425    1.9157 C.2       1 <0>        -0.1479
     15 C13         4.1238   -6.2890    2.7999 C.2       1 <0>        -0.1450
     16 C14         5.3699   -5.7594    2.7364 C.2       1 <0>        -0.2378
     17 S1          5.2086   -4.5962    1.3916 S.3       1 <0>         0.0605
     18 C15         3.4536   -3.9945   -1.2815 C.2       1 <0>        -0.1449
     19 C16         3.1390   -4.6208   -2.4559 C.2       1 <0>         0.1568
     20 C17         3.9761   -4.3422   -3.6332 C.ar      1 <0>        -0.1490
     21 C18         3.7120   -4.9464   -4.8642 C.ar      1 <0>        -0.0820
     22 C19         4.5145   -4.6639   -5.9471 C.ar      1 <0>        -0.1432
     23 C20         5.5799   -3.7847   -5.8188 C.ar      1 <0>        -0.0824
     24 C21         5.8519   -3.1817   -4.6088 C.ar      1 <0>        -0.1337
     25 C22         5.0545   -3.4524   -3.5042 C.ar      1 <0>         0.1621
     26 O3          5.3060   -2.8695   -2.3122 O.3       1 <0>        -0.2797
     27 C23         4.5446   -3.1134   -1.2336 C.2       1 <0>         0.5512
     28 O4          4.8115   -2.5577   -0.1823 O.2       1 <0>        -0.4445
     29 O5          2.0901   -5.4711   -2.5326 O.3       1 <0>        -0.4497
     30 O6          2.4784   -1.9073   -1.6238 O.3       1 <0>        -0.6491
     31 H1          0.8647    2.6236   -0.6181 H         1 <0>         0.1213
     32 H2          0.1012    2.6596    1.7194 H         1 <0>         0.1257
     33 H3          0.2252    0.6364    3.1028 H         1 <0>         0.1305
     34 H4          1.7707    0.5580   -1.5941 H         1 <0>         0.1325
     35 H5          1.7984   -4.9076   -0.2911 H         1 <0>         0.0872
     36 H6          2.1591   -6.2476    1.9453 H         1 <0>         0.1228
     37 H7          3.8876   -7.0483    3.5307 H         1 <0>         0.1155
     38 H8          6.2365   -5.9853    3.3400 H         1 <0>         0.1684
     39 H9          2.8833   -5.6315   -4.9663 H         1 <0>         0.1289
     40 H10         4.3138   -5.1294   -6.9008 H         1 <0>         0.1293
     41 H11         6.2026   -3.5706   -6.6748 H         1 <0>         0.1334
     42 H12         6.6843   -2.4993   -4.5202 H         1 <0>         0.1393
     43 H13         1.9596   -5.8566   -3.4098 H         1 <0>         0.3884
@<TRIPOS>BOND
     1    1    6 ar
     2    1    2 ar
     3    1   31 1
     4    2    3 ar
     5    2   32 1
     6    3    4 ar
     7    3   33 1
     8    4   11 1
     9    4    5 ar
    10    5    6 ar
    11    5    7 1
    12    6   34 1
    13    7    8 2
    14    7   30 1
    15    8    9 1
    16    8   12 1
    17    9   10 2
    18    9   11 1
    19   12   13 1
    20   12   18 1
    21   12   35 1
    22   13   17 1
    23   13   14 2
    24   14   15 1
    25   14   36 1
    26   15   16 2
    27   15   37 1
    28   16   17 1
    29   16   38 1
    30   18   27 1
    31   18   19 2
    32   19   20 1
    33   19   29 1
    34   20   25 ar
    35   20   21 ar
    36   21   22 ar
    37   21   39 1
    38   22   23 ar
    39   22   40 1
    40   23   24 ar
    41   23   41 1
    42   24   25 ar
    43   24   42 1
    44   25   26 1
    45   26   27 1
    46   27   28 2
    47   29   43 1
@<TRIPOS>MOLECULE
ZINC05835088
   44    48     0     0     0
SMALL
USER_CHARGES
2-hydroxy-3-[(2-hydroxy-4-oxo-chromen-3-yl)-(2-thienyl)methyl]chromen-4-one
@<TRIPOS>ATOM
      1 C1         -0.1285    1.1785   -0.4781 C.ar      1 <0>        -0.1446
      2 C2         -1.3144    1.8490   -0.2172 C.ar      1 <0>        -0.0605
      3 C3         -1.3151    3.2045    0.0351 C.ar      1 <0>        -0.1386
      4 C4         -0.1202    3.9132    0.0180 C.ar      1 <0>         0.1517
      5 C5          1.0779    3.2348   -0.2513 C.ar      1 <0>        -0.2114
      6 C6          1.0669    1.8636   -0.4992 C.ar      1 <0>        -0.0318
      7 C7          2.3362    4.0085   -0.2645 C.2       1 <0>         0.4469
      8 O1          3.4084    3.4724   -0.4922 O.2       1 <0>        -0.4719
      9 C8          2.2484    5.3923   -0.0041 C.2       1 <0>        -0.3097
     10 C9          1.0360    5.9521    0.2459 C.2       1 <0>         0.3835
     11 O2         -0.0988    5.2415    0.2559 O.3       1 <0>        -0.2597
     12 O3          0.9729    7.2774    0.4936 O.3       1 <0>        -0.4322
     13 C10         3.4917    6.2439   -0.0023 C.3       1 <0>         0.1575
     14 C11         3.4430    7.2065   -1.1609 C.2       1 <0>        -0.0881
     15 C12         4.3059    7.3386   -2.1977 C.2       1 <0>        -0.1610
     16 C13         4.0564    8.2999   -3.1592 C.2       1 <0>        -0.1444
     17 C14         2.9618    9.0891   -3.0311 C.2       1 <0>        -0.2055
     18 S1          2.2378    8.4738   -1.5196 S.3       1 <0>         0.0574
     19 C15         3.5698    7.0161    1.2894 C.2       1 <0>        -0.3167
     20 C16         4.0876    8.3285    1.3018 C.2       1 <0>         0.4340
     21 O4          4.4807    8.8652    0.2789 O.2       1 <0>        -0.4452
     22 C17         4.1296    9.0287    2.6017 C.ar      1 <0>        -0.2096
     23 C18         4.6199   10.3285    2.7101 C.ar      1 <0>        -0.0313
     24 C19         4.6471   10.9444    3.9425 C.ar      1 <0>        -0.1447
     25 C20         4.1898   10.2761    5.0686 C.ar      1 <0>        -0.0619
     26 C21         3.7025    8.9899    4.9737 C.ar      1 <0>        -0.1387
     27 C22         3.6667    8.3517    3.7400 C.ar      1 <0>         0.1493
     28 O5          3.1942    7.0928    3.6245 O.3       1 <0>        -0.2615
     29 C23         3.1473    6.4510    2.4504 C.2       1 <0>         0.3759
     30 O6          2.6603    5.1925    2.4188 O.3       1 <0>        -0.4376
     31 H1         -0.1427    0.1158   -0.6700 H         1 <0>         0.1374
     32 H2         -2.2461    1.3030   -0.2076 H         1 <0>         0.1417
     33 H3         -2.2440    3.7155    0.2412 H         1 <0>         0.1424
     34 H4          1.9893    1.3412   -0.7061 H         1 <0>         0.1438
     35 H5          4.3778    5.5992   -0.0981 H         1 <0>         0.1104
     36 H6          5.1740    6.7005   -2.2731 H         1 <0>         0.1237
     37 H7          4.7260    8.4234   -3.9975 H         1 <0>         0.1238
     38 H8          2.6169    9.8837   -3.6761 H         1 <0>         0.1752
     39 H9          4.9759   10.8500    1.8338 H         1 <0>         0.1433
     40 H10         5.0258   11.9519    4.0319 H         1 <0>         0.1368
     41 H11         4.2154   10.7684    6.0295 H         1 <0>         0.1412
     42 H12         3.3486    8.4792    5.8570 H         1 <0>         0.1417
     43 H13         2.3122    4.7140    3.3461 H         1 <0>         0.4414
     44 H14         0.0025    7.7530    0.6987 H         1 <0>         0.4474
@<TRIPOS>BOND
     1    1    6 ar
     2    1    2 ar
     3    1   31 1
     4    2    3 ar
     5    2   32 1
     6    3    4 ar
     7    3   33 1
     8    4   11 1
     9    4    5 ar
    10    5    6 ar
    11    5    7 1
    12    6   34 1
    13    7    8 2
    14    7    9 1
    15    9   10 2
    16    9   13 1
    17   10   11 1
    18   10   12 1
    19   12   44 1
    20   13   14 1
    21   13   19 1
    22   13   35 1
    23   14   18 1
    24   14   15 2
    25   15   16 1
    26   15   36 1
    27   16   17 2
    28   16   37 1
    29   17   18 1
    30   17   38 1
    31   19   29 2
    32   19   20 1
    33   20   21 2
    34   20   22 1
    35   22   27 ar
    36   22   23 ar
    37   23   24 ar
    38   23   39 1
    39   24   25 ar
    40   24   40 1
    41   25   26 ar
    42   25   41 1
    43   26   27 ar
    44   26   42 1
    45   27   28 1
    46   28   29 1
    47   29   30 1
    48   30   43 1
@<TRIPOS>MOLECULE
ZINC05835088
   42    46     0     0     0
SMALL
USER_CHARGES

@<TRIPOS>ATOM
      1 C1          2.5699    1.3138    2.8012 C.ar      1 <0>        -0.1811
      2 C2          3.0601    2.0228    1.7145 C.ar      1 <0>        -0.0903
      3 C3          3.3734    1.3775    0.5370 C.ar      1 <0>        -0.1645
      4 C4          3.1988    0.0031    0.4323 C.ar      1 <0>         0.1634
      5 C5          2.7034   -0.7129    1.5324 C.ar      1 <0>        -0.1975
      6 C6          2.3897   -0.0498    2.7171 C.ar      1 <0>        -0.0432
      7 C7          2.5258   -2.1732    1.3984 C.2       1 <0>         0.4130
      8 O1          2.0985   -2.8478    2.3211 O.2       1 <0>        -0.5269
      9 C8          2.8695   -2.7567    0.1608 C.2       1 <0>        -0.4367
     10 C9          3.3417   -1.9718   -0.8425 C.2       1 <0>         0.4335
     11 O2          3.4987   -0.6486   -0.7109 O.3       1 <0>        -0.2812
     12 O3          3.6651   -2.5487   -2.0192 O.3       1 <0>        -0.6190
     13 C10         2.7144   -4.2413   -0.0468 C.3       1 <0>         0.1998
     14 C11         2.1721   -4.8704    1.2106 C.2       1 <0>         0.0242
     15 C12         2.8359   -5.5373    2.1863 C.2       1 <0>        -0.2424
     16 C13         2.1243   -6.0339    3.2622 C.2       1 <0>        -0.1275
     17 C14         0.7837   -5.8394    3.3099 C.2       1 <0>        -0.2875
     18 S1          0.4897   -4.9239    1.8056 S.3       1 <0>         0.0987
     19 C15         1.7602   -4.4922   -1.1859 C.2       1 <0>        -0.4317
     20 C16         0.4870   -3.8845   -1.1925 C.2       1 <0>         0.4102
     21 O4          0.1305   -3.1486   -0.2868 O.2       1 <0>        -0.5223
     22 C17        -0.3969   -4.1744   -2.3399 C.ar      1 <0>        -0.2014
     23 C18        -1.6714   -3.6187   -2.4321 C.ar      1 <0>        -0.0435
     24 C19        -2.4649   -3.9141   -3.5194 C.ar      1 <0>        -0.1802
     25 C20        -1.9994   -4.7591   -4.5159 C.ar      1 <0>        -0.0894
     26 C21        -0.7401   -5.3147   -4.4355 C.ar      1 <0>        -0.1634
     27 C22         0.0753   -5.0289   -3.3475 C.ar      1 <0>         0.1654
     28 O5          1.3117   -5.5611   -3.2490 O.3       1 <0>        -0.2794
     29 C23         2.1227   -5.3007   -2.2159 C.2       1 <0>         0.4486
     30 O6          3.3472   -5.8680   -2.1944 O.3       1 <0>        -0.6447
     31 H1          2.3327    1.8320    3.7186 H         1 <0>         0.1138
     32 H2          3.1973    3.0913    1.7913 H         1 <0>         0.1177
     33 H3          3.7537    1.9398   -0.3030 H         1 <0>         0.1243
     34 H4          2.0080   -0.6009    3.5638 H         1 <0>         0.1269
     35 H5          3.6847   -4.6785   -0.2826 H         1 <0>         0.0754
     36 H6          3.9048   -5.6787    2.1238 H         1 <0>         0.1054
     37 H7          2.6289   -6.5692    4.0529 H         1 <0>         0.0956
     38 H8          0.0773   -6.1532    4.0641 H         1 <0>         0.1517
     39 H9         -2.0352   -2.9612   -1.6563 H         1 <0>         0.1276
     40 H10        -3.4535   -3.4861   -3.5957 H         1 <0>         0.1145
     41 H11        -2.6299   -4.9844   -5.3633 H         1 <0>         0.1185
     42 H12        -0.3881   -5.9717   -5.2171 H         1 <0>         0.1253
@<TRIPOS>BOND
     1    1    6 ar
     2    1    2 ar
     3    1   31 1
     4    2    3 ar
     5    2   32 1
     6    3    4 ar
     7    3   33 1
     8    4   11 1
     9    4    5 ar
    10    5    6 ar
    11    5    7 1
    12    6   34 1
    13    7    8 2
    14    7    9 1
    15    9   10 2
    16    9   13 1
    17   10   11 1
    18   10   12 1
    19   13   14 1
    20   13   19 1
    21   13   35 1
    22   14   18 1
    23   14   15 2
    24   15   16 1
    25   15   36 1
    26   16   17 2
    27   16   37 1
    28   17   18 1
    29   17   38 1
    30   19   29 2
    31   19   20 1
    32   20   21 2
    33   20   22 1
    34   22   27 ar
    35   22   23 ar
    36   23   24 ar
    37   23   39 1
    38   24   25 ar
    39   24   40 1
    40   25   26 ar
    41   25   41 1
    42   26   27 ar
    43   26   42 1
    44   27   28 1
    45   28   29 1
    46   29   30 1
@<TRIPOS>MOLECULE
ZINC05618522
   45    49     0     0     0
SMALL
USER_CHARGES

@<TRIPOS>ATOM
      1 C1         -2.5973   -0.9211   -0.4976 C.ar      1 <0>        -0.1774
      2 C2         -2.1092   -0.0142   -1.4270 C.ar      1 <0>        -0.1063
      3 C3         -0.8153   -0.1134   -1.8933 C.ar      1 <0>        -0.1609
      4 C4          0.0125   -1.1287   -1.4316 C.ar      1 <0>         0.1553
      5 C5         -0.4806   -2.0467   -0.4907 C.ar      1 <0>        -0.1354
      6 C6         -1.7931   -1.9352   -0.0270 C.ar      1 <0>        -0.0557
      7 C7          0.4061   -3.1175   -0.0095 C.2       1 <0>         0.3076
      8 C8          1.6795   -3.1685   -0.5059 C.2       1 <0>        -0.3478
      9 C9          2.0988   -2.2139   -1.4450 C.2       1 <0>         0.5436
     10 O1          3.2359   -2.2703   -1.8796 O.2       1 <0>        -0.5394
     11 O2          1.2821   -1.2404   -1.8784 O.3       1 <0>        -0.3047
     12 C10         2.6284   -4.2450   -0.0458 C.3       1 <0>         0.1558
     13 C11         3.4465   -4.7271   -1.2160 C.ar      1 <0>         0.0191
     14 C12         4.7845   -4.3918   -1.3084 C.ar      1 <0>        -0.0463
     15 C13         5.5354   -4.8337   -2.3814 C.ar      1 <0>        -0.1222
     16 C14         4.9477   -5.6117   -3.3630 C.ar      1 <0>        -0.0601
     17 C15         3.6087   -5.9469   -3.2699 C.ar      1 <0>        -0.1214
     18 C16         2.8602   -5.5091   -2.1936 C.ar      1 <0>        -0.1229
     19 Cl1         5.8901   -6.1665   -4.7113 Cl        1 <0>        -0.1200
     20 C17         3.5452   -3.6878    1.0125 C.2       1 <0>        -0.4410
     21 C18         3.4480   -2.3750    1.3834 C.2       1 <0>         0.3434
     22 C19         4.3662   -1.8805    2.4210 C.ar      1 <0>        -0.1566
     23 C20         4.3220   -0.5516    2.8481 C.ar      1 <0>        -0.0435
     24 C21         5.1953   -0.1204    3.8218 C.ar      1 <0>        -0.1737
     25 C22         6.1148   -0.9985    4.3765 C.ar      1 <0>        -0.0960
     26 C23         6.1689   -2.3132    3.9638 C.ar      1 <0>        -0.1597
     27 C24         5.2968   -2.7687    2.9833 C.ar      1 <0>         0.1502
     28 O3          5.3356   -4.0533    2.5681 O.3       1 <0>        -0.3065
     29 C25         4.4983   -4.5151    1.6258 C.2       1 <0>         0.4980
     30 O4          4.5714   -5.6844    1.2900 O.2       1 <0>        -0.5429
     31 O5          2.5353   -1.5558    0.8130 O.3       1 <0>        -0.6175
     32 O6         -0.0250   -4.0241    0.8968 O.3       1 <0>        -0.6980
     33 H1         -3.6115   -0.8287   -0.1380 H         1 <0>         0.1104
     34 H2         -2.7489    0.7770   -1.7890 H         1 <0>         0.1139
     35 H3         -0.4459    0.5977   -2.6174 H         1 <0>         0.1198
     36 H4         -2.1754   -2.6403    0.6963 H         1 <0>         0.1261
     37 H5          2.0599   -5.0780    0.3678 H         1 <0>         0.0661
     38 H6          5.2430   -3.7842   -0.5423 H         1 <0>         0.1164
     39 H7          6.5805   -4.5714   -2.4537 H         1 <0>         0.1107
     40 H8          3.1493   -6.5539   -4.0361 H         1 <0>         0.1125
     41 H9          1.8161   -5.7747   -2.1183 H         1 <0>         0.1184
     42 H10         3.6075    0.1340    2.4171 H         1 <0>         0.1308
     43 H11         5.1643    0.9065    4.1548 H         1 <0>         0.1150
     44 H12         6.7953   -0.6491    5.1389 H         1 <0>         0.1184
     45 H13         6.8890   -2.9880    4.4023 H         1 <0>         0.1244
@<TRIPOS>BOND
     1    1    6 ar
     2    1    2 ar
     3    1   33 1
     4    2    3 ar
     5    2   34 1
     6    3    4 ar
     7    3   35 1
     8    4   11 1
     9    4    5 ar
    10    5    6 ar
    11    5    7 1
    12    6   36 1
    13    7    8 2
    14    7   32 1
    15    8    9 1
    16    8   12 1
    17    9   10 2
    18    9   11 1
    19   12   13 1
    20   12   20 1
    21   12   37 1
    22   13   18 ar
    23   13   14 ar
    24   14   15 ar
    25   14   38 1
    26   15   16 ar
    27   15   39 1
    28   16   17 ar
    29   16   19 1
    30   17   18 ar
    31   17   40 1
    32   18   41 1
    33   20   29 1
    34   20   21 2
    35   21   22 1
    36   21   31 1
    37   22   27 ar
    38   22   23 ar
    39   23   24 ar
    40   23   42 1
    41   24   25 ar
    42   24   43 1
    43   25   26 ar
    44   25   44 1
    45   26   27 ar
    46   26   45 1
    47   27   28 1
    48   28   29 1
    49   29   30 2
@<TRIPOS>MOLECULE
ZINC05618522
   46    50     0     0     0
SMALL
USER_CHARGES

@<TRIPOS>ATOM
      1 C1         -2.5976   -0.9214   -0.4962 C.ar      1 <0>        -0.1686
      2 C2         -2.1098   -0.0145   -1.4258 C.ar      1 <0>        -0.0850
      3 C3         -0.8159   -0.1135   -1.8922 C.ar      1 <0>        -0.1578
      4 C4          0.0120   -1.1287   -1.4308 C.ar      1 <0>         0.1554
      5 C5         -0.4809   -2.0470   -0.4900 C.ar      1 <0>        -0.1630
      6 C6         -1.7932   -1.9354   -0.0258 C.ar      1 <0>        -0.0440
      7 C7          0.4059   -3.1178   -0.0091 C.2       1 <0>         0.3475
      8 C8          1.6793   -3.1685   -0.5055 C.2       1 <0>        -0.4322
      9 C9          2.0985   -2.2137   -1.4444 C.2       1 <0>         0.5313
     10 O1          3.2356   -2.2699   -1.8791 O.2       1 <0>        -0.5275
     11 O2          1.2816   -1.2402   -1.8776 O.3       1 <0>        -0.3007
     12 C10         2.6284   -4.2450   -0.0457 C.3       1 <0>         0.1304
     13 C11         3.4470   -4.7264   -1.2159 C.ar      1 <0>        -0.0060
     14 C12         4.7848   -4.3906   -1.3079 C.ar      1 <0>        -0.0648
     15 C13         5.5361   -4.8318   -2.3809 C.ar      1 <0>        -0.1123
     16 C14         4.9489   -5.6096   -3.3629 C.ar      1 <0>        -0.0487
     17 C15         3.6099   -5.9453   -3.2703 C.ar      1 <0>        -0.1130
     18 C16         2.8611   -5.5082   -2.1939 C.ar      1 <0>        -0.1076
     19 Cl1         5.8917   -6.1636   -4.7112 Cl        1 <0>        -0.0988
     20 C17         3.5448   -3.6881    1.0132 C.2       1 <0>        -0.2521
     21 C18         3.4475   -2.3753    1.3842 C.2       1 <0>         0.2355
     22 C19         4.3653   -1.8810    2.4223 C.ar      1 <0>        -0.1759
     23 C20         4.3211   -0.5522    2.8496 C.ar      1 <0>        -0.0673
     24 C21         5.1940   -0.1212    3.8237 C.ar      1 <0>        -0.1402
     25 C22         6.1129   -0.9996    4.3790 C.ar      1 <0>        -0.0713
     26 C23         6.1673   -2.3141    3.9657 C.ar      1 <0>        -0.1337
     27 C24         5.2956   -2.7694    2.9848 C.ar      1 <0>         0.1591
     28 O3          5.3345   -4.0539    2.5695 O.3       1 <0>        -0.2814
     29 C25         4.4976   -4.5156    1.6267 C.2       1 <0>         0.5215
     30 O4          4.5707   -5.6847    1.2907 O.2       1 <0>        -0.4572
     31 O5          2.5352   -1.5560    0.8136 O.3       1 <0>        -0.3939
     32 O6         -0.0250   -4.0247    0.8971 O.3       1 <0>        -0.6590
     33 H1         -3.6117   -0.8291   -0.1364 H         1 <0>         0.1203
     34 H2         -2.7498    0.7765   -1.7879 H         1 <0>         0.1241
     35 H3         -0.4467    0.5978   -2.6162 H         1 <0>         0.1285
     36 H4         -2.1750   -2.6401    0.6982 H         1 <0>         0.1326
     37 H5          2.0600   -5.0783    0.3674 H         1 <0>         0.0964
     38 H6          5.2430   -3.7832   -0.5414 H         1 <0>         0.1079
     39 H7          6.5812   -4.5691   -2.4529 H         1 <0>         0.1190
     40 H8          3.1509   -6.5521   -4.0367 H         1 <0>         0.1223
     41 H9          1.8170   -5.7741   -2.1190 H         1 <0>         0.1247
     42 H10         3.6068    0.1335    2.4184 H         1 <0>         0.1339
     43 H11         5.1632    0.9057    4.1566 H         1 <0>         0.1339
     44 H12         6.7926   -0.6505    5.1423 H         1 <0>         0.1378
     45 H13         6.8873   -2.9891    4.4044 H         1 <0>         0.1433
     46 H14         2.5546   -0.6500    1.1512 H         1 <0>         0.3568
@<TRIPOS>BOND
     1    1    6 ar
     2    1    2 ar
     3    1   33 1
     4    2    3 ar
     5    2   34 1
     6    3    4 ar
     7    3   35 1
     8    4   11 1
     9    4    5 ar
    10    5    6 ar
    11    5    7 1
    12    6   36 1
    13    7    8 2
    14    7   32 1
    15    8    9 1
    16    8   12 1
    17    9   10 2
    18    9   11 1
    19   12   13 1
    20   12   20 1
    21   12   37 1
    22   13   18 ar
    23   13   14 ar
    24   14   15 ar
    25   14   38 1
    26   15   16 ar
    27   15   39 1
    28   16   17 ar
    29   16   19 1
    30   17   18 ar
    31   17   40 1
    32   18   41 1
    33   20   29 1
    34   20   21 2
    35   21   22 1
    36   21   31 1
    37   22   27 ar
    38   22   23 ar
    39   23   24 ar
    40   23   42 1
    41   24   25 ar
    42   24   43 1
    43   25   26 ar
    44   25   44 1
    45   26   27 ar
    46   26   45 1
    47   27   28 1
    48   28   29 1
    49   29   30 2
    50   31   46 1
@<TRIPOS>MOLECULE
ZINC05618522
   47    51     0     0     0
SMALL
USER_CHARGES
3-[(4-chlorophenyl)-(2-hydroxy-4-oxo-chromen-3-yl)methyl]-2-hydroxy-chromen-4-one
@<TRIPOS>ATOM
      1 C1          4.1264   -0.0600    0.4221 C.ar      1 <0>        -0.1455
      2 C2          5.1585   -0.0551    1.3488 C.ar      1 <0>        -0.0654
      3 C3          5.6678    1.1332    1.8280 C.ar      1 <0>        -0.1394
      4 C4          5.1392    2.3408    1.3891 C.ar      1 <0>         0.1454
      5 C5          4.0917    2.3343    0.4559 C.ar      1 <0>        -0.2067
      6 C6          3.5884    1.1272   -0.0250 C.ar      1 <0>        -0.0311
      7 C7          3.5452    3.6300    0.0034 C.2       1 <0>         0.4396
      8 O1          2.6345    3.6864   -0.8068 O.2       1 <0>        -0.4200
      9 C8          4.1187    4.7995    0.5452 C.2       1 <0>        -0.3100
     10 C9          5.1315    4.6951    1.4447 C.2       1 <0>         0.3600
     11 O2          5.6200    3.5155    1.8480 O.3       1 <0>        -0.2645
     12 O3          5.6670    5.8256    1.9517 O.3       1 <0>        -0.4475
     13 C10         3.6107    6.1560    0.1293 C.3       1 <0>         0.1172
     14 C11         3.0401    6.0735   -1.2630 C.ar      1 <0>        -0.0362
     15 C12         1.6705    6.0915   -1.4506 C.ar      1 <0>        -0.0633
     16 C13         1.1467    6.0216   -2.7278 C.ar      1 <0>        -0.1105
     17 C14         1.9930    5.9221   -3.8177 C.ar      1 <0>        -0.0374
     18 C15         3.3634    5.8984   -3.6289 C.ar      1 <0>        -0.1113
     19 C16         3.8862    5.9741   -2.3517 C.ar      1 <0>        -0.1077
     20 Cl1         1.3357    5.8276   -5.4217 Cl        1 <0>        -0.0830
     21 C17         2.5369    6.6054    1.0865 C.2       1 <0>        -0.3254
     22 C18         1.4549    5.7527    1.3907 C.2       1 <0>         0.4268
     23 O4          1.3617    4.6431    0.8918 O.2       1 <0>        -0.4353
     24 C19         0.4390    6.2572    2.3370 C.ar      1 <0>        -0.2158
     25 C20        -0.6638    5.4854    2.6971 C.ar      1 <0>        -0.0316
     26 C21        -1.5887    5.9931    3.5836 C.ar      1 <0>        -0.1443
     27 C22        -1.4241    7.2637    4.1149 C.ar      1 <0>        -0.0611
     28 C23        -0.3366    8.0363    3.7664 C.ar      1 <0>        -0.1380
     29 C24         0.6066    7.5426    2.8737 C.ar      1 <0>         0.1497
     30 O5          1.6789    8.2818    2.5194 O.3       1 <0>        -0.2622
     31 C25         2.6076    7.8321    1.6662 C.2       1 <0>         0.3766
     32 O6          3.6532    8.6312    1.3663 O.3       1 <0>        -0.4433
     33 H1          3.7398   -0.9984    0.0529 H         1 <0>         0.1355
     34 H2          5.5697   -0.9915    1.6958 H         1 <0>         0.1399
     35 H3          6.4741    1.1252    2.5465 H         1 <0>         0.1405
     36 H4          2.7823    1.1221   -0.7437 H         1 <0>         0.1425
     37 H5          4.4402    6.8783    0.1433 H         1 <0>         0.1030
     38 H6          1.0099    6.1648   -0.5994 H         1 <0>         0.1199
     39 H7          0.0769    6.0401   -2.8745 H         1 <0>         0.1243
     40 H8          4.0245    5.8211   -4.4794 H         1 <0>         0.1268
     41 H9          4.9559    5.9559   -2.2042 H         1 <0>         0.1221
     42 H10        -0.7928    4.4958    2.2843 H         1 <0>         0.1433
     43 H11        -2.4451    5.3989    3.8663 H         1 <0>         0.1372
     44 H12        -2.1550    7.6517    4.8089 H         1 <0>         0.1418
     45 H13        -0.2184    9.0242    4.1865 H         1 <0>         0.1429
     46 H14         3.7319    9.6287    1.8233 H         1 <0>         0.4524
     47 H15         6.4879    5.7661    2.6815 H         1 <0>         0.4490
@<TRIPOS>BOND
     1    1    6 ar
     2    1    2 ar
     3    1   33 1
     4    2    3 ar
     5    2   34 1
     6    3    4 ar
     7    3   35 1
     8    4   11 1
     9    4    5 ar
    10    5    6 ar
    11    5    7 1
    12    6   36 1
    13    7    8 2
    14    7    9 1
    15    9   10 2
    16    9   13 1
    17   10   11 1
    18   10   12 1
    19   12   47 1
    20   13   14 1
    21   13   21 1
    22   13   37 1
    23   14   19 ar
    24   14   15 ar
    25   15   16 ar
    26   15   38 1
    27   16   17 ar
    28   16   39 1
    29   17   18 ar
    30   17   20 1
    31   18   19 ar
    32   18   40 1
    33   19   41 1
    34   21   31 2
    35   21   22 1
    36   22   23 2
    37   22   24 1
    38   24   29 ar
    39   24   25 ar
    40   25   26 ar
    41   25   42 1
    42   26   27 ar
    43   26   43 1
    44   27   28 ar
    45   27   44 1
    46   28   29 ar
    47   28   45 1
    48   29   30 1
    49   30   31 1
    50   31   32 1
    51   32   46 1
@<TRIPOS>MOLECULE
ZINC03954452
   55    59     0     0     0
SMALL
USER_CHARGES

@<TRIPOS>ATOM
      1 C1         -0.0230    1.0249   -1.7825 C.3       1 <0>        -0.1397
      2 C2         -0.0180   -0.4104   -1.2526 C.3       1 <0>        -0.0490
      3 C3          0.8517   -0.4871    0.0039 C.3       1 <0>        -0.1410
      4 C4         -1.4266   -0.8261   -0.9148 C.ar      1 <0>        -0.1036
      5 C5         -2.1483   -0.1193    0.0289 C.ar      1 <0>        -0.1116
      6 C6         -3.4403   -0.5006    0.3388 C.ar      1 <0>        -0.1203
      7 C7         -4.0109   -1.5884   -0.2953 C.ar      1 <0>         0.0082
      8 C8         -3.2895   -2.2946   -1.2396 C.ar      1 <0>        -0.0774
      9 C9         -1.9989   -1.9107   -1.5526 C.ar      1 <0>        -0.1184
     10 C10        -5.4191   -2.0047    0.0433 C.3       1 <0>         0.1390
     11 C11        -6.3691   -1.4449   -0.9839 C.2       1 <0>        -0.4557
     12 C12        -5.8741   -0.7182   -2.0872 C.2       1 <0>         0.4250
     13 O1         -4.6782   -0.5270   -2.2361 O.2       1 <0>        -0.5198
     14 C13        -6.8615   -0.1983   -3.0550 C.ar      1 <0>        -0.2070
     15 C14        -6.4653    0.5300   -4.1750 C.ar      1 <0>        -0.0421
     16 C15        -7.4181    0.9971   -5.0542 C.ar      1 <0>        -0.1721
     17 C16        -8.7629    0.7450   -4.8268 C.ar      1 <0>        -0.0805
     18 C17        -9.1668    0.0256   -3.7222 C.ar      1 <0>        -0.1595
     19 C18        -8.2215   -0.4544   -2.8242 C.ar      1 <0>         0.1611
     20 O2         -8.5946   -1.1617   -1.7369 O.3       1 <0>        -0.2764
     21 C19        -7.7073   -1.6416   -0.8564 C.2       1 <0>         0.4494
     22 O3         -8.1609   -2.3446    0.2028 O.3       1 <0>        -0.6374
     23 C20        -5.5114   -3.5089    0.0459 C.2       1 <0>        -0.2712
     24 C21        -5.2514   -4.2340    1.2278 C.2       1 <0>         0.4360
     25 O4         -4.9491   -3.6683    2.2659 O.2       1 <0>        -0.4763
     26 C22        -5.3602   -5.7055    1.1585 C.ar      1 <0>        -0.2104
     27 C23        -5.1219   -6.5038    2.2755 C.ar      1 <0>        -0.0321
     28 C24        -5.2344   -7.8731    2.1690 C.ar      1 <0>        -0.1552
     29 C25        -5.5820   -8.4542    0.9585 C.ar      1 <0>        -0.0678
     30 C26        -5.8201   -7.6745   -0.1534 C.ar      1 <0>        -0.1448
     31 C27        -5.7123   -6.2921   -0.0664 C.ar      1 <0>         0.1608
     32 O5         -5.9419   -5.5097   -1.1419 O.3       1 <0>        -0.2673
     33 C28        -5.8510   -4.1750   -1.0884 C.2       1 <0>         0.3464
     34 O6         -6.1019   -3.4630   -2.2074 O.3       1 <0>        -0.3765
     35 H1          0.9958    1.3256   -2.0269 H         1 <0>         0.0474
     36 H2         -0.6426    1.0796   -2.6776 H         1 <0>         0.0552
     37 H3         -0.4259    1.6921   -1.0205 H         1 <0>         0.0541
     38 H4          0.3849   -1.0776   -2.0146 H         1 <0>         0.0668
     39 H5          0.4488    0.1801    0.7659 H         1 <0>         0.0547
     40 H6          0.8553   -1.5097    0.3814 H         1 <0>         0.0527
     41 H7          1.8705   -0.1865   -0.2405 H         1 <0>         0.0486
     42 H8         -1.7025    0.7306    0.5243 H         1 <0>         0.1033
     43 H9         -4.0039    0.0512    1.0766 H         1 <0>         0.1059
     44 H10        -3.7351   -3.1447   -1.7347 H         1 <0>         0.0976
     45 H11        -1.4366   -2.4602   -2.2930 H         1 <0>         0.1000
     46 H12        -5.6838   -1.6227    1.0293 H         1 <0>         0.0728
     47 H13        -5.4184    0.7274   -4.3525 H         1 <0>         0.1298
     48 H14        -7.1163    1.5621   -5.9237 H         1 <0>         0.1198
     49 H15        -9.5013    1.1164   -5.5220 H         1 <0>         0.1243
     50 H16       -10.2167   -0.1644   -3.5550 H         1 <0>         0.1288
     51 H17        -4.8505   -6.0524    3.2183 H         1 <0>         0.1406
     52 H18        -5.0508   -8.4964    3.0317 H         1 <0>         0.1318
     53 H19        -5.6667   -9.5285    0.8861 H         1 <0>         0.1358
     54 H20        -6.0898   -8.1378   -1.0910 H         1 <0>         0.1387
     55 H21        -6.3368   -4.0042   -2.9735 H         1 <0>         0.3786
@<TRIPOS>BOND
     1    1    2 1
     2    1   35 1
     3    1   36 1
     4    1   37 1
     5    2    3 1
     6    2    4 1
     7    2   38 1
     8    3   39 1
     9    3   40 1
    10    3   41 1
    11    4    9 ar
    12    4    5 ar
    13    5    6 ar
    14    5   42 1
    15    6    7 ar
    16    6   43 1
    17    7    8 ar
    18    7   10 1
    19    8    9 ar
    20    8   44 1
    21    9   45 1
    22   10   11 1
    23   10   23 1
    24   10   46 1
    25   11   21 2
    26   11   12 1
    27   12   13 2
    28   12   14 1
    29   14   19 ar
    30   14   15 ar
    31   15   16 ar
    32   15   47 1
    33   16   17 ar
    34   16   48 1
    35   17   18 ar
    36   17   49 1
    37   18   19 ar
    38   18   50 1
    39   19   20 1
    40   20   21 1
    41   21   22 1
    42   23   33 2
    43   23   24 1
    44   24   25 2
    45   24   26 1
    46   26   31 ar
    47   26   27 ar
    48   27   28 ar
    49   27   51 1
    50   28   29 ar
    51   28   52 1
    52   29   30 ar
    53   29   53 1
    54   30   31 ar
    55   30   54 1
    56   31   32 1
    57   32   33 1
    58   33   34 1
    59   34   55 1
@<TRIPOS>MOLECULE
ZINC03954452
   56    60     0     0     0
SMALL
USER_CHARGES

@<TRIPOS>ATOM
      1 C1         -0.0234    1.0252   -1.7833 C.3       1 <0>        -0.1417
      2 C2         -0.0182   -0.4101   -1.2534 C.3       1 <0>        -0.0549
      3 C3          0.8516   -0.4867    0.0030 C.3       1 <0>        -0.1435
      4 C4         -1.4268   -0.8259   -0.9153 C.ar      1 <0>        -0.0817
      5 C5         -2.1484   -0.1191    0.0284 C.ar      1 <0>        -0.1097
      6 C6         -3.4404   -0.5004    0.3385 C.ar      1 <0>        -0.1114
      7 C7         -4.0109   -1.5883   -0.2955 C.ar      1 <0>        -0.0330
      8 C8         -3.2896   -2.2946   -1.2398 C.ar      1 <0>        -0.0797
      9 C9         -1.9991   -1.9106   -1.5530 C.ar      1 <0>        -0.1155
     10 C10        -5.4191   -2.0047    0.0433 C.3       1 <0>         0.1101
     11 C11        -6.3693   -1.4451   -0.9839 C.2       1 <0>        -0.2897
     12 C12        -5.8745   -0.7184   -2.0872 C.2       1 <0>         0.4387
     13 O1         -4.6786   -0.5272   -2.2363 O.2       1 <0>        -0.4369
     14 C13        -6.8620   -0.1988   -3.0551 C.ar      1 <0>        -0.2101
     15 C14        -6.4660    0.5294   -4.1751 C.ar      1 <0>        -0.0318
     16 C15        -7.4188    0.9963   -5.0543 C.ar      1 <0>        -0.1449
     17 C16        -8.7637    0.7442   -4.8268 C.ar      1 <0>        -0.0619
     18 C17        -9.1674    0.0248   -3.7220 C.ar      1 <0>        -0.1390
     19 C18        -8.2219   -0.4549   -2.8241 C.ar      1 <0>         0.1501
     20 O2         -8.5948   -1.1622   -1.7367 O.3       1 <0>        -0.2609
     21 C19        -7.7075   -1.6419   -0.8562 C.2       1 <0>         0.3503
     22 O3         -8.1609   -2.3449    0.2031 O.3       1 <0>        -0.4111
     23 C20        -5.5113   -3.5089    0.0461 C.2       1 <0>        -0.3007
     24 C21        -5.2512   -4.2339    1.2281 C.2       1 <0>         0.4397
     25 O4         -4.9489   -3.6680    2.2661 O.2       1 <0>        -0.4631
     26 C22        -5.3599   -5.7054    1.1590 C.ar      1 <0>        -0.2131
     27 C23        -5.1215   -6.5035    2.2760 C.ar      1 <0>        -0.0308
     28 C24        -5.2339   -7.8728    2.1697 C.ar      1 <0>        -0.1438
     29 C25        -5.5815   -8.4541    0.9593 C.ar      1 <0>        -0.0598
     30 C26        -5.8197   -7.6746   -0.1527 C.ar      1 <0>        -0.1379
     31 C27        -5.7120   -6.2921   -0.0658 C.ar      1 <0>         0.1514
     32 O5         -5.9416   -5.5099   -1.1415 O.3       1 <0>        -0.2602
     33 C28        -5.8508   -4.1751   -1.0881 C.2       1 <0>         0.3561
     34 O6         -6.1018   -3.4633   -2.2072 O.3       1 <0>        -0.4046
     35 H1          0.9953    1.3259   -2.0279 H         1 <0>         0.0540
     36 H2         -0.6431    1.0797   -2.6784 H         1 <0>         0.0551
     37 H3         -0.4262    1.6924   -1.0213 H         1 <0>         0.0553
     38 H4          0.3846   -1.0773   -2.0154 H         1 <0>         0.0721
     39 H5          0.4488    0.1805    0.7650 H         1 <0>         0.0560
     40 H6          0.8553   -1.5092    0.3806 H         1 <0>         0.0542
     41 H7          1.8703   -0.1860   -0.2415 H         1 <0>         0.0549
     42 H8         -1.7026    0.7309    0.5237 H         1 <0>         0.1129
     43 H9         -4.0039    0.0513    1.0763 H         1 <0>         0.1116
     44 H10        -3.7353   -3.1447   -1.7348 H         1 <0>         0.1008
     45 H11        -1.4369   -2.4601   -2.2935 H         1 <0>         0.1092
     46 H12        -5.6837   -1.6226    1.0293 H         1 <0>         0.0983
     47 H13        -5.4191    0.7269   -4.3528 H         1 <0>         0.1429
     48 H14        -7.1173    1.5613   -5.9239 H         1 <0>         0.1363
     49 H15        -9.5021    1.1154   -5.5219 H         1 <0>         0.1409
     50 H16       -10.2173   -0.1653   -3.5547 H         1 <0>         0.1416
     51 H17        -4.8502   -6.0519    3.2188 H         1 <0>         0.1446
     52 H18        -5.0503   -8.4960    3.0325 H         1 <0>         0.1382
     53 H19        -5.6661   -9.5284    0.8870 H         1 <0>         0.1424
     54 H20        -6.0893   -8.1380   -1.0902 H         1 <0>         0.1429
     55 H21        -6.3367   -4.0047   -2.9733 H         1 <0>         0.4004
     56 H22        -9.1225   -2.4439    0.2270 H         1 <0>         0.4104
@<TRIPOS>BOND
     1    1    2 1
     2    1   35 1
     3    1   36 1
     4    1   37 1
     5    2    3 1
     6    2    4 1
     7    2   38 1
     8    3   39 1
     9    3   40 1
    10    3   41 1
    11    4    9 ar
    12    4    5 ar
    13    5    6 ar
    14    5   42 1
    15    6    7 ar
    16    6   43 1
    17    7    8 ar
    18    7   10 1
    19    8    9 ar
    20    8   44 1
    21    9   45 1
    22   10   11 1
    23   10   23 1
    24   10   46 1
    25   11   21 2
    26   11   12 1
    27   12   13 2
    28   12   14 1
    29   14   19 ar
    30   14   15 ar
    31   15   16 ar
    32   15   47 1
    33   16   17 ar
    34   16   48 1
    35   17   18 ar
    36   17   49 1
    37   18   19 ar
    38   18   50 1
    39   19   20 1
    40   20   21 1
    41   21   22 1
    42   22   56 1
    43   23   33 2
    44   23   24 1
    45   24   25 2
    46   24   26 1
    47   26   31 ar
    48   26   27 ar
    49   27   28 ar
    50   27   51 1
    51   28   29 ar
    52   28   52 1
    53   29   30 ar
    54   29   53 1
    55   30   31 ar
    56   30   54 1
    57   31   32 1
    58   32   33 1
    59   33   34 1
    60   34   55 1
@<TRIPOS>MOLECULE
ZINC03954452
   55    59     0     0     0
SMALL
USER_CHARGES

@<TRIPOS>ATOM
      1 C1         -1.3878    0.7512    0.5618 C.3       1 <0>        -0.1402
      2 C2         -0.8903   -0.6874    0.4078 C.3       1 <0>        -0.0492
      3 C3         -0.1793   -0.8399   -0.9384 C.3       1 <0>        -0.1411
      4 C4          0.0713   -1.0085    1.5229 C.ar      1 <0>        -0.1036
      5 C5          1.2267   -0.2650    1.6747 C.ar      1 <0>        -0.1100
      6 C6          2.1088   -0.5594    2.6975 C.ar      1 <0>        -0.1195
      7 C7          1.8351   -1.5971    3.5689 C.ar      1 <0>         0.0066
      8 C8          0.6792   -2.3400    3.4176 C.ar      1 <0>        -0.0840
      9 C9         -0.2049   -2.0428    2.3974 C.ar      1 <0>        -0.1166
     10 C10         2.7972   -1.9188    4.6833 C.3       1 <0>         0.1313
     11 C11         2.8554   -3.4116    4.8814 C.2       1 <0>        -0.2218
     12 C12         2.0399   -4.0149    5.7987 C.2       1 <0>         0.2262
     13 C13         2.1358   -5.4748    5.9536 C.ar      1 <0>        -0.1710
     14 C14         1.3329   -6.1561    6.8709 C.ar      1 <0>        -0.0708
     15 C15         1.4469   -7.5232    6.9913 C.ar      1 <0>        -0.1407
     16 C16         2.3531   -8.2221    6.2073 C.ar      1 <0>        -0.0739
     17 C17         3.1521   -7.5615    5.2981 C.ar      1 <0>        -0.1334
     18 C18         3.0527   -6.1829    5.1605 C.ar      1 <0>         0.1599
     19 O1          3.8266   -5.5204    4.2739 O.3       1 <0>        -0.2815
     20 C19         3.7426   -4.1891    4.1216 C.2       1 <0>         0.5275
     21 O2          4.4604   -3.6400    3.3040 O.2       1 <0>        -0.4645
     22 O3          1.1716   -3.2912    6.5413 O.3       1 <0>        -0.4061
     23 C20         2.3296   -1.2610    5.9560 C.2       1 <0>        -0.4399
     24 C21         3.0799   -1.3588    7.0953 C.2       1 <0>         0.3451
     25 C22         2.5791   -0.6987    8.3110 C.ar      1 <0>        -0.1638
     26 C23         3.2941   -0.7574    9.5092 C.ar      1 <0>        -0.0450
     27 C24         2.7979   -0.1283   10.6293 C.ar      1 <0>        -0.1695
     28 C25         1.5952    0.5605   10.5707 C.ar      1 <0>        -0.0859
     29 C26         0.8791    0.6258    9.3940 C.ar      1 <0>        -0.1579
     30 C27         1.3619   -0.0014    8.2526 C.ar      1 <0>         0.1550
     31 O4          0.6740    0.0538    7.0916 O.3       1 <0>        -0.3010
     32 C28         1.1255   -0.5408    5.9758 C.2       1 <0>         0.5163
     33 O5          0.4687   -0.4569    4.9527 O.2       1 <0>        -0.5092
     34 O6          4.2470   -2.0421    7.1042 O.3       1 <0>        -0.6560
     35 H1         -0.5403    1.4353    0.5190 H         1 <0>         0.0543
     36 H2         -2.0833    0.9834   -0.2447 H         1 <0>         0.0479
     37 H3         -1.8943    0.8598    1.5208 H         1 <0>         0.0555
     38 H4         -1.7378   -1.3715    0.4506 H         1 <0>         0.0673
     39 H5          0.6682   -0.1558   -0.9812 H         1 <0>         0.0549
     40 H6          0.1751   -1.8648   -1.0481 H         1 <0>         0.0529
     41 H7         -0.8748   -0.6077   -1.7449 H         1 <0>         0.0490
     42 H8          1.4405    0.5457    0.9939 H         1 <0>         0.1048
     43 H9          3.0118    0.0210    2.8157 H         1 <0>         0.1073
     44 H10         0.4656   -3.1509    4.0982 H         1 <0>         0.0992
     45 H11        -1.1098   -2.6208    2.2815 H         1 <0>         0.1015
     46 H12         3.7890   -1.5475    4.4256 H         1 <0>         0.0763
     47 H13         0.6269   -5.6140    7.4826 H         1 <0>         0.1325
     48 H14         0.8280   -8.0538    7.6998 H         1 <0>         0.1328
     49 H15         2.4339   -9.2942    6.3102 H         1 <0>         0.1368
     50 H16         3.8547   -8.1156    4.6933 H         1 <0>         0.1425
     51 H17         4.2305   -1.2934    9.5572 H         1 <0>         0.1314
     52 H18         3.3476   -0.1717   11.5579 H         1 <0>         0.1196
     53 H19         1.2157    1.0501   11.4554 H         1 <0>         0.1237
     54 H20        -0.0565    1.1642    9.3599 H         1 <0>         0.1282
     55 H21         0.6453   -3.8194    7.1570 H         1 <0>         0.3699
@<TRIPOS>BOND
     1    1    2 1
     2    1   35 1
     3    1   36 1
     4    1   37 1
     5    2    3 1
     6    2    4 1
     7    2   38 1
     8    3   39 1
     9    3   40 1
    10    3   41 1
    11    4    9 ar
    12    4    5 ar
    13    5    6 ar
    14    5   42 1
    15    6    7 ar
    16    6   43 1
    17    7    8 ar
    18    7   10 1
    19    8    9 ar
    20    8   44 1
    21    9   45 1
    22   10   11 1
    23   10   23 1
    24   10   46 1
    25   11   20 1
    26   11   12 2
    27   12   13 1
    28   12   22 1
    29   13   18 ar
    30   13   14 ar
    31   14   15 ar
    32   14   47 1
    33   15   16 ar
    34   15   48 1
    35   16   17 ar
    36   16   49 1
    37   17   18 ar
    38   17   50 1
    39   18   19 1
    40   19   20 1
    41   20   21 2
    42   22   55 1
    43   23   32 1
    44   23   24 2
    45   24   25 1
    46   24   34 1
    47   25   30 ar
    48   25   26 ar
    49   26   27 ar
    50   26   51 1
    51   27   28 ar
    52   27   52 1
    53   28   29 ar
    54   28   53 1
    55   29   30 ar
    56   29   54 1
    57   30   31 1
    58   31   32 1
    59   32   33 2
@<TRIPOS>MOLECULE
ZINC03954452
   54    58     0     0     0
SMALL
USER_CHARGES

@<TRIPOS>ATOM
      1 C1         -0.0232    1.0260   -1.7814 C.3       1 <0>        -0.1368
      2 C2         -0.0180   -0.4092   -1.2511 C.3       1 <0>        -0.0440
      3 C3          0.8512   -0.4853    0.0057 C.3       1 <0>        -0.1380
      4 C4         -1.4266   -0.8252   -0.9136 C.ar      1 <0>        -0.1232
      5 C5         -2.1488   -0.1183    0.0295 C.ar      1 <0>        -0.1200
      6 C6         -3.4409   -0.4999    0.3391 C.ar      1 <0>        -0.1357
      7 C7         -4.0109   -1.5881   -0.2949 C.ar      1 <0>         0.0357
      8 C8         -3.2889   -2.2944   -1.2387 C.ar      1 <0>        -0.0595
      9 C9         -1.9984   -1.9102   -1.5513 C.ar      1 <0>        -0.1281
     10 C10        -5.4191   -2.0047    0.0433 C.3       1 <0>         0.1639
     11 C11        -6.3689   -1.4454   -0.9843 C.2       1 <0>        -0.3915
     12 C12        -5.8738   -0.7188   -2.0876 C.2       1 <0>         0.4197
     13 O1         -4.6778   -0.5274   -2.2363 O.2       1 <0>        -0.5403
     14 C13        -6.8610   -0.1995   -3.0560 C.ar      1 <0>        -0.1924
     15 C14        -6.4645    0.5287   -4.1759 C.ar      1 <0>        -0.0459
     16 C15        -7.4171    0.9953   -5.0556 C.ar      1 <0>        -0.1838
     17 C16        -8.7620    0.7430   -4.8286 C.ar      1 <0>        -0.0935
     18 C17        -9.1661    0.0238   -3.7239 C.ar      1 <0>        -0.1658
     19 C18        -8.2209   -0.4557   -2.8255 C.ar      1 <0>         0.1662
     20 O2         -8.5942   -1.1628   -1.7381 O.3       1 <0>        -0.2800
     21 C19        -7.7071   -1.6423   -0.8572 C.2       1 <0>         0.4366
     22 O3         -8.1609   -2.3452    0.2020 O.3       1 <0>        -0.6465
     23 C20        -5.5110   -3.5089    0.0462 C.2       1 <0>        -0.4256
     24 C21        -5.2508   -4.2338    1.2282 C.2       1 <0>         0.4061
     25 O4         -4.9487   -3.6678    2.2662 O.2       1 <0>        -0.5668
     26 C22        -5.3592   -5.7053    1.1592 C.ar      1 <0>        -0.2014
     27 C23        -5.1208   -6.5033    2.2763 C.ar      1 <0>        -0.0455
     28 C24        -5.2329   -7.8726    2.1701 C.ar      1 <0>        -0.1813
     29 C25        -5.5803   -8.4541    0.9597 C.ar      1 <0>        -0.0900
     30 C26        -5.8186   -7.6746   -0.1524 C.ar      1 <0>        -0.1638
     31 C27        -5.7111   -6.2922   -0.0656 C.ar      1 <0>         0.1660
     32 O5         -5.9409   -5.5101   -1.1413 O.3       1 <0>        -0.2833
     33 C28        -5.8503   -4.1753   -1.0880 C.2       1 <0>         0.4435
     34 O6         -6.1014   -3.4636   -2.2071 O.3       1 <0>        -0.6072
     35 H1          0.9956    1.3269   -2.0255 H         1 <0>         0.0406
     36 H2         -0.6425    1.0802   -2.6768 H         1 <0>         0.0545
     37 H3         -0.4266    1.6933   -1.0198 H         1 <0>         0.0524
     38 H4          0.3854   -1.0765   -2.0127 H         1 <0>         0.0622
     39 H5          0.4479    0.1820    0.7674 H         1 <0>         0.0530
     40 H6          0.8550   -1.5077    0.3835 H         1 <0>         0.0520
     41 H7          1.8700   -0.1844   -0.2384 H         1 <0>         0.0418
     42 H8         -1.7035    0.7318    0.5248 H         1 <0>         0.0925
     43 H9         -4.0049    0.0519    1.0765 H         1 <0>         0.0976
     44 H10        -3.7341   -3.1448   -1.7337 H         1 <0>         0.1100
     45 H11        -1.4356   -2.4597   -2.2914 H         1 <0>         0.0913
     46 H12        -5.6842   -1.6226    1.0291 H         1 <0>         0.0463
     47 H13        -5.4177    0.7262   -4.3532 H         1 <0>         0.1246
     48 H14        -7.1153    1.5602   -5.9252 H         1 <0>         0.1117
     49 H15        -9.5002    1.1141   -5.5241 H         1 <0>         0.1158
     50 H16       -10.2160   -0.1664   -3.5569 H         1 <0>         0.1222
     51 H17        -4.8495   -6.0516    3.2191 H         1 <0>         0.1266
     52 H18        -5.0492   -8.4957    3.0329 H         1 <0>         0.1144
     53 H19        -5.6646   -9.5284    0.8875 H         1 <0>         0.1182
     54 H20        -6.0881   -8.1382   -1.0898 H         1 <0>         0.1247
@<TRIPOS>BOND
     1    1    2 1
     2    1   35 1
     3    1   36 1
     4    1   37 1
     5    2    3 1
     6    2    4 1
     7    2   38 1
     8    3   39 1
     9    3   40 1
    10    3   41 1
    11    4    9 ar
    12    4    5 ar
    13    5    6 ar
    14    5   42 1
    15    6    7 ar
    16    6   43 1
    17    7    8 ar
    18    7   10 1
    19    8    9 ar
    20    8   44 1
    21    9   45 1
    22   10   11 1
    23   10   23 1
    24   10   46 1
    25   11   21 2
    26   11   12 1
    27   12   13 2
    28   12   14 1
    29   14   19 ar
    30   14   15 ar
    31   15   16 ar
    32   15   47 1
    33   16   17 ar
    34   16   48 1
    35   17   18 ar
    36   17   49 1
    37   18   19 ar
    38   18   50 1
    39   19   20 1
    40   20   21 1
    41   21   22 1
    42   23   33 2
    43   23   24 1
    44   24   25 2
    45   24   26 1
    46   26   31 ar
    47   26   27 ar
    48   27   28 ar
    49   27   51 1
    50   28   29 ar
    51   28   52 1
    52   29   30 ar
    53   29   53 1
    54   30   31 ar
    55   30   54 1
    56   31   32 1
    57   32   33 1
    58   33   34 1
@<TRIPOS>MOLECULE
ZINC04062977
   54    58     0     0     0
SMALL
USER_CHARGES

@<TRIPOS>ATOM
      1 C1         -1.1466    2.4488   -0.2415 C.3       1 <0>         0.1056
      2 N1         -0.8117    1.0548    0.0603 N.pl3     1 <0>        -0.6487
      3 C2          0.5716    0.6842    0.3691 C.3       1 <0>         0.1028
      4 C3         -1.8112    0.0793    0.0535 C.ar      1 <0>         0.1879
      5 C4         -1.4964   -1.2419    0.3451 C.ar      1 <0>        -0.1968
      6 C5         -2.4872   -2.2039    0.3380 C.ar      1 <0>        -0.0845
      7 C6         -3.7915   -1.8533    0.0407 C.ar      1 <0>        -0.0546
      8 C7         -4.1083   -0.5390   -0.2500 C.ar      1 <0>        -0.0225
      9 C8         -3.1234    0.4290   -0.2391 C.ar      1 <0>        -0.1915
     10 C9         -4.8698   -2.9060    0.0330 C.3       1 <0>         0.1412
     11 C10        -5.8334   -2.6298   -1.0923 C.2       1 <0>        -0.4620
     12 C11        -5.6035   -3.1741   -2.3735 C.2       1 <0>         0.4219
     13 O1         -4.6302   -3.8743   -2.6001 O.2       1 <0>        -0.5476
     14 C12        -6.5884   -2.8626   -3.4294 C.ar      1 <0>        -0.2091
     15 C13        -6.4439   -3.3565   -4.7243 C.ar      1 <0>        -0.0421
     16 C14        -7.3854   -3.0429   -5.6805 C.ar      1 <0>        -0.1714
     17 C15        -8.4699   -2.2407   -5.3575 C.ar      1 <0>        -0.0798
     18 C16        -8.6232   -1.7464   -4.0796 C.ar      1 <0>        -0.1585
     19 C17        -7.6851   -2.0515   -3.1013 C.ar      1 <0>         0.1622
     20 O2         -7.8162   -1.5792   -1.8438 O.3       1 <0>        -0.2765
     21 C18        -6.9320   -1.8597   -0.8782 C.2       1 <0>         0.4483
     22 O3         -7.1376   -1.3532    0.3559 O.3       1 <0>        -0.6267
     23 C19        -5.6092   -2.8774    1.3458 C.2       1 <0>        -0.2176
     24 C20        -5.2867   -1.9105    2.3213 C.2       1 <0>         0.4457
     25 O4         -4.4114   -1.0824    2.1288 O.2       1 <0>        -0.4505
     26 C21        -6.0513   -1.9405    3.5848 C.ar      1 <0>        -0.2027
     27 C22        -5.8025   -1.0246    4.6050 C.ar      1 <0>        -0.0331
     28 C23        -6.5386   -1.0862    5.7683 C.ar      1 <0>        -0.1599
     29 C24        -7.5205   -2.0533    5.9243 C.ar      1 <0>        -0.0718
     30 C25        -7.7755   -2.9648    4.9217 C.ar      1 <0>        -0.1494
     31 C26        -7.0446   -2.9190    3.7410 C.ar      1 <0>         0.1655
     32 O5         -7.2782   -3.8008    2.7463 O.3       1 <0>        -0.2666
     33 C27        -6.5944   -3.7789    1.5954 C.2       1 <0>         0.3078
     34 O6         -6.8924   -4.6922    0.6472 O.3       1 <0>        -0.4052
     35 H1         -0.2448    3.0588   -0.1884 H         1 <0>         0.0620
     36 H2         -1.5695    2.5119   -1.2442 H         1 <0>         0.0463
     37 H3         -1.8746    2.8127    0.4835 H         1 <0>         0.0472
     38 H4          0.7385    0.7659    1.4432 H         1 <0>         0.0371
     39 H5          0.7525   -0.3423    0.0504 H         1 <0>         0.0645
     40 H6          1.2530    1.3532   -0.1564 H         1 <0>         0.0551
     41 H7         -0.4779   -1.5165    0.5767 H         1 <0>         0.1051
     42 H8         -2.2432   -3.2313    0.5646 H         1 <0>         0.1041
     43 H9         -5.1279   -0.2686   -0.4818 H         1 <0>         0.1139
     44 H10        -3.3723    1.4561   -0.4618 H         1 <0>         0.1022
     45 H11        -4.4181   -3.8879   -0.1082 H         1 <0>         0.0705
     46 H12        -5.5995   -3.9805   -4.9771 H         1 <0>         0.1308
     47 H13        -7.2782   -3.4230   -6.6857 H         1 <0>         0.1212
     48 H14        -9.2014   -2.0006   -6.1149 H         1 <0>         0.1252
     49 H15        -9.4714   -1.1224   -3.8394 H         1 <0>         0.1296
     50 H16        -5.0377   -0.2716    4.4849 H         1 <0>         0.1373
     51 H17        -6.3498   -0.3787    6.5622 H         1 <0>         0.1280
     52 H18        -8.0909   -2.0930    6.8405 H         1 <0>         0.1324
     53 H19        -8.5423   -3.7138    5.0542 H         1 <0>         0.1351
     54 H20        -7.6028   -5.2995    0.8955 H         1 <0>         0.3927
@<TRIPOS>BOND
     1    1    2 1
     2    1   35 1
     3    1   36 1
     4    1   37 1
     5    2    3 1
     6    2    4 1
     7    3   38 1
     8    3   39 1
     9    3   40 1
    10    4    9 ar
    11    4    5 ar
    12    5    6 ar
    13    5   41 1
    14    6    7 ar
    15    6   42 1
    16    7    8 ar
    17    7   10 1
    18    8    9 ar
    19    8   43 1
    20    9   44 1
    21   10   11 1
    22   10   23 1
    23   10   45 1
    24   11   21 2
    25   11   12 1
    26   12   13 2
    27   12   14 1
    28   14   19 ar
    29   14   15 ar
    30   15   16 ar
    31   15   46 1
    32   16   17 ar
    33   16   47 1
    34   17   18 ar
    35   17   48 1
    36   18   19 ar
    37   18   49 1
    38   19   20 1
    39   20   21 1
    40   21   22 1
    41   23   33 2
    42   23   24 1
    43   24   25 2
    44   24   26 1
    45   26   31 ar
    46   26   27 ar
    47   27   28 ar
    48   27   50 1
    49   28   29 ar
    50   28   51 1
    51   29   30 ar
    52   29   52 1
    53   30   31 ar
    54   30   53 1
    55   31   32 1
    56   32   33 1
    57   33   34 1
    58   34   54 1
@<TRIPOS>MOLECULE
ZINC04062977
   55    59     0     0     0
SMALL
USER_CHARGES

@<TRIPOS>ATOM
      1 C1          0.0186    2.4100   -1.0085 C.3       1 <0>         0.0971
      2 N1         -0.3050    1.0061   -0.7428 N.pl3     1 <0>        -0.6435
      3 C2         -0.7058    0.5888    0.6031 C.3       1 <0>         0.0966
      4 C3         -0.2314    0.0655   -1.7728 C.ar      1 <0>         0.2081
      5 C4         -0.5435   -1.2651   -1.5239 C.ar      1 <0>        -0.1921
      6 C5         -0.4702   -2.1924   -2.5447 C.ar      1 <0>        -0.0657
      7 C6         -0.0862   -1.7978   -3.8132 C.ar      1 <0>        -0.0861
      8 C7          0.2252   -0.4741   -4.0643 C.ar      1 <0>        -0.0347
      9 C8          0.1484    0.4595   -3.0495 C.ar      1 <0>        -0.1912
     10 C9         -0.0064   -2.8128   -4.9243 C.3       1 <0>         0.1165
     11 C10        -1.2667   -2.7555   -5.7485 C.2       1 <0>        -0.2867
     12 C11        -2.2615   -1.7980   -5.4588 C.2       1 <0>         0.4383
     13 O1         -2.1280   -1.0010   -4.5445 O.2       1 <0>        -0.4345
     14 C12        -3.4710   -1.7986   -6.3069 C.ar      1 <0>        -0.2103
     15 C13        -4.5054   -0.8893   -6.0955 C.ar      1 <0>        -0.0322
     16 C14        -5.6169   -0.9227   -6.9094 C.ar      1 <0>        -0.1458
     17 C15        -5.7068   -1.8551   -7.9324 C.ar      1 <0>        -0.0627
     18 C16        -4.6895   -2.7597   -8.1511 C.ar      1 <0>        -0.1396
     19 C17        -3.5604   -2.7419   -7.3416 C.ar      1 <0>         0.1507
     20 O2         -2.5524   -3.6175   -7.5384 O.3       1 <0>        -0.2617
     21 C18        -1.4499   -3.6220   -6.7788 C.2       1 <0>         0.3461
     22 O3         -0.4839   -4.5267   -7.0440 O.3       1 <0>        -0.4115
     23 C19         1.1810   -2.5063   -5.8002 C.2       1 <0>        -0.2970
     24 C20         2.4437   -3.0614   -5.5041 C.2       1 <0>         0.4396
     25 O4          2.6046   -3.7954   -4.5427 O.2       1 <0>        -0.4627
     26 C21         3.5633   -2.7188   -6.4048 C.ar      1 <0>        -0.2132
     27 C22         4.8456   -3.2206   -6.1911 C.ar      1 <0>        -0.0309
     28 C23         5.8627   -2.8771   -7.0551 C.ar      1 <0>        -0.1446
     29 C24         5.6132   -2.0371   -8.1303 C.ar      1 <0>        -0.0603
     30 C25         4.3485   -1.5346   -8.3517 C.ar      1 <0>        -0.1385
     31 C26         3.3095   -1.8695   -7.4923 C.ar      1 <0>         0.1521
     32 O5          2.0637   -1.3898   -7.6907 O.3       1 <0>        -0.2608
     33 C27         1.0411   -1.6983   -6.8834 C.2       1 <0>         0.3524
     34 O6         -0.1764   -1.1818   -7.1535 O.3       1 <0>        -0.4044
     35 H1          1.0823    2.5762   -0.8379 H         1 <0>         0.0435
     36 H2         -0.2252    2.6495   -2.0435 H         1 <0>         0.0662
     37 H3         -0.5604    3.0488   -0.3416 H         1 <0>         0.0622
     38 H4         -1.7886    0.6672    0.7004 H         1 <0>         0.0442
     39 H5         -0.3999   -0.4441    0.7694 H         1 <0>         0.0672
     40 H6         -0.2270    1.2327    1.3408 H         1 <0>         0.0621
     41 H7         -0.8428   -1.5740   -0.5333 H         1 <0>         0.1146
     42 H8         -0.7127   -3.2270   -2.3519 H         1 <0>         0.1114
     43 H9          0.5247   -0.1693   -5.0562 H         1 <0>         0.1002
     44 H10         0.3874    1.4939   -3.2474 H         1 <0>         0.1111
     45 H11         0.1041   -3.8100   -4.4983 H         1 <0>         0.0959
     46 H12        -4.4367   -0.1634   -5.2988 H         1 <0>         0.1423
     47 H13        -6.4215   -0.2202   -6.7499 H         1 <0>         0.1356
     48 H14        -6.5827   -1.8729   -8.5640 H         1 <0>         0.1403
     49 H15        -4.7703   -3.4815   -8.9504 H         1 <0>         0.1411
     50 H16         5.0411   -3.8741   -5.3538 H         1 <0>         0.1444
     51 H17         6.8584   -3.2632   -6.8941 H         1 <0>         0.1377
     52 H18         6.4179   -1.7738   -8.8008 H         1 <0>         0.1418
     53 H19         4.1659   -0.8811   -9.1919 H         1 <0>         0.1425
     54 H20        -0.1988   -0.6173   -7.9383 H         1 <0>         0.3995
     55 H21        -0.6841   -5.1086   -7.7899 H         1 <0>         0.4095
@<TRIPOS>BOND
     1    1    2 1
     2    1   35 1
     3    1   36 1
     4    1   37 1
     5    2    3 1
     6    2    4 1
     7    3   38 1
     8    3   39 1
     9    3   40 1
    10    4    9 ar
    11    4    5 ar
    12    5    6 ar
    13    5   41 1
    14    6    7 ar
    15    6   42 1
    16    7    8 ar
    17    7   10 1
    18    8    9 ar
    19    8   43 1
    20    9   44 1
    21   10   11 1
    22   10   23 1
    23   10   45 1
    24   11   21 2
    25   11   12 1
    26   12   13 2
    27   12   14 1
    28   14   19 ar
    29   14   15 ar
    30   15   16 ar
    31   15   46 1
    32   16   17 ar
    33   16   47 1
    34   17   18 ar
    35   17   48 1
    36   18   19 ar
    37   18   49 1
    38   19   20 1
    39   20   21 1
    40   21   22 1
    41   22   55 1
    42   23   33 2
    43   23   24 1
    44   24   25 2
    45   24   26 1
    46   26   31 ar
    47   26   27 ar
    48   27   28 ar
    49   27   50 1
    50   28   29 ar
    51   28   51 1
    52   29   30 ar
    53   29   52 1
    54   30   31 ar
    55   30   53 1
    56   31   32 1
    57   32   33 1
    58   33   34 1
    59   34   54 1
@<TRIPOS>MOLECULE
ZINC04062977
   54    58     0     0     0
SMALL
USER_CHARGES

@<TRIPOS>ATOM
      1 C1          0.3982    2.3514   -0.9520 C.3       1 <0>         0.1024
      2 N1          0.0674    0.9499   -0.6824 N.pl3     1 <0>        -0.6482
      3 C2         -0.2444    0.5206    0.6832 C.3       1 <0>         0.1021
      4 C3          0.0492    0.0232   -1.7272 C.ar      1 <0>         0.1865
      5 C4         -0.2699   -1.3049   -1.4742 C.ar      1 <0>        -0.1885
      6 C5         -0.2874   -2.2186   -2.5096 C.ar      1 <0>        -0.0764
      7 C6          0.0128   -1.8128   -3.7971 C.ar      1 <0>        -0.0419
      8 C7          0.3309   -0.4914   -4.0524 C.ar      1 <0>        -0.0416
      9 C8          0.3446    0.4286   -3.0226 C.ar      1 <0>        -0.1881
     10 C9         -0.0064   -2.8128   -4.9243 C.3       1 <0>         0.1370
     11 C10         1.1061   -2.5006   -5.8917 C.2       1 <0>        -0.2181
     12 C11         0.8685   -1.7038   -6.9775 C.2       1 <0>         0.2227
     13 C12         1.9883   -1.4296   -7.8915 C.ar      1 <0>        -0.1698
     14 C13         1.8170   -0.6240   -9.0193 C.ar      1 <0>        -0.0713
     15 C14         2.8858   -0.3865   -9.8546 C.ar      1 <0>        -0.1410
     16 C15         4.1266   -0.9429   -9.5798 C.ar      1 <0>        -0.0749
     17 C16         4.3091   -1.7405   -8.4698 C.ar      1 <0>        -0.1335
     18 C17         3.2443   -1.9923   -7.6141 C.ar      1 <0>         0.1594
     19 O1          3.4061   -2.7700   -6.5218 O.3       1 <0>        -0.2821
     20 C18         2.3916   -3.0216   -5.6792 C.2       1 <0>         0.5271
     21 O2          2.5915   -3.7261   -4.7051 O.2       1 <0>        -0.4640
     22 O3         -0.3592   -1.1838   -7.2046 O.3       1 <0>        -0.4061
     23 C19        -1.3304   -2.7376   -5.6401 C.2       1 <0>        -0.4383
     24 C20        -1.6065   -3.5992   -6.6657 C.2       1 <0>         0.3432
     25 C21        -2.9133   -3.4843   -7.3317 C.ar      1 <0>        -0.1632
     26 C22        -3.2616   -4.3317   -8.3856 C.ar      1 <0>        -0.0454
     27 C23        -4.4931   -4.1983   -8.9875 C.ar      1 <0>        -0.1702
     28 C24        -5.3844   -3.2288   -8.5514 C.ar      1 <0>        -0.0867
     29 C25        -5.0526   -2.3855   -7.5120 C.ar      1 <0>        -0.1585
     30 C26        -3.8159   -2.5034   -6.8910 C.ar      1 <0>         0.1553
     31 O4         -3.4755   -1.6865   -5.8707 O.3       1 <0>        -0.3024
     32 C27        -2.2875   -1.7871   -5.2533 C.2       1 <0>         0.5158
     33 O5         -2.0313   -1.0285   -4.3346 O.2       1 <0>        -0.5076
     34 O6         -0.7049   -4.5286   -7.0564 O.3       1 <0>        -0.6578
     35 H1          1.4743    2.4957   -0.8558 H         1 <0>         0.0376
     36 H2          0.0859    2.6103   -1.9637 H         1 <0>         0.0650
     37 H3         -0.1194    2.9910   -0.2371 H         1 <0>         0.0558
     38 H4         -1.3158    0.6174    0.8588 H         1 <0>         0.0387
     39 H5          0.0526   -0.5201    0.8136 H         1 <0>         0.0653
     40 H6          0.2980    1.1449    1.3931 H         1 <0>         0.0555
     41 H7         -0.5037   -1.6227   -0.4688 H         1 <0>         0.1074
     42 H8         -0.5354   -3.2513   -2.3136 H         1 <0>         0.1079
     43 H9          0.5648   -0.1778   -5.0591 H         1 <0>         0.0994
     44 H10         0.5887    1.4613   -3.2234 H         1 <0>         0.1044
     45 H11         0.1328   -3.8163   -4.5221 H         1 <0>         0.0742
     46 H12         0.8519   -0.1901   -9.2353 H         1 <0>         0.1323
     47 H13         2.7574    0.2357  -10.7280 H         1 <0>         0.1323
     48 H14         4.9576   -0.7498  -10.2420 H         1 <0>         0.1363
     49 H15         5.2792   -2.1690   -8.2660 H         1 <0>         0.1420
     50 H16        -2.5692   -5.0869   -8.7270 H         1 <0>         0.1311
     51 H17        -4.7662   -4.8515   -9.8031 H         1 <0>         0.1190
     52 H18        -6.3474   -3.1334   -9.0308 H         1 <0>         0.1230
     53 H19        -5.7540   -1.6338   -7.1812 H         1 <0>         0.1276
     54 H20        -0.4135   -0.6362   -7.9997 H         1 <0>         0.3690
@<TRIPOS>BOND
     1    1    2 1
     2    1   35 1
     3    1   36 1
     4    1   37 1
     5    2    3 1
     6    2    4 1
     7    3   38 1
     8    3   39 1
     9    3   40 1
    10    4    9 ar
    11    4    5 ar
    12    5    6 ar
    13    5   41 1
    14    6    7 ar
    15    6   42 1
    16    7    8 ar
    17    7   10 1
    18    8    9 ar
    19    8   43 1
    20    9   44 1
    21   10   11 1
    22   10   23 1
    23   10   45 1
    24   11   20 1
    25   11   12 2
    26   12   13 1
    27   12   22 1
    28   13   18 ar
    29   13   14 ar
    30   14   15 ar
    31   14   46 1
    32   15   16 ar
    33   15   47 1
    34   16   17 ar
    35   16   48 1
    36   17   18 ar
    37   17   49 1
    38   18   19 1
    39   19   20 1
    40   20   21 2
    41   22   54 1
    42   23   32 1
    43   23   24 2
    44   24   25 1
    45   24   34 1
    46   25   30 ar
    47   25   26 ar
    48   26   27 ar
    49   26   50 1
    50   27   28 ar
    51   27   51 1
    52   28   29 ar
    53   28   52 1
    54   29   30 ar
    55   29   53 1
    56   30   31 1
    57   31   32 1
    58   32   33 2
@<TRIPOS>MOLECULE
ZINC04062977
   53    57     0     0     0
SMALL
USER_CHARGES

@<TRIPOS>ATOM
      1 C1          0.0196    2.4083   -1.0062 C.3       1 <0>         0.1074
      2 N1         -0.3045    1.0044   -0.7412 N.pl3     1 <0>        -0.6518
      3 C2         -0.7057    0.5866    0.6044 C.3       1 <0>         0.1086
      4 C3         -0.2311    0.0642   -1.7716 C.ar      1 <0>         0.1648
      5 C4         -0.5437   -1.2664   -1.5234 C.ar      1 <0>        -0.1948
      6 C5         -0.4705   -2.1933   -2.5445 C.ar      1 <0>        -0.0967
      7 C6         -0.0861   -1.7983   -3.8128 C.ar      1 <0>        -0.0078
      8 C7          0.2258   -0.4746   -4.0633 C.ar      1 <0>        -0.0200
      9 C8          0.1491    0.4586   -3.0481 C.ar      1 <0>        -0.1934
     10 C9         -0.0064   -2.8128   -4.9243 C.3       1 <0>         0.1691
     11 C10        -1.2667   -2.7549   -5.7486 C.2       1 <0>        -0.3903
     12 C11        -2.2612   -1.7972   -5.4586 C.2       1 <0>         0.4199
     13 O1         -2.1276   -1.0005   -4.5441 O.2       1 <0>        -0.5395
     14 C12        -3.4706   -1.7972   -6.3068 C.ar      1 <0>        -0.1925
     15 C13        -4.5048   -0.8877   -6.0952 C.ar      1 <0>        -0.0463
     16 C14        -5.6162   -0.9205   -6.9093 C.ar      1 <0>        -0.1844
     17 C15        -5.7062   -1.8525   -7.9326 C.ar      1 <0>        -0.0941
     18 C16        -4.6892   -2.7573   -8.1515 C.ar      1 <0>        -0.1662
     19 C17        -3.5602   -2.7400   -7.3419 C.ar      1 <0>         0.1664
     20 O2         -2.5524   -3.6159   -7.5389 O.3       1 <0>        -0.2805
     21 C18        -1.4499   -3.6209   -6.7792 C.2       1 <0>         0.4348
     22 O3         -0.4842   -4.5259   -7.0446 O.3       1 <0>        -0.6477
     23 C19         1.1811   -2.5062   -5.8000 C.2       1 <0>        -0.4234
     24 C20         2.4438   -3.0613   -5.5037 C.2       1 <0>         0.4057
     25 O4          2.6045   -3.7954   -4.5423 O.2       1 <0>        -0.5667
     26 C21         3.5636   -2.7186   -6.4041 C.ar      1 <0>        -0.2012
     27 C22         4.8458   -3.2204   -6.1903 C.ar      1 <0>        -0.0457
     28 C23         5.8631   -2.8768   -7.0541 C.ar      1 <0>        -0.1818
     29 C24         5.6138   -2.0367   -8.1293 C.ar      1 <0>        -0.0906
     30 C25         4.3491   -1.5342   -8.3508 C.ar      1 <0>        -0.1641
     31 C26         3.3100   -1.8692   -7.4916 C.ar      1 <0>         0.1660
     32 O5          2.0642   -1.3895   -7.6902 O.3       1 <0>        -0.2836
     33 C27         1.0414   -1.6980   -6.8831 C.2       1 <0>         0.4419
     34 O6         -0.1760   -1.1815   -7.1534 O.3       1 <0>        -0.6077
     35 H1          1.0833    2.5740   -0.8354 H         1 <0>         0.0315
     36 H2         -0.2239    2.6483   -2.0412 H         1 <0>         0.0647
     37 H3         -0.5593    3.0470   -0.3392 H         1 <0>         0.0480
     38 H4         -1.7885    0.6654    0.7016 H         1 <0>         0.0316
     39 H5         -0.4003   -0.4465    0.7703 H         1 <0>         0.0628
     40 H6         -0.2269    1.2301    1.3425 H         1 <0>         0.0477
     41 H7         -0.8433   -1.5756   -0.5329 H         1 <0>         0.0958
     42 H8         -0.7134   -3.2279   -2.3522 H         1 <0>         0.0988
     43 H9          0.5256   -0.1694   -5.0549 H         1 <0>         0.1108
     44 H10         0.3885    1.4931   -3.2454 H         1 <0>         0.0952
     45 H11         0.1039   -3.8102   -4.4987 H         1 <0>         0.0444
     46 H12        -4.4360   -0.1620   -5.2983 H         1 <0>         0.1241
     47 H13        -6.4206   -0.2178   -6.7496 H         1 <0>         0.1111
     48 H14        -6.5821   -1.8698   -8.5642 H         1 <0>         0.1153
     49 H15        -4.7702   -3.4788   -8.9510 H         1 <0>         0.1218
     50 H16         5.0412   -3.8740   -5.3530 H         1 <0>         0.1264
     51 H17         6.8587   -3.2629   -6.8929 H         1 <0>         0.1139
     52 H18         6.4186   -1.7733   -8.7996 H         1 <0>         0.1177
     53 H19         4.1666   -0.8806   -9.1910 H         1 <0>         0.1244
@<TRIPOS>BOND
     1    1    2 1
     2    1   35 1
     3    1   36 1
     4    1   37 1
     5    2    3 1
     6    2    4 1
     7    3   38 1
     8    3   39 1
     9    3   40 1
    10    4    9 ar
    11    4    5 ar
    12    5    6 ar
    13    5   41 1
    14    6    7 ar
    15    6   42 1
    16    7    8 ar
    17    7   10 1
    18    8    9 ar
    19    8   43 1
    20    9   44 1
    21   10   11 1
    22   10   23 1
    23   10   45 1
    24   11   21 2
    25   11   12 1
    26   12   13 2
    27   12   14 1
    28   14   19 ar
    29   14   15 ar
    30   15   16 ar
    31   15   46 1
    32   16   17 ar
    33   16   47 1
    34   17   18 ar
    35   17   48 1
    36   18   19 ar
    37   18   49 1
    38   19   20 1
    39   20   21 1
    40   21   22 1
    41   23   33 2
    42   23   24 1
    43   24   25 2
    44   24   26 1
    45   26   31 ar
    46   26   27 ar
    47   27   28 ar
    48   27   50 1
    49   28   29 ar
    50   28   51 1
    51   29   30 ar
    52   29   52 1
    53   30   31 ar
    54   30   53 1
    55   31   32 1
    56   32   33 1
    57   33   34 1
@<TRIPOS>MOLECULE
ZINC04179475
   49    53     0     0     0
SMALL
USER_CHARGES

@<TRIPOS>ATOM
      1 C1          0.2459    0.3242    0.9079 C.3       1 <0>         0.0364
      2 O1          0.0104   -1.0059    0.4414 O.3       1 <0>        -0.3320
      3 C2          0.6121   -1.3671   -0.7223 C.ar      1 <0>         0.0744
      4 C3          1.4173   -0.4620   -1.3984 C.ar      1 <0>        -0.2054
      5 C4          2.0283   -0.8319   -2.5809 C.ar      1 <0>        -0.1032
      6 C5          1.8374   -2.1027   -3.0910 C.ar      1 <0>         0.0066
      7 C6          1.0350   -3.0065   -2.4194 C.ar      1 <0>        -0.0323
      8 C7          0.4268   -2.6435   -1.2333 C.ar      1 <0>        -0.1532
      9 C8          2.5046   -2.5033   -4.3815 C.3       1 <0>         0.1641
     10 C9          3.7763   -3.2529   -4.0779 C.2       1 <0>        -0.3735
     11 C10         4.5901   -3.6656   -5.0966 C.2       1 <0>         0.3316
     12 C11         5.8197   -4.3936   -4.7468 C.ar      1 <0>        -0.1416
     13 C12         6.6966   -4.8437   -5.7362 C.ar      1 <0>        -0.0519
     14 C13         7.8396   -5.5218   -5.3753 C.ar      1 <0>        -0.1776
     15 C14         8.1209   -5.7578   -4.0376 C.ar      1 <0>        -0.1033
     16 C15         7.2633   -5.3191   -3.0508 C.ar      1 <0>        -0.1616
     17 C16         6.1052   -4.6329   -3.3932 C.ar      1 <0>         0.1543
     18 O2          5.2551   -4.1950   -2.4394 O.3       1 <0>        -0.3057
     19 C17         4.1333   -3.5253   -2.7485 C.2       1 <0>         0.5111
     20 O3          3.4022   -3.1477   -1.8496 O.2       1 <0>        -0.5286
     21 O4          4.2736   -3.4125   -6.3870 O.3       1 <0>        -0.6698
     22 C18         1.5767   -3.3883   -5.1732 C.2       1 <0>        -0.4160
     23 C19         1.6509   -4.7481   -5.0473 C.2       1 <0>         0.3409
     24 C20         0.7227   -5.5672   -5.8422 C.ar      1 <0>        -0.1541
     25 C21         0.7428   -6.9613   -5.7625 C.ar      1 <0>        -0.0458
     26 C22        -0.1399   -7.6990   -6.5196 C.ar      1 <0>        -0.1754
     27 C23        -1.0449   -7.0637   -7.3574 C.ar      1 <0>        -0.0981
     28 C24        -1.0749   -5.6879   -7.4457 C.ar      1 <0>        -0.1605
     29 C25        -0.1936   -4.9251   -6.6903 C.ar      1 <0>         0.1519
     30 O5         -0.2105   -3.5766   -6.7637 O.3       1 <0>        -0.3069
     31 C26         0.6290   -2.8205   -6.0383 C.2       1 <0>         0.5004
     32 O6          0.5696   -1.6074   -6.1377 O.2       1 <0>        -0.5528
     33 O7          2.5510   -5.3227   -4.2172 O.3       1 <0>        -0.6284
     34 H1          1.3137    0.4674    1.0735 H         1 <0>         0.0456
     35 H2         -0.1052    1.0380    0.1627 H         1 <0>         0.0446
     36 H3         -0.2912    0.4816    1.8432 H         1 <0>         0.0818
     37 H4          1.5662    0.5310   -1.0007 H         1 <0>         0.1027
     38 H5          2.6552   -0.1276   -3.1076 H         1 <0>         0.1037
     39 H6          0.8871   -3.9985   -2.8201 H         1 <0>         0.1194
     40 H7         -0.1963   -3.3513   -0.7068 H         1 <0>         0.1044
     41 H8          2.7387   -1.6109   -4.9618 H         1 <0>         0.0469
     42 H9          6.4794   -4.6613   -6.7783 H         1 <0>         0.1267
     43 H10         8.5200   -5.8718   -6.1374 H         1 <0>         0.1112
     44 H11         9.0202   -6.2907   -3.7662 H         1 <0>         0.1146
     45 H12         7.4919   -5.5091   -2.0125 H         1 <0>         0.1206
     46 H13         1.4467   -7.4580   -5.1112 H         1 <0>         0.1297
     47 H14        -0.1272   -8.7773   -6.4611 H         1 <0>         0.1136
     48 H15        -1.7324   -7.6525   -7.9465 H         1 <0>         0.1171
     49 H16        -1.7832   -5.2039   -8.1017 H         1 <0>         0.1232
@<TRIPOS>BOND
     1    1    2 1
     2    1   34 1
     3    1   35 1
     4    1   36 1
     5    2    3 1
     6    3    8 ar
     7    3    4 ar
     8    4    5 ar
     9    4   37 1
    10    5    6 ar
    11    5   38 1
    12    6    7 ar
    13    6    9 1
    14    7    8 ar
    15    7   39 1
    16    8   40 1
    17    9   10 1
    18    9   22 1
    19    9   41 1
    20   10   19 1
    21   10   11 2
    22   11   12 1
    23   11   21 1
    24   12   17 ar
    25   12   13 ar
    26   13   14 ar
    27   13   42 1
    28   14   15 ar
    29   14   43 1
    30   15   16 ar
    31   15   44 1
    32   16   17 ar
    33   16   45 1
    34   17   18 1
    35   18   19 1
    36   19   20 2
    37   22   31 1
    38   22   23 2
    39   23   24 1
    40   23   33 1
    41   24   29 ar
    42   24   25 ar
    43   25   26 ar
    44   25   46 1
    45   26   27 ar
    46   26   47 1
    47   27   28 ar
    48   27   48 1
    49   28   29 ar
    50   28   49 1
    51   29   30 1
    52   30   31 1
    53   31   32 2
@<TRIPOS>MOLECULE
ZINC04179475
   50    54     0     0     0
SMALL
USER_CHARGES

@<TRIPOS>ATOM
      1 C1          0.7252    0.2742   -0.2523 C.3       1 <0>         0.0326
      2 O1          0.4357   -1.0860    0.0762 O.3       1 <0>        -0.3274
      3 C2         -0.8713   -1.4583    0.0664 C.ar      1 <0>         0.0967
      4 C3         -1.8544   -0.5349   -0.2585 C.ar      1 <0>        -0.1995
      5 C4         -3.1822   -0.9160   -0.2682 C.ar      1 <0>        -0.0842
      6 C5         -3.5318   -2.2163    0.0459 C.ar      1 <0>        -0.0241
      7 C6         -2.5539   -3.1384    0.3704 C.ar      1 <0>        -0.0494
      8 C7         -1.2242   -2.7639    0.3756 C.ar      1 <0>        -0.1461
      9 C8         -4.9811   -2.6292    0.0350 C.3       1 <0>         0.1353
     10 C9         -5.2349   -3.6016    1.1579 C.2       1 <0>        -0.2230
     11 C10        -5.1475   -4.9478    0.9335 C.2       1 <0>         0.2261
     12 C11        -5.4045   -5.8547    2.0631 C.ar      1 <0>        -0.1711
     13 C12        -5.3322   -7.2403    1.9053 C.ar      1 <0>        -0.0705
     14 C13        -5.5780   -8.0617    2.9831 C.ar      1 <0>        -0.1406
     15 C14        -5.8959   -7.5185    4.2194 C.ar      1 <0>        -0.0737
     16 C15        -5.9710   -6.1521    4.3885 C.ar      1 <0>        -0.1334
     17 C16        -5.7263   -5.3058    3.3146 C.ar      1 <0>         0.1600
     18 O2         -5.7943   -3.9651    3.4632 O.3       1 <0>        -0.2814
     19 C17        -5.5562   -3.1295    2.4397 C.2       1 <0>         0.5278
     20 O3         -5.6260   -1.9275    2.6279 O.2       1 <0>        -0.4647
     21 O4         -4.8346   -5.4311   -0.2904 O.3       1 <0>        -0.4064
     22 C18        -5.3063   -3.2862   -1.2817 C.2       1 <0>        -0.4407
     23 C19        -6.5850   -3.6904   -1.5501 C.2       1 <0>         0.3455
     24 C20        -6.8499   -4.3266   -2.8499 C.ar      1 <0>        -0.1639
     25 C21        -8.1321   -4.7629   -3.1904 C.ar      1 <0>        -0.0448
     26 C22        -8.3467   -5.3543   -4.4154 C.ar      1 <0>        -0.1696
     27 C23        -7.2974   -5.5169   -5.3081 C.ar      1 <0>        -0.0858
     28 C24        -6.0265   -5.0908   -4.9841 C.ar      1 <0>        -0.1579
     29 C25        -5.7884   -4.4915   -3.7539 C.ar      1 <0>         0.1551
     30 O5         -4.5502   -4.0673   -3.4212 O.3       1 <0>        -0.3009
     31 C26        -4.2997   -3.4808   -2.2397 C.2       1 <0>         0.5169
     32 O6         -3.1654   -3.1117   -1.9903 O.2       1 <0>        -0.5115
     33 O7         -7.5762   -3.5110   -0.6476 O.3       1 <0>        -0.6557
     34 H1          1.8020    0.4376   -0.2071 H         1 <0>         0.0897
     35 H2          0.3671    0.4890   -1.2591 H         1 <0>         0.0501
     36 H3          0.2275    0.9336    0.4588 H         1 <0>         0.0491
     37 H4         -1.5819    0.4811   -0.5032 H         1 <0>         0.1135
     38 H5         -3.9479   -0.1975   -0.5210 H         1 <0>         0.1122
     39 H6         -2.8296   -4.1534    0.6157 H         1 <0>         0.1078
     40 H7         -0.4604   -3.4856    0.6248 H         1 <0>         0.1131
     41 H8         -5.6106   -1.7492    0.1672 H         1 <0>         0.0767
     42 H9         -5.0852   -7.6654    0.9437 H         1 <0>         0.1327
     43 H10        -5.5234   -9.1338    2.8651 H         1 <0>         0.1328
     44 H11        -6.0867   -8.1724    5.0575 H         1 <0>         0.1368
     45 H12        -6.2200   -5.7401    5.3553 H         1 <0>         0.1424
     46 H13        -8.9505   -4.6377   -2.4969 H         1 <0>         0.1314
     47 H14        -9.3368   -5.6934   -4.6824 H         1 <0>         0.1195
     48 H15        -7.4774   -5.9820   -6.2660 H         1 <0>         0.1236
     49 H16        -5.2168   -5.2231   -5.6864 H         1 <0>         0.1282
     50 H17        -4.8006   -6.3964   -0.3352 H         1 <0>         0.3704
@<TRIPOS>BOND
     1    1    2 1
     2    1   34 1
     3    1   35 1
     4    1   36 1
     5    2    3 1
     6    3    8 ar
     7    3    4 ar
     8    4    5 ar
     9    4   37 1
    10    5    6 ar
    11    5   38 1
    12    6    7 ar
    13    6    9 1
    14    7    8 ar
    15    7   39 1
    16    8   40 1
    17    9   10 1
    18    9   22 1
    19    9   41 1
    20   10   19 1
    21   10   11 2
    22   11   12 1
    23   11   21 1
    24   12   17 ar
    25   12   13 ar
    26   13   14 ar
    27   13   42 1
    28   14   15 ar
    29   14   43 1
    30   15   16 ar
    31   15   44 1
    32   16   17 ar
    33   16   45 1
    34   17   18 1
    35   18   19 1
    36   19   20 2
    37   21   50 1
    38   22   31 1
    39   22   23 2
    40   23   24 1
    41   23   33 1
    42   24   29 ar
    43   24   25 ar
    44   25   26 ar
    45   25   46 1
    46   26   27 ar
    47   26   47 1
    48   27   28 ar
    49   27   48 1
    50   28   29 ar
    51   28   49 1
    52   29   30 1
    53   30   31 1
    54   31   32 2
@<TRIPOS>MOLECULE
ZINC04179475
   51    55     0     0     0
SMALL
USER_CHARGES
2-hydroxy-3-[(2-hydroxy-4-oxo-chromen-3-yl)-(4-methoxyphenyl)methyl]chromen-4-one
@<TRIPOS>ATOM
      1 C1          0.7721    5.8452   -5.6177 C.3       1 <0>         0.0265
      2 O1          2.1673    5.8950   -5.3129 O.3       1 <0>        -0.3217
      3 C2          2.5101    5.9551   -3.9993 C.ar      1 <0>         0.1191
      4 C3          3.8469    6.0058   -3.6316 C.ar      1 <0>        -0.1525
      5 C4          4.1928    6.0672   -2.2956 C.ar      1 <0>        -0.0800
      6 C5          3.2080    6.0783   -1.3251 C.ar      1 <0>        -0.0782
      7 C6          1.8752    6.0222   -1.6887 C.ar      1 <0>        -0.0353
      8 C7          1.5239    5.9663   -3.0236 C.ar      1 <0>        -0.2056
      9 C8          3.5881    6.1454    0.1316 C.3       1 <0>         0.1214
     10 C9          4.1245    4.8080    0.5729 C.2       1 <0>        -0.3068
     11 C10         3.7021    3.6261   -0.0713 C.2       1 <0>         0.4390
     12 O2          2.9017    3.6564   -0.9919 O.2       1 <0>        -0.4180
     13 C11         4.2679    2.3504    0.4129 C.ar      1 <0>        -0.2068
     14 C12         3.9095    1.1331   -0.1627 C.ar      1 <0>        -0.0315
     15 C13         4.4606   -0.0348    0.3182 C.ar      1 <0>        -0.1463
     16 C14         5.3622   -0.0007    1.3717 C.ar      1 <0>        -0.0661
     17 C15         5.7280    1.1982    1.9459 C.ar      1 <0>        -0.1399
     18 C16         5.1838    2.3867    1.4751 C.ar      1 <0>         0.1459
     19 O3          5.5249    3.5711    2.0250 O.3       1 <0>        -0.2652
     20 C17         5.0176    4.7327    1.5939 C.2       1 <0>         0.3555
     21 O4          5.4094    5.8747    2.1975 O.3       1 <0>        -0.4476
     22 C18         2.3734    6.4950    0.9521 C.2       1 <0>        -0.3210
     23 C19         1.3184    5.5684    1.0890 C.2       1 <0>         0.4266
     24 O5          1.3619    4.4736    0.5520 O.2       1 <0>        -0.4353
     25 C20         0.1589    5.9769    1.9079 C.ar      1 <0>        -0.2161
     26 C21        -0.9292    5.1278    2.0995 C.ar      1 <0>        -0.0320
     27 C22        -1.9911    5.5470    2.8712 C.ar      1 <0>        -0.1451
     28 C23        -1.9785    6.8056    3.4539 C.ar      1 <0>        -0.0615
     29 C24        -0.9072    7.6542    3.2717 C.ar      1 <0>        -0.1386
     30 C25         0.1729    7.2502    2.4968 C.ar      1 <0>         0.1503
     31 O6          1.2320    8.0648    2.3059 O.3       1 <0>        -0.2628
     32 C26         2.2898    7.7024    1.5694 C.2       1 <0>         0.3728
     33 O7          3.3117    8.5732    1.4307 O.3       1 <0>        -0.4426
     34 H1          0.6365    5.7994   -6.7083 H         1 <0>         0.0984
     35 H2          0.2785    6.7461   -5.2244 H         1 <0>         0.0529
     36 H3          0.3274    4.9518   -5.1550 H         1 <0>         0.0545
     37 H4          4.6165    5.9968   -4.3893 H         1 <0>         0.1237
     38 H5          5.2333    6.1071   -2.0089 H         1 <0>         0.1191
     39 H6          1.1079    6.0261   -0.9286 H         1 <0>         0.1129
     40 H7          0.4826    5.9270   -3.3073 H         1 <0>         0.1187
     41 H8          4.3607    6.9154    0.2739 H         1 <0>         0.0996
     42 H9          3.2047    1.1051   -0.9806 H         1 <0>         0.1418
     43 H10         4.1860   -0.9810   -0.1242 H         1 <0>         0.1350
     44 H11         5.7847   -0.9225    1.7436 H         1 <0>         0.1395
     45 H12         6.4338    1.2131    2.7633 H         1 <0>         0.1401
     46 H13        -0.9400    4.1474    1.6466 H         1 <0>         0.1428
     47 H14        -2.8368    4.8926    3.0232 H         1 <0>         0.1368
     48 H15        -2.8161    7.1240    4.0568 H         1 <0>         0.1416
     49 H16        -0.9078    8.6319    3.7305 H         1 <0>         0.1427
     50 H17         3.2666    9.5568    1.9212 H         1 <0>         0.4512
     51 H18         6.1316    5.8389    3.0264 H         1 <0>         0.4478
@<TRIPOS>BOND
     1    1    2 1
     2    1   34 1
     3    1   35 1
     4    1   36 1
     5    2    3 1
     6    3    8 ar
     7    3    4 ar
     8    4    5 ar
     9    4   37 1
    10    5    6 ar
    11    5   38 1
    12    6    7 ar
    13    6    9 1
    14    7    8 ar
    15    7   39 1
    16    8   40 1
    17    9   10 1
    18    9   22 1
    19    9   41 1
    20   10   20 2
    21   10   11 1
    22   11   12 2
    23   11   13 1
    24   13   18 ar
    25   13   14 ar
    26   14   15 ar
    27   14   42 1
    28   15   16 ar
    29   15   43 1
    30   16   17 ar
    31   16   44 1
    32   17   18 ar
    33   17   45 1
    34   18   19 1
    35   19   20 1
    36   20   21 1
    37   21   51 1
    38   22   32 2
    39   22   23 1
    40   23   24 2
    41   23   25 1
    42   25   30 ar
    43   25   26 ar
    44   26   27 ar
    45   26   46 1
    46   27   28 ar
    47   27   47 1
    48   28   29 ar
    49   28   48 1
    50   29   30 ar
    51   29   49 1
    52   30   31 1
    53   31   32 1
    54   32   33 1
    55   33   50 1
@<TRIPOS>MOLECULE
ZINC04746497
   45    49     0     0     0
SMALL
USER_CHARGES

@<TRIPOS>ATOM
      1 C1         -0.3386    0.6347    0.1765 C.ar      1 <0>        -0.1632
      2 C2          0.6906    1.4825    0.5411 C.ar      1 <0>        -0.1297
      3 C3          2.0011    1.0482    0.4720 C.ar      1 <0>        -0.1369
      4 C4          2.2824   -0.2340    0.0387 C.ar      1 <0>         0.0347
      5 C5          1.2531   -1.0821   -0.3250 C.ar      1 <0>        -0.0670
      6 C6         -0.0573   -0.6473   -0.2573 C.ar      1 <0>        -0.1340
      7 C7          3.7112   -0.7071   -0.0376 C.3       1 <0>         0.1600
      8 C8          4.0495   -1.4863    1.2072 C.2       1 <0>        -0.3730
      9 C9          5.3168   -1.9652    1.3944 C.2       1 <0>         0.3315
     10 C10         5.5952   -2.7196    2.6264 C.ar      1 <0>        -0.1415
     11 C11         6.8669   -3.2368    2.8825 C.ar      1 <0>        -0.0519
     12 C12         7.0947   -3.9381    4.0456 C.ar      1 <0>        -0.1775
     13 C13         6.0689   -4.1312    4.9593 C.ar      1 <0>        -0.1033
     14 C14         4.8086   -3.6261    4.7184 C.ar      1 <0>        -0.1616
     15 C15         4.5576   -2.9155    3.5517 C.ar      1 <0>         0.1541
     16 O1          3.3294   -2.4128    3.3007 O.3       1 <0>        -0.3057
     17 C16         3.0670   -1.7186    2.1818 C.2       1 <0>         0.5106
     18 O2          1.9429   -1.2822    2.0055 O.2       1 <0>        -0.5274
     19 O3          6.2849   -1.7520    0.4744 O.3       1 <0>        -0.6699
     20 C17         3.8838   -1.5910   -1.2459 C.2       1 <0>        -0.4149
     21 C18         3.7434   -2.9465   -1.1308 C.2       1 <0>         0.3411
     22 C19         3.9220   -3.7647   -2.3404 C.ar      1 <0>        -0.1540
     23 C20         3.7927   -5.1545   -2.2957 C.ar      1 <0>        -0.0459
     24 C21         3.9656   -5.8914   -3.4461 C.ar      1 <0>        -0.1755
     25 C22         4.2667   -5.2596   -4.6439 C.ar      1 <0>        -0.0982
     26 C23         4.3976   -3.8881   -4.7017 C.ar      1 <0>        -0.1605
     27 C24         4.2267   -3.1261   -3.5531 C.ar      1 <0>         0.1518
     28 O4          4.3500   -1.7817   -3.5923 O.3       1 <0>        -0.3069
     29 C25         4.1836   -1.0262   -2.4949 C.2       1 <0>         0.5000
     30 O5          4.3012    0.1834   -2.5852 O.2       1 <0>        -0.5528
     31 O6          3.4496   -3.5178    0.0593 O.3       1 <0>        -0.6285
     32 H1         -1.3628    0.9725    0.2348 H         1 <0>         0.0926
     33 H2          0.4708    2.4842    0.8796 H         1 <0>         0.0946
     34 H3          2.8052    1.7108    0.7562 H         1 <0>         0.0994
     35 H4          1.4729   -2.0837   -0.6639 H         1 <0>         0.1110
     36 H5         -0.8614   -1.3097   -0.5418 H         1 <0>         0.0937
     37 H6          4.3750    0.1535   -0.1191 H         1 <0>         0.0472
     38 H7          7.6669   -3.0880    2.1724 H         1 <0>         0.1268
     39 H8          8.0767   -4.3400    4.2472 H         1 <0>         0.1113
     40 H9          6.2591   -4.6828    5.8681 H         1 <0>         0.1148
     41 H10         4.0172   -3.7831    5.4363 H         1 <0>         0.1207
     42 H11         3.5587   -5.6485   -1.3642 H         1 <0>         0.1296
     43 H12         3.8668   -6.9665   -3.4156 H         1 <0>         0.1136
     44 H13         4.4002   -5.8477   -5.5398 H         1 <0>         0.1172
     45 H14         4.6329   -3.4068   -5.6394 H         1 <0>         0.1233
@<TRIPOS>BOND
     1    1    6 ar
     2    1    2 ar
     3    1   32 1
     4    2    3 ar
     5    2   33 1
     6    3    4 ar
     7    3   34 1
     8    4    5 ar
     9    4    7 1
    10    5    6 ar
    11    5   35 1
    12    6   36 1
    13    7    8 1
    14    7   20 1
    15    7   37 1
    16    8   17 1
    17    8    9 2
    18    9   10 1
    19    9   19 1
    20   10   15 ar
    21   10   11 ar
    22   11   12 ar
    23   11   38 1
    24   12   13 ar
    25   12   39 1
    26   13   14 ar
    27   13   40 1
    28   14   15 ar
    29   14   41 1
    30   15   16 1
    31   16   17 1
    32   17   18 2
    33   20   29 1
    34   20   21 2
    35   21   22 1
    36   21   31 1
    37   22   27 ar
    38   22   23 ar
    39   23   24 ar
    40   23   42 1
    41   24   25 ar
    42   24   43 1
    43   25   26 ar
    44   25   44 1
    45   26   27 ar
    46   26   45 1
    47   27   28 1
    48   28   29 1
    49   29   30 2
@<TRIPOS>MOLECULE
ZINC04746497
   46    50     0     0     0
SMALL
USER_CHARGES

@<TRIPOS>ATOM
      1 C1         -0.3654    0.5690   -0.0496 C.ar      1 <0>        -0.1455
      2 C2          0.6374    1.4622    0.2777 C.ar      1 <0>        -0.1187
      3 C3          1.9567    1.0492    0.2818 C.ar      1 <0>        -0.1214
      4 C4          2.2729   -0.2571   -0.0410 C.ar      1 <0>         0.0080
      5 C5          1.2700   -1.1506   -0.3675 C.ar      1 <0>        -0.0861
      6 C6         -0.0491   -0.7373   -0.3730 C.ar      1 <0>        -0.1222
      7 C7          3.7112   -0.7071   -0.0376 C.3       1 <0>         0.1307
      8 C8          3.9361   -1.6792   -1.1670 C.2       1 <0>        -0.2225
      9 C9          3.8150   -3.0240   -0.9499 C.2       1 <0>         0.2266
     10 C10         4.0449   -3.9305   -2.0856 C.ar      1 <0>        -0.1711
     11 C11         3.9376   -5.3148   -1.9356 C.ar      1 <0>        -0.0706
     12 C12         4.1586   -6.1359   -3.0189 C.ar      1 <0>        -0.1407
     13 C13         4.4861   -5.5939   -4.2532 C.ar      1 <0>        -0.0738
     14 C14         4.5957   -4.2288   -4.4147 C.ar      1 <0>        -0.1334
     15 C15         4.3764   -3.3828   -3.3351 C.ar      1 <0>         0.1600
     16 O1          4.4782   -2.0435   -3.4763 O.3       1 <0>        -0.2813
     17 C16         4.2651   -1.2080   -2.4471 C.2       1 <0>         0.5276
     18 O2          4.3650   -0.0071   -2.6287 O.2       1 <0>        -0.4646
     19 O3          3.4940   -3.5062    0.2722 O.3       1 <0>        -0.4061
     20 C17         4.0238   -1.3800    1.2741 C.2       1 <0>        -0.4403
     21 C18         5.2927   -1.8179    1.5360 C.2       1 <0>         0.3456
     22 C19         5.5455   -2.4683    2.8312 C.ar      1 <0>        -0.1639
     23 C20         6.8173   -2.9389    3.1649 C.ar      1 <0>        -0.0448
     24 C21         7.0208   -3.5427    4.3857 C.ar      1 <0>        -0.1695
     25 C22         5.9704   -3.6841    5.2808 C.ar      1 <0>        -0.0857
     26 C23         4.7097   -3.2242    4.9635 C.ar      1 <0>        -0.1577
     27 C24         4.4831   -2.6117    3.7377 C.ar      1 <0>         0.1549
     28 O4          3.2549   -2.1544    3.4115 O.3       1 <0>        -0.3008
     29 C25         3.0156   -1.5548    2.2343 C.2       1 <0>         0.5165
     30 O5          1.8902   -1.1557    1.9908 O.2       1 <0>        -0.5106
     31 O6          6.2853   -1.6582    0.6313 O.3       1 <0>        -0.6556
     32 H1         -1.3965    0.8904   -0.0485 H         1 <0>         0.1041
     33 H2          0.3903    2.4829    0.5300 H         1 <0>         0.1063
     34 H3          2.7402    1.7473    0.5369 H         1 <0>         0.1082
     35 H4          1.5171   -2.1712   -0.6201 H         1 <0>         0.0998
     36 H5         -0.8327   -1.4353   -0.6284 H         1 <0>         0.1029
     37 H6          4.3626    0.1572   -0.1669 H         1 <0>         0.0772
     38 H7          3.6831   -5.7390   -0.9756 H         1 <0>         0.1326
     39 H8          4.0769   -7.2069   -2.9069 H         1 <0>         0.1329
     40 H9          4.6572   -6.2474   -5.0957 H         1 <0>         0.1369
     41 H10         4.8519   -3.8177   -5.3800 H         1 <0>         0.1426
     42 H11         7.6364   -2.8302    2.4694 H         1 <0>         0.1315
     43 H12         8.0028   -3.9083    4.6474 H         1 <0>         0.1197
     44 H13         6.1417   -4.1593    6.2354 H         1 <0>         0.1238
     45 H14         3.8991   -3.3402    5.6677 H         1 <0>         0.1284
     46 H15         3.4354   -4.4706    0.3116 H         1 <0>         0.3701
@<TRIPOS>BOND
     1    1    6 ar
     2    1    2 ar
     3    1   32 1
     4    2    3 ar
     5    2   33 1
     6    3    4 ar
     7    3   34 1
     8    4    5 ar
     9    4    7 1
    10    5    6 ar
    11    5   35 1
    12    6   36 1
    13    7    8 1
    14    7   20 1
    15    7   37 1
    16    8   17 1
    17    8    9 2
    18    9   10 1
    19    9   19 1
    20   10   15 ar
    21   10   11 ar
    22   11   12 ar
    23   11   38 1
    24   12   13 ar
    25   12   39 1
    26   13   14 ar
    27   13   40 1
    28   14   15 ar
    29   14   41 1
    30   15   16 1
    31   16   17 1
    32   17   18 2
    33   19   46 1
    34   20   29 1
    35   20   21 2
    36   21   22 1
    37   21   31 1
    38   22   27 ar
    39   22   23 ar
    40   23   24 ar
    41   23   42 1
    42   24   25 ar
    43   24   43 1
    44   25   26 ar
    45   25   44 1
    46   26   27 ar
    47   26   45 1
    48   27   28 1
    49   28   29 1
    50   29   30 2
@<TRIPOS>MOLECULE
ZINC04746497
   47    51     0     0     0
SMALL
USER_CHARGES
2-hydroxy-3-[(2-hydroxy-4-oxo-chromen-3-yl)-phenyl-methyl]chromen-4-one
@<TRIPOS>ATOM
      1 C1          3.0937    2.5697    3.7201 C.ar      1 <0>        -0.1291
      2 C2          2.0541    3.4805    3.6969 C.ar      1 <0>        -0.1168
      3 C3          1.4666    3.8283    2.4949 C.ar      1 <0>        -0.1133
      4 C4          1.9185    3.2650    1.3162 C.ar      1 <0>        -0.0281
      5 C5          2.9543    2.3499    1.3400 C.ar      1 <0>        -0.0947
      6 C6          3.5452    2.0060    2.5415 C.ar      1 <0>        -0.1189
      7 C7          1.2777    3.6438    0.0059 C.3       1 <0>         0.1155
      8 C8          0.0352    2.8172   -0.2033 C.2       1 <0>        -0.3005
      9 C9         -0.2786    1.7693    0.6877 C.2       1 <0>         0.4421
     10 O1          0.4373    1.5118    1.6417 O.2       1 <0>        -0.4354
     11 C10        -1.5118    1.0004    0.4230 C.ar      1 <0>        -0.2078
     12 C11        -1.9023   -0.0515    1.2493 C.ar      1 <0>        -0.0312
     13 C12        -3.0603   -0.7434    0.9677 C.ar      1 <0>        -0.1461
     14 C13        -3.8333   -0.3959   -0.1303 C.ar      1 <0>        -0.0642
     15 C14        -3.4569    0.6430   -0.9549 C.ar      1 <0>        -0.1400
     16 C15        -2.2926    1.3526   -0.6881 C.ar      1 <0>         0.1488
     17 O2         -1.9062    2.3737   -1.4816 O.3       1 <0>        -0.2640
     18 C16        -0.7907    3.0772   -1.2502 C.2       1 <0>         0.3591
     19 O3         -0.4735    4.0841   -2.0912 O.3       1 <0>        -0.4462
     20 C17         2.2467    3.3880   -1.1196 C.2       1 <0>        -0.3183
     21 C18         2.5372    2.0666   -1.5196 C.2       1 <0>         0.4338
     22 O4          2.0178    1.1087   -0.9706 O.2       1 <0>        -0.4508
     23 C19         3.4959    1.8892   -2.6293 C.ar      1 <0>        -0.2164
     24 C20         3.8432    0.6217   -3.0924 C.ar      1 <0>        -0.0322
     25 C21         4.7413    0.4995   -4.1304 C.ar      1 <0>        -0.1448
     26 C22         5.2967    1.6299   -4.7114 C.ar      1 <0>        -0.0605
     27 C23         4.9603    2.8892   -4.2619 C.ar      1 <0>        -0.1384
     28 C24         4.0570    3.0334   -3.2162 C.ar      1 <0>         0.1518
     29 O5          3.7134    4.2566   -2.7610 O.3       1 <0>        -0.2620
     30 C25         2.8417    4.4284   -1.7593 C.2       1 <0>         0.3782
     31 O6          2.5464    5.6853   -1.3657 O.3       1 <0>        -0.4430
     32 H1          3.5529    2.2982    4.6592 H         1 <0>         0.1117
     33 H2          1.7011    3.9206    4.6178 H         1 <0>         0.1125
     34 H3          0.6544    4.5399    2.4768 H         1 <0>         0.1086
     35 H4          3.3044    1.9065    0.4196 H         1 <0>         0.1120
     36 H5          4.3572    1.2941    2.5596 H         1 <0>         0.1099
     37 H6          1.0096    4.7105    0.0237 H         1 <0>         0.0959
     38 H7         -1.3016   -0.3225    2.1049 H         1 <0>         0.1424
     39 H8         -3.3674   -1.5596    1.6048 H         1 <0>         0.1358
     40 H9         -4.7393   -0.9445   -0.3413 H         1 <0>         0.1402
     41 H10        -4.0665    0.9049   -1.8071 H         1 <0>         0.1407
     42 H11         3.4111   -0.2592   -2.6410 H         1 <0>         0.1428
     43 H12         5.0135   -0.4805   -4.4934 H         1 <0>         0.1372
     44 H13         5.9996    1.5226   -5.5244 H         1 <0>         0.1420
     45 H14         5.3984    3.7625   -4.7222 H         1 <0>         0.1432
     46 H15         3.0157    6.5437   -1.8686 H         1 <0>         0.4518
     47 H16        -1.1269    4.3133   -2.9459 H         1 <0>         0.4468
@<TRIPOS>BOND
     1    1    6 ar
     2    1    2 ar
     3    1   32 1
     4    2    3 ar
     5    2   33 1
     6    3    4 ar
     7    3   34 1
     8    4    5 ar
     9    4    7 1
    10    5    6 ar
    11    5   35 1
    12    6   36 1
    13    7    8 1
    14    7   20 1
    15    7   37 1
    16    8   18 2
    17    8    9 1
    18    9   10 2
    19    9   11 1
    20   11   16 ar
    21   11   12 ar
    22   12   13 ar
    23   12   38 1
    24   13   14 ar
    25   13   39 1
    26   14   15 ar
    27   14   40 1
    28   15   16 ar
    29   15   41 1
    30   16   17 1
    31   17   18 1
    32   18   19 1
    33   19   47 1
    34   20   30 2
    35   20   21 1
    36   21   22 2
    37   21   23 1
    38   23   28 ar
    39   23   24 ar
    40   24   25 ar
    41   24   42 1
    42   25   26 ar
    43   25   43 1
    44   26   27 ar
    45   26   44 1
    46   27   28 ar
    47   27   45 1
    48   28   29 1
    49   29   30 1
    50   30   31 1
    51   31   46 1
@<TRIPOS>MOLECULE
ZINC04746497
   45    49     0     0     0
SMALL
USER_CHARGES

@<TRIPOS>ATOM
      1 C1         -0.3774    0.5009    0.2297 C.ar      1 <0>        -0.1620
      2 C2          0.6291    1.3926    0.5501 C.ar      1 <0>        -0.1312
      3 C3          1.9522    1.0016    0.4638 C.ar      1 <0>        -0.1366
      4 C4          2.2687   -0.2812    0.0575 C.ar      1 <0>         0.0354
      5 C5          1.2622   -1.1732   -0.2621 C.ar      1 <0>        -0.0606
      6 C6         -0.0609   -0.7818   -0.1771 C.ar      1 <0>        -0.1356
      7 C7          3.7112   -0.7071   -0.0376 C.3       1 <0>         0.1634
      8 C8          4.0950   -1.4626    1.2086 C.2       1 <0>        -0.3921
      9 C9          3.1313   -1.7250    2.2049 C.2       1 <0>         0.4194
     10 O1          1.9759   -1.3515    2.0842 O.2       1 <0>        -0.5417
     11 C10         3.5767   -2.4702    3.4000 C.ar      1 <0>        -0.1926
     12 C11         2.6949   -2.7754    4.4348 C.ar      1 <0>        -0.0460
     13 C12         3.1503   -3.4729    5.5326 C.ar      1 <0>        -0.1836
     14 C13         4.4774   -3.8688    5.6084 C.ar      1 <0>        -0.0934
     15 C14         5.3591   -3.5726    4.5906 C.ar      1 <0>        -0.1657
     16 C15         4.9193   -2.8705    3.4752 C.ar      1 <0>         0.1663
     17 O2          5.7649   -2.5708    2.4669 O.3       1 <0>        -0.2798
     18 C16         5.3701   -1.9003    1.3773 C.2       1 <0>         0.4375
     19 O3          6.2762   -1.6447    0.4101 O.3       1 <0>        -0.6461
     20 C17         3.8942   -1.5963   -1.2405 C.2       1 <0>        -0.4262
     21 C18         4.2094   -1.0358   -2.4962 C.2       1 <0>         0.4063
     22 O4          4.3407    0.1689   -2.6384 O.2       1 <0>        -0.5666
     23 C19         4.3746   -1.9659   -3.6318 C.ar      1 <0>        -0.2014
     24 C20         4.6867   -1.5033   -4.9086 C.ar      1 <0>        -0.0454
     25 C21         4.8327   -2.4041   -5.9412 C.ar      1 <0>        -0.1813
     26 C22         4.6700   -3.7624   -5.7126 C.ar      1 <0>        -0.0899
     27 C23         4.3611   -4.2318   -4.4535 C.ar      1 <0>        -0.1637
     28 C24         4.2102   -3.3397   -3.3992 C.ar      1 <0>         0.1660
     29 O5          3.9089   -3.7773   -2.1585 O.3       1 <0>        -0.2830
     30 C25         3.7621   -2.9432   -1.1215 C.2       1 <0>         0.4435
     31 O6          3.4663   -3.4608    0.0895 O.3       1 <0>        -0.6072
     32 H1         -1.4112    0.8050    0.3014 H         1 <0>         0.0916
     33 H2          0.3818    2.3948    0.8675 H         1 <0>         0.0936
     34 H3          2.7386    1.6985    0.7134 H         1 <0>         0.0987
     35 H4          1.5095   -2.1753   -0.5798 H         1 <0>         0.1106
     36 H5         -0.8473   -1.4785   -0.4271 H         1 <0>         0.0927
     37 H6          4.3445    0.1744   -0.1376 H         1 <0>         0.0472
     38 H7          1.6615   -2.4670    4.3771 H         1 <0>         0.1249
     39 H8          2.4710   -3.7120    6.3375 H         1 <0>         0.1119
     40 H9          4.8239   -4.4144    6.4737 H         1 <0>         0.1160
     41 H10         6.3904   -3.8855    4.6604 H         1 <0>         0.1224
     42 H11         4.8129   -0.4458   -5.0879 H         1 <0>         0.1267
     43 H12         5.0746   -2.0508   -6.9328 H         1 <0>         0.1145
     44 H13         4.7860   -4.4595   -6.5293 H         1 <0>         0.1182
     45 H14         4.2363   -5.2915   -4.2872 H         1 <0>         0.1249
@<TRIPOS>BOND
     1    1    6 ar
     2    1    2 ar
     3    1   32 1
     4    2    3 ar
     5    2   33 1
     6    3    4 ar
     7    3   34 1
     8    4    5 ar
     9    4    7 1
    10    5    6 ar
    11    5   35 1
    12    6   36 1
    13    7    8 1
    14    7   20 1
    15    7   37 1
    16    8   18 2
    17    8    9 1
    18    9   10 2
    19    9   11 1
    20   11   16 ar
    21   11   12 ar
    22   12   13 ar
    23   12   38 1
    24   13   14 ar
    25   13   39 1
    26   14   15 ar
    27   14   40 1
    28   15   16 ar
    29   15   41 1
    30   16   17 1
    31   17   18 1
    32   18   19 1
    33   20   30 2
    34   20   21 1
    35   21   22 2
    36   21   23 1
    37   23   28 ar
    38   23   24 ar
    39   24   25 ar
    40   24   42 1
    41   25   26 ar
    42   25   43 1
    43   26   27 ar
    44   26   44 1
    45   27   28 ar
    46   27   45 1
    47   28   29 1
    48   29   30 1
    49   30   31 1
@<TRIPOS>MOLECULE
ZINC06576212
   43    47     0     0     0
SMALL
USER_CHARGES

@<TRIPOS>ATOM
      1 C1          1.7735    1.6421   -1.9153 C.ar      1 <0>        -0.1709
      2 C2          1.7230    2.1721   -0.6345 C.ar      1 <0>        -0.0791
      3 C3          1.8733    1.3598    0.4694 C.ar      1 <0>        -0.1574
      4 C4          2.0772   -0.0044    0.3032 C.ar      1 <0>         0.1625
      5 C5          2.1276   -0.5394   -0.9928 C.ar      1 <0>        -0.2076
      6 C6          1.9749    0.2916   -2.1009 C.ar      1 <0>        -0.0408
      7 C7          2.3455   -1.9924   -1.1456 C.2       1 <0>         0.4235
      8 O1          2.3989   -2.5136   -2.2477 O.2       1 <0>        -0.5335
      9 C8          2.4899   -2.7533    0.0336 C.2       1 <0>        -0.4720
     10 C9          2.4247   -2.1360    1.2421 C.2       1 <0>         0.4584
     11 O2          2.2272   -0.8179    1.3697 O.3       1 <0>        -0.2732
     12 O3          2.5652   -2.8812    2.3587 O.3       1 <0>        -0.6317
     13 C10         2.7144   -4.2413   -0.0468 C.3       1 <0>         0.1758
     14 C11         1.8931   -4.8131   -1.1736 C.2       1 <0>         0.0720
     15 C12         2.3535   -5.6024   -2.1607 C.2       1 <0>        -0.2406
     16 C13         1.2507   -5.9032   -2.9927 C.2       1 <0>        -0.2144
     17 C14         0.1823   -5.2798   -2.4642 C.2       1 <0>        -0.0728
     18 O4          0.5763   -4.6258   -1.3593 O.3       1 <0>        -0.1377
     19 C15         2.3002   -4.8827    1.2524 C.2       1 <0>        -0.2063
     20 C16         0.9667   -4.7803    1.7013 C.2       1 <0>         0.4489
     21 O5          0.1245   -4.1772    1.0562 O.2       1 <0>        -0.4514
     22 C17         0.6305   -5.4329    2.9831 C.ar      1 <0>        -0.1988
     23 C18        -0.6608   -5.3848    3.5047 C.ar      1 <0>        -0.0340
     24 C19        -0.9333   -6.0071    4.7037 C.ar      1 <0>        -0.1584
     25 C20         0.0703   -6.6768    5.3880 C.ar      1 <0>        -0.0720
     26 C21         1.3516   -6.7310    4.8817 C.ar      1 <0>        -0.1485
     27 C22         1.6463   -6.1103    3.6741 C.ar      1 <0>         0.1658
     28 O6          2.8934   -6.1517    3.1597 O.3       1 <0>        -0.2638
     29 C23         3.2073   -5.5680    1.9963 C.2       1 <0>         0.2995
     30 O7          4.4768   -5.6599    1.5470 O.3       1 <0>        -0.4202
     31 H1          1.6500    2.2899   -2.7705 H         1 <0>         0.1218
     32 H2          1.5647    3.2320   -0.5005 H         1 <0>         0.1260
     33 H3          1.8329    1.7835    1.4620 H         1 <0>         0.1305
     34 H4          2.0138   -0.1201   -3.0986 H         1 <0>         0.1310
     35 H5          3.7704   -4.4400   -0.2297 H         1 <0>         0.0877
     36 H6          3.3706   -5.9408   -2.2928 H         1 <0>         0.1320
     37 H7          1.2636   -6.5158   -3.8821 H         1 <0>         0.1317
     38 H8         -0.8226   -5.3043   -2.8591 H         1 <0>         0.1840
     39 H9         -1.4427   -4.8631    2.9730 H         1 <0>         0.1374
     40 H10        -1.9324   -5.9729    5.1124 H         1 <0>         0.1289
     41 H11        -0.1542   -7.1604    6.3272 H         1 <0>         0.1332
     42 H12         2.1252   -7.2550    5.4233 H         1 <0>         0.1360
     43 H13         5.0644   -6.1617    2.1283 H         1 <0>         0.3985
@<TRIPOS>BOND
     1    1    6 ar
     2    1    2 ar
     3    1   31 1
     4    2    3 ar
     5    2   32 1
     6    3    4 ar
     7    3   33 1
     8    4   11 1
     9    4    5 ar
    10    5    6 ar
    11    5    7 1
    12    6   34 1
    13    7    8 2
    14    7    9 1
    15    9   10 2
    16    9   13 1
    17   10   11 1
    18   10   12 1
    19   13   14 1
    20   13   19 1
    21   13   35 1
    22   14   18 1
    23   14   15 2
    24   15   16 1
    25   15   36 1
    26   16   17 2
    27   16   37 1
    28   17   18 1
    29   17   38 1
    30   19   29 2
    31   19   20 1
    32   20   21 2
    33   20   22 1
    34   22   27 ar
    35   22   23 ar
    36   23   24 ar
    37   23   39 1
    38   24   25 ar
    39   24   40 1
    40   25   26 ar
    41   25   41 1
    42   26   27 ar
    43   26   42 1
    44   27   28 1
    45   28   29 1
    46   29   30 1
    47   30   43 1
@<TRIPOS>MOLECULE
ZINC06576212
   44    48     0     0     0
SMALL
USER_CHARGES

@<TRIPOS>ATOM
      1 C1          2.3545    1.3524    2.7049 C.ar      1 <0>        -0.1439
      2 C2          2.9037    2.0501    1.6393 C.ar      1 <0>        -0.0622
      3 C3          3.2926    1.3909    0.4925 C.ar      1 <0>        -0.1375
      4 C4          3.1355    0.0136    0.3978 C.ar      1 <0>         0.1490
      5 C5          2.5803   -0.6910    1.4765 C.ar      1 <0>        -0.2067
      6 C6          2.1905   -0.0138    2.6302 C.ar      1 <0>        -0.0302
      7 C7          2.4226   -2.1545    1.3537 C.2       1 <0>         0.4410
      8 O1          1.9458   -2.8196    2.2589 O.2       1 <0>        -0.4346
      9 C8          2.8450   -2.7526    0.1478 C.2       1 <0>        -0.3025
     10 C9          3.3706   -1.9779   -0.8368 C.2       1 <0>         0.3542
     11 O2          3.5089   -0.6517   -0.7155 O.3       1 <0>        -0.2598
     12 O3          3.7689   -2.5688   -1.9831 O.3       1 <0>        -0.4129
     13 C10         2.7144   -4.2413   -0.0468 C.3       1 <0>         0.1559
     14 C11         2.1379   -4.8621    1.1995 C.2       1 <0>         0.0432
     15 C12         2.8326   -5.5235    2.1425 C.2       1 <0>        -0.2253
     16 C13         1.9022   -5.9325    3.1253 C.2       1 <0>        -0.2115
     17 C14         0.6945   -5.4966    2.7240 C.2       1 <0>        -0.0453
     18 O4          0.8443   -4.8440    1.5598 O.3       1 <0>        -0.1441
     19 C15         1.8018   -4.5172   -1.2139 C.2       1 <0>        -0.3159
     20 C16         0.5146   -3.9415   -1.2601 C.2       1 <0>         0.4329
     21 O5          0.1125   -3.2137   -0.3670 O.2       1 <0>        -0.4399
     22 C17        -0.3267   -4.2546   -2.4333 C.ar      1 <0>        -0.2113
     23 C18        -1.6112   -3.7310   -2.5650 C.ar      1 <0>        -0.0321
     24 C19        -2.3637   -4.0472   -3.6753 C.ar      1 <0>        -0.1434
     25 C20        -1.8473   -4.8815   -4.6557 C.ar      1 <0>        -0.0615
     26 C21        -0.5776   -5.4054   -4.5361 C.ar      1 <0>        -0.1366
     27 C22         0.1971   -5.0981   -3.4245 C.ar      1 <0>         0.1494
     28 O6          1.4428   -5.5992   -3.2876 O.3       1 <0>        -0.2596
     29 C23         2.2153   -5.3175   -2.2309 C.2       1 <0>         0.3681
     30 O7          3.4524   -5.8540   -2.1712 O.3       1 <0>        -0.4115
     31 H1          2.0582    1.8816    3.5985 H         1 <0>         0.1373
     32 H2          3.0277    3.1207    1.7084 H         1 <0>         0.1418
     33 H3          3.7184    1.9444   -0.3313 H         1 <0>         0.1426
     34 H4          1.7627   -0.5560    3.4605 H         1 <0>         0.1435
     35 H5          3.6971   -4.6694   -0.2449 H         1 <0>         0.1151
     36 H6          3.8968   -5.7074    2.1477 H         1 <0>         0.1352
     37 H7          2.1193   -6.4886    4.0254 H         1 <0>         0.1374
     38 H8         -0.2369   -5.6431    3.2507 H         1 <0>         0.1896
     39 H9         -2.0146   -3.0819   -1.8018 H         1 <0>         0.1431
     40 H10        -3.3599   -3.6441   -3.7823 H         1 <0>         0.1375
     41 H11        -2.4460   -5.1234   -5.5214 H         1 <0>         0.1424
     42 H12        -0.1858   -6.0542   -5.3055 H         1 <0>         0.1436
     43 H13         3.6763   -6.4114   -2.9290 H         1 <0>         0.4143
     44 H14         4.1320   -1.9552   -2.6364 H         1 <0>         0.4110
@<TRIPOS>BOND
     1    1    6 ar
     2    1    2 ar
     3    1   31 1
     4    2    3 ar
     5    2   32 1
     6    3    4 ar
     7    3   33 1
     8    4   11 1
     9    4    5 ar
    10    5    6 ar
    11    5    7 1
    12    6   34 1
    13    7    8 2
    14    7    9 1
    15    9   10 2
    16    9   13 1
    17   10   11 1
    18   10   12 1
    19   12   44 1
    20   13   14 1
    21   13   19 1
    22   13   35 1
    23   14   18 1
    24   14   15 2
    25   15   16 1
    26   15   36 1
    27   16   17 2
    28   16   37 1
    29   17   18 1
    30   17   38 1
    31   19   29 2
    32   19   20 1
    33   20   21 2
    34   20   22 1
    35   22   27 ar
    36   22   23 ar
    37   23   24 ar
    38   23   39 1
    39   24   25 ar
    40   24   40 1
    41   25   26 ar
    42   25   41 1
    43   26   27 ar
    44   26   42 1
    45   27   28 1
    46   28   29 1
    47   29   30 1
    48   30   43 1
@<TRIPOS>MOLECULE
ZINC06576212
   43    47     0     0     0
SMALL
USER_CHARGES

@<TRIPOS>ATOM
      1 C1          2.5726    1.4906   -2.4247 C.ar      1 <0>        -0.1681
      2 C2          2.4807    2.1489   -1.2070 C.ar      1 <0>        -0.0832
      3 C3          2.4367    1.4388   -0.0258 C.ar      1 <0>        -0.1548
      4 C4          2.4846    0.0508   -0.0487 C.ar      1 <0>         0.1542
      5 C5          2.5777   -0.6161   -1.2806 C.ar      1 <0>        -0.1647
      6 C6          2.6213    0.1151   -2.4695 C.ar      1 <0>        -0.0399
      7 C7          2.6277   -2.0864   -1.2914 C.2       1 <0>         0.3522
      8 C8          2.5809   -2.7394   -0.0906 C.2       1 <0>        -0.4565
      9 C9          2.4878   -2.0016    1.0993 C.2       1 <0>         0.5190
     10 O1          2.4469   -2.5954    2.1628 O.2       1 <0>        -0.5223
     11 O2          2.4431   -0.6598    1.0991 O.3       1 <0>        -0.2970
     12 C10         2.6284   -4.2450   -0.0457 C.3       1 <0>         0.1676
     13 C11         3.5252   -4.6858    1.0823 C.2       1 <0>         0.0577
     14 C12         3.1980   -5.5584    2.0524 C.2       1 <0>        -0.2313
     15 C13         4.3284   -5.6792    2.8929 C.2       1 <0>        -0.2153
     16 C14         5.2788   -4.8733    2.3863 C.2       1 <0>        -0.0696
     17 O3          4.7886   -4.2786    1.2863 O.3       1 <0>        -0.1400
     18 C15         3.1684   -4.7697   -1.3511 C.2       1 <0>        -0.1431
     19 C16         2.3992   -5.5857   -2.1340 C.2       1 <0>         0.1609
     20 C17         2.9730   -6.0709   -3.3988 C.ar      1 <0>        -0.1477
     21 C18         2.2436   -6.9067   -4.2471 C.ar      1 <0>        -0.0819
     22 C19         2.8096   -7.3431   -5.4242 C.ar      1 <0>        -0.1435
     23 C20         4.0967   -6.9563   -5.7680 C.ar      1 <0>        -0.0829
     24 C21         4.8279   -6.1317   -4.9392 C.ar      1 <0>        -0.1343
     25 C22         4.2756   -5.6799   -3.7475 C.ar      1 <0>         0.1621
     26 O4          4.9773   -4.8706   -2.9249 O.3       1 <0>        -0.2824
     27 C23         4.4603   -4.4185   -1.7713 C.2       1 <0>         0.5455
     28 O5          5.1337   -3.6866   -1.0670 O.2       1 <0>        -0.4420
     29 O6          1.1487   -5.9365   -1.7566 O.3       1 <0>        -0.4499
     30 O7          2.7170   -2.7718   -2.4539 O.3       1 <0>        -0.6480
     31 H1          2.6016    2.0596   -3.3423 H         1 <0>         0.1215
     32 H2          2.4435    3.2280   -1.1840 H         1 <0>         0.1259
     33 H3          2.3655    1.9616    0.9166 H         1 <0>         0.1307
     34 H4          2.6925   -0.3953   -3.4187 H         1 <0>         0.1328
     35 H5          1.6236   -4.6356    0.1151 H         1 <0>         0.0949
     36 H6          2.2530   -6.0683    2.1675 H         1 <0>         0.1343
     37 H7          4.4126   -6.2993    3.7732 H         1 <0>         0.1342
     38 H8          6.2693   -4.7316    2.7927 H         1 <0>         0.1868
     39 H9          1.2415   -7.2094   -3.9813 H         1 <0>         0.1289
     40 H10         2.2489   -7.9899   -6.0828 H         1 <0>         0.1291
     41 H11         4.5304   -7.3046   -6.6937 H         1 <0>         0.1331
     42 H12         5.8293   -5.8373   -5.2165 H         1 <0>         0.1388
     43 H13         0.6962   -6.5157   -2.3849 H         1 <0>         0.3884
@<TRIPOS>BOND
     1    1    6 ar
     2    1    2 ar
     3    1   31 1
     4    2    3 ar
     5    2   32 1
     6    3    4 ar
     7    3   33 1
     8    4   11 1
     9    4    5 ar
    10    5    6 ar
    11    5    7 1
    12    6   34 1
    13    7    8 2
    14    7   30 1
    15    8    9 1
    16    8   12 1
    17    9   10 2
    18    9   11 1
    19   12   13 1
    20   12   18 1
    21   12   35 1
    22   13   17 1
    23   13   14 2
    24   14   15 1
    25   14   36 1
    26   15   16 2
    27   15   37 1
    28   16   17 1
    29   16   38 1
    30   18   27 1
    31   18   19 2
    32   19   20 1
    33   19   29 1
    34   20   25 ar
    35   20   21 ar
    36   21   22 ar
    37   21   39 1
    38   22   23 ar
    39   22   40 1
    40   23   24 ar
    41   23   41 1
    42   24   25 ar
    43   24   42 1
    44   25   26 1
    45   26   27 1
    46   27   28 2
    47   29   43 1
@<TRIPOS>MOLECULE
ZINC06576212
   42    46     0     0     0
SMALL
USER_CHARGES

@<TRIPOS>ATOM
      1 C1          2.3541    1.3529    2.7038 C.ar      1 <0>        -0.1810
      2 C2          2.9031    2.0505    1.6380 C.ar      1 <0>        -0.0900
      3 C3          3.2920    1.3910    0.4913 C.ar      1 <0>        -0.1639
      4 C4          3.1351    0.0138    0.3969 C.ar      1 <0>         0.1638
      5 C5          2.5800   -0.6907    1.4758 C.ar      1 <0>        -0.1973
      6 C6          2.1903   -0.0133    2.6295 C.ar      1 <0>        -0.0432
      7 C7          2.4225   -2.1543    1.3533 C.2       1 <0>         0.4165
      8 O1          1.9458   -2.8192    2.2586 O.2       1 <0>        -0.5273
      9 C8          2.8448   -2.7526    0.1475 C.2       1 <0>        -0.4391
     10 C9          3.3703   -1.9780   -0.8373 C.2       1 <0>         0.4329
     11 O2          3.5084   -0.6518   -0.7163 O.3       1 <0>        -0.2807
     12 O3          3.7686   -2.5691   -1.9836 O.3       1 <0>        -0.6174
     13 C10         2.7144   -4.2413   -0.0468 C.3       1 <0>         0.1991
     14 C11         2.1382   -4.8620    1.1997 C.2       1 <0>         0.1358
     15 C12         2.8330   -5.5232    2.1427 C.2       1 <0>        -0.2870
     16 C13         1.9028   -5.9321    3.1257 C.2       1 <0>        -0.2127
     17 C14         0.6951   -5.4963    2.7246 C.2       1 <0>        -0.0929
     18 O4          0.8446   -4.8438    1.5603 O.3       1 <0>        -0.1321
     19 C15         1.8016   -4.5175   -1.2137 C.2       1 <0>        -0.4343
     20 C16         0.5144   -3.9420   -1.2599 C.2       1 <0>         0.4127
     21 O5          0.1123   -3.2142   -0.3668 O.2       1 <0>        -0.5202
     22 C17        -0.3270   -4.2554   -2.4328 C.ar      1 <0>        -0.2019
     23 C18        -1.6117   -3.7321   -2.5645 C.ar      1 <0>        -0.0446
     24 C19        -2.3643   -4.0486   -3.6746 C.ar      1 <0>        -0.1809
     25 C20        -1.8478   -4.8830   -4.6549 C.ar      1 <0>        -0.0904
     26 C21        -0.5780   -5.4067   -4.5355 C.ar      1 <0>        -0.1638
     27 C22         0.1967   -5.0991   -3.4240 C.ar      1 <0>         0.1652
     28 O6          1.4425   -5.6000   -3.2872 O.3       1 <0>        -0.2799
     29 C23         2.2151   -5.3179   -2.2306 C.2       1 <0>         0.4452
     30 O7          3.4523   -5.8543   -2.1710 O.3       1 <0>        -0.6466
     31 H1          2.0579    1.8822    3.5974 H         1 <0>         0.1141
     32 H2          3.0270    3.1211    1.7069 H         1 <0>         0.1182
     33 H3          3.7177    1.9444   -0.3327 H         1 <0>         0.1249
     34 H4          1.7626   -0.5554    3.4599 H         1 <0>         0.1266
     35 H5          3.6971   -4.6693   -0.2449 H         1 <0>         0.0830
     36 H6          3.8973   -5.7070    2.1477 H         1 <0>         0.1199
     37 H7          2.1201   -6.4880    4.0258 H         1 <0>         0.1165
     38 H8         -0.2362   -5.6427    3.2515 H         1 <0>         0.1685
     39 H9         -2.0150   -3.0829   -1.8014 H         1 <0>         0.1266
     40 H10        -3.3606   -3.6457   -3.7815 H         1 <0>         0.1141
     41 H11        -2.4466   -5.1251   -5.5205 H         1 <0>         0.1182
     42 H12        -0.1862   -6.0556   -5.3048 H         1 <0>         0.1252
@<TRIPOS>BOND
     1    1    6 ar
     2    1    2 ar
     3    1   31 1
     4    2    3 ar
     5    2   32 1
     6    3    4 ar
     7    3   33 1
     8    4   11 1
     9    4    5 ar
    10    5    6 ar
    11    5    7 1
    12    6   34 1
    13    7    8 2
    14    7    9 1
    15    9   10 2
    16    9   13 1
    17   10   11 1
    18   10   12 1
    19   13   14 1
    20   13   19 1
    21   13   35 1
    22   14   18 1
    23   14   15 2
    24   15   16 1
    25   15   36 1
    26   16   17 2
    27   16   37 1
    28   17   18 1
    29   17   38 1
    30   19   29 2
    31   19   20 1
    32   20   21 2
    33   20   22 1
    34   22   27 ar
    35   22   23 ar
    36   23   24 ar
    37   23   39 1
    38   24   25 ar
    39   24   40 1
    40   25   26 ar
    41   25   41 1
    42   26   27 ar
    43   26   42 1
    44   27   28 1
    45   28   29 1
    46   29   30 1
@<TRIPOS>MOLECULE
ZINC00337346
   19    20     0     0     0
SMALL
USER_CHARGES
4-aminochromen-2-one
@<TRIPOS>ATOM
      1 C1          1.1679    3.1690    0.0070 C.ar      1 <0>        -0.1426
      2 C2          1.1719    1.7820    0.0004 C.ar      1 <0>        -0.0585
      3 C3         -0.0126    1.0758    0.0080 C.ar      1 <0>        -0.1351
      4 C4         -1.2244    1.7544    0.0174 C.ar      1 <0>         0.1686
      5 C5         -1.2290    3.1578    0.0298 C.ar      1 <0>        -0.1677
      6 C6         -0.0232    3.8607    0.0216 C.ar      1 <0>        -0.0597
      7 C7         -2.5209    3.8647    0.0449 C.2       1 <0>         0.3121
      8 C8         -3.6663    3.1108    0.0354 C.2       1 <0>        -0.3815
      9 C9         -3.5768    1.7130    0.0279 C.2       1 <0>         0.5260
     10 O1         -4.6024    1.0541    0.0288 O.2       1 <0>        -0.4846
     11 O2         -2.3936    1.0780    0.0193 O.3       1 <0>        -0.2812
     12 N1         -2.5769    5.2408    0.0524 N.pl3     1 <0>        -0.8318
     13 H1          2.1031    3.7092    0.0003 H         1 <0>         0.1374
     14 H2          2.1117    1.2499   -0.0110 H         1 <0>         0.1427
     15 H3          0.0021   -0.0041    0.0020 H         1 <0>         0.1475
     16 H4         -0.0240    4.9407    0.0264 H         1 <0>         0.1326
     17 H5         -4.6329    3.5925    0.0419 H         1 <0>         0.1554
     18 H6         -1.7573    5.7596    0.0477 H         1 <0>         0.4058
     19 H7         -3.4360    5.6912    0.0624 H         1 <0>         0.4145
@<TRIPOS>BOND
     1    1    6 ar
     2    1    2 ar
     3    1   13 1
     4    2    3 ar
     5    2   14 1
     6    3    4 ar
     7    3   15 1
     8    4   11 1
     9    4    5 ar
    10    5    6 ar
    11    5    7 1
    12    6   16 1
    13    7    8 2
    14    7   12 1
    15    8    9 1
    16    8   17 1
    17    9   10 2
    18    9   11 1
    19   12   18 1
    20   12   19 1
@<TRIPOS>MOLECULE
ZINC06576216
   44    49     0     0     0
SMALL
USER_CHARGES
(7S)-7-(4-hydroxy-2-oxo-chromen-3-yl)-7H-chromeno[3,2-c]chromen-6-one
@<TRIPOS>ATOM
      1 C1         -5.4229    0.4136   -4.4833 C.ar      1 <0>        -0.1679
      2 C2         -4.6706   -0.1308   -5.5139 C.ar      1 <0>        -0.0832
      3 C3         -3.4308   -0.6805   -5.2648 C.ar      1 <0>        -0.1563
      4 C4         -2.9245   -0.6923   -3.9714 C.ar      1 <0>         0.1533
      5 C5         -3.6854   -0.1420   -2.9276 C.ar      1 <0>        -0.1680
      6 C6         -4.9396    0.4115   -3.1937 C.ar      1 <0>        -0.0399
      7 C7         -3.1383   -0.1606   -1.5621 C.2       1 <0>         0.3556
      8 C8         -1.9038   -0.7178   -1.3725 C.2       1 <0>        -0.4645
      9 C9         -1.2017   -1.2426   -2.4682 C.2       1 <0>         0.5121
     10 O1         -0.1002   -1.7315   -2.2868 O.2       1 <0>        -0.5326
     11 O2         -1.7119   -1.2262   -3.7100 O.3       1 <0>        -0.2998
     12 C10        -1.2974   -0.7624    0.0064 C.3       1 <0>         0.1335
     13 H1         -1.9768   -0.2970    0.7357 H         1 <0>         0.1047
     14 C11         0.0021   -0.0041    0.0020 C.ar      1 <0>        -0.0996
     15 C12        -0.0167    1.3793    0.0096 C.ar      1 <0>        -0.0785
     16 C13         1.1681    2.0903    0.0021 C.ar      1 <0>        -0.1438
     17 C14         2.3778    1.4203   -0.0114 C.ar      1 <0>        -0.1055
     18 C15         2.4027    0.0402   -0.0186 C.ar      1 <0>        -0.1370
     19 C16         1.2126   -0.6780   -0.0114 C.ar      1 <0>         0.1229
     20 O3          1.2525   -2.0324   -0.0186 O.3       1 <0>        -0.2140
     21 C17         0.1779   -2.7417    0.3663 C.2       1 <0>         0.2116
     22 C18        -1.0709   -2.1953    0.4025 C.2       1 <0>        -0.2648
     23 C19        -2.1562   -2.9857    0.8141 C.2       1 <0>         0.5128
     24 O4         -3.2648   -2.4805    0.8453 O.2       1 <0>        -0.4334
     25 O5         -2.0289   -4.2670    1.1732 O.3       1 <0>        -0.2717
     26 C20        -0.8211   -4.8653    1.1574 C.ar      1 <0>         0.1523
     27 C21         0.3220   -4.1519    0.7641 C.ar      1 <0>        -0.1261
     28 C22         1.5703   -4.7766    0.7528 C.ar      1 <0>        -0.0464
     29 C23         1.6738   -6.0979    1.1289 C.ar      1 <0>        -0.1487
     30 C24         0.5448   -6.8044    1.5154 C.ar      1 <0>        -0.0712
     31 C25        -0.6935   -6.1983    1.5315 C.ar      1 <0>        -0.1378
     32 O6         -3.8354    0.3574   -0.5253 O.3       1 <0>        -0.6379
     33 H2         -6.3924    0.8407   -4.6932 H         1 <0>         0.1223
     34 H3         -5.0597   -0.1237   -6.5214 H         1 <0>         0.1257
     35 H4         -2.8535   -1.1012   -6.0748 H         1 <0>         0.1296
     36 H5         -5.5270    0.8359   -2.3929 H         1 <0>         0.1351
     37 H6         -0.9601    1.9050    0.0170 H         1 <0>         0.1295
     38 H7          1.1494    3.1702    0.0072 H         1 <0>         0.1214
     39 H8          3.3033    1.9770   -0.0172 H         1 <0>         0.1255
     40 H9          3.3479   -0.4822   -0.0293 H         1 <0>         0.1269
     41 H10         2.4498   -4.2272    0.4513 H         1 <0>         0.1409
     42 H11         2.6376   -6.5852    1.1227 H         1 <0>         0.1333
     43 H12         0.6365   -7.8403    1.8065 H         1 <0>         0.1365
     44 H13        -1.5650   -6.7595    1.8346 H         1 <0>         0.1430
@<TRIPOS>BOND
     1    1    6 ar
     2    1    2 ar
     3    1   33 1
     4    2    3 ar
     5    2   34 1
     6    3    4 ar
     7    3   35 1
     8    4   11 1
     9    4    5 ar
    10    5    6 ar
    11    5    7 1
    12    6   36 1
    13    7    8 2
    14    7   32 1
    15    8    9 1
    16    8   12 1
    17    9   10 2
    18    9   11 1
    19   12   13 1
    20   12   22 1
    21   12   14 1
    22   14   19 ar
    23   14   15 ar
    24   15   16 ar
    25   15   37 1
    26   16   17 ar
    27   16   38 1
    28   17   18 ar
    29   17   39 1
    30   18   19 ar
    31   18   40 1
    32   19   20 1
    33   20   21 1
    34   21   27 1
    35   21   22 2
    36   22   23 1
    37   23   24 2
    38   23   25 1
    39   25   26 1
    40   26   31 ar
    41   26   27 ar
    42   27   28 ar
    43   28   29 ar
    44   28   41 1
    45   29   30 ar
    46   29   42 1
    47   30   31 ar
    48   30   43 1
    49   31   44 1
@<TRIPOS>MOLECULE
ZINC06576216
   45    50     0     0     0
SMALL
USER_CHARGES
(7S)-7-(4-hydroxy-2-oxo-chromen-3-yl)-7H-chromeno[3,2-c]chromen-6-one
@<TRIPOS>ATOM
      1 C1         -5.4229    0.4136   -4.4833 C.ar      1 <0>        -0.1471
      2 C2         -4.6706   -0.1308   -5.5139 C.ar      1 <0>        -0.0533
      3 C3         -3.4308   -0.6805   -5.2648 C.ar      1 <0>        -0.1390
      4 C4         -2.9245   -0.6923   -3.9714 C.ar      1 <0>         0.1650
      5 C5         -3.6854   -0.1420   -2.9276 C.ar      1 <0>        -0.1550
      6 C6         -4.9396    0.4115   -3.1937 C.ar      1 <0>        -0.0367
      7 C7         -3.1383   -0.1606   -1.5621 C.2       1 <0>         0.2954
      8 C8         -1.9038   -0.7178   -1.3725 C.2       1 <0>        -0.3546
      9 C9         -1.2017   -1.2426   -2.4682 C.2       1 <0>         0.5313
     10 O1         -0.1002   -1.7315   -2.2868 O.2       1 <0>        -0.4652
     11 O2         -1.7119   -1.2262   -3.7100 O.3       1 <0>        -0.2747
     12 C10        -1.2974   -0.7624    0.0064 C.3       1 <0>         0.1185
     13 H1         -1.9768   -0.2970    0.7357 H         1 <0>         0.0931
     14 C11         0.0021   -0.0041    0.0020 C.ar      1 <0>        -0.1315
     15 C12        -0.0167    1.3793    0.0096 C.ar      1 <0>        -0.0818
     16 C13         1.1681    2.0903    0.0021 C.ar      1 <0>        -0.1321
     17 C14         2.3778    1.4203   -0.0114 C.ar      1 <0>        -0.0853
     18 C15         2.4027    0.0402   -0.0186 C.ar      1 <0>        -0.1242
     19 C16         1.2126   -0.6780   -0.0114 C.ar      1 <0>         0.1286
     20 O3          1.2525   -2.0324   -0.0186 O.3       1 <0>        -0.2075
     21 C17         0.1779   -2.7417    0.3663 C.2       1 <0>         0.2661
     22 C18        -1.0709   -2.1953    0.4025 C.2       1 <0>        -0.3229
     23 C19        -2.1562   -2.9857    0.8141 C.2       1 <0>         0.5298
     24 O4         -3.2648   -2.4805    0.8453 O.2       1 <0>        -0.4713
     25 O5         -2.0289   -4.2670    1.1732 O.3       1 <0>        -0.2591
     26 C20        -0.8211   -4.8653    1.1574 C.ar      1 <0>         0.1570
     27 C21         0.3220   -4.1519    0.7641 C.ar      1 <0>        -0.1466
     28 C22         1.5703   -4.7766    0.7528 C.ar      1 <0>        -0.0386
     29 C23         1.6738   -6.0979    1.1289 C.ar      1 <0>        -0.1413
     30 C24         0.5448   -6.8044    1.5154 C.ar      1 <0>        -0.0539
     31 C25        -0.6935   -6.1983    1.5315 C.ar      1 <0>        -0.1349
     32 O6         -3.8354    0.3574   -0.5253 O.3       1 <0>        -0.4717
     33 H2         -6.3924    0.8407   -4.6932 H         1 <0>         0.1395
     34 H3         -5.0597   -0.1237   -6.5214 H         1 <0>         0.1437
     35 H4         -2.8535   -1.1012   -6.0748 H         1 <0>         0.1478
     36 H5         -5.5270    0.8359   -2.3929 H         1 <0>         0.1449
     37 H6         -0.9601    1.9050    0.0170 H         1 <0>         0.1282
     38 H7          1.1494    3.1702    0.0072 H         1 <0>         0.1320
     39 H8          3.3033    1.9770   -0.0172 H         1 <0>         0.1376
     40 H9          3.3479   -0.4822   -0.0293 H         1 <0>         0.1386
     41 H10         2.4498   -4.2272    0.4513 H         1 <0>         0.1455
     42 H11         2.6376   -6.5852    1.1227 H         1 <0>         0.1414
     43 H12         0.6365   -7.8403    1.8065 H         1 <0>         0.1450
     44 H13        -1.5650   -6.7595    1.8346 H         1 <0>         0.1497
     45 H14        -3.4106    0.3348    0.4891 H         1 <0>         0.4494
@<TRIPOS>BOND
     1    1    6 ar
     2    1    2 ar
     3    1   33 1
     4    2    3 ar
     5    2   34 1
     6    3    4 ar
     7    3   35 1
     8    4   11 1
     9    4    5 ar
    10    5    6 ar
    11    5    7 1
    12    6   36 1
    13    7    8 2
    14    7   32 1
    15    8    9 1
    16    8   12 1
    17    9   10 2
    18    9   11 1
    19   12   13 1
    20   12   22 1
    21   12   14 1
    22   14   19 ar
    23   14   15 ar
    24   15   16 ar
    25   15   37 1
    26   16   17 ar
    27   16   38 1
    28   17   18 ar
    29   17   39 1
    30   18   19 ar
    31   18   40 1
    32   19   20 1
    33   20   21 1
    34   21   27 1
    35   21   22 2
    36   22   23 1
    37   23   24 2
    38   23   25 1
    39   25   26 1
    40   26   31 ar
    41   26   27 ar
    42   27   28 ar
    43   28   29 ar
    44   28   41 1
    45   29   30 ar
    46   29   42 1
    47   30   31 ar
    48   30   43 1
    49   31   44 1
    50   32   45 1
@<TRIPOS>MOLECULE
ZINC06576219
   44    49     0     0     0
SMALL
USER_CHARGES
(7R)-7-(4-hydroxy-2-oxo-chromen-3-yl)-7H-chromeno[3,2-c]chromen-6-one
@<TRIPOS>ATOM
      1 C1          0.0665   -2.7829   -0.0117 C.ar      1 <0>        -0.1679
      2 C2         -1.1454   -2.1080    0.0035 C.ar      1 <0>        -0.0832
      3 C3         -1.1823   -0.7296    0.0099 C.ar      1 <0>        -0.1563
      4 C4          0.0021   -0.0041    0.0020 C.ar      1 <0>         0.1533
      5 C5          1.2291   -0.6863   -0.0134 C.ar      1 <0>        -0.1679
      6 C6          1.2522   -2.0826   -0.0202 C.ar      1 <0>        -0.0399
      7 C7          2.4764    0.0937   -0.0216 C.2       1 <0>         0.3554
      8 C8          2.3808    1.4580   -0.0138 C.2       1 <0>        -0.4644
      9 C9          1.1167    2.0667    0.0025 C.2       1 <0>         0.5120
     10 O1          1.0451    3.2833    0.0093 O.2       1 <0>        -0.5323
     11 O2         -0.0162    1.3463    0.0094 O.3       1 <0>        -0.2998
     12 C10         3.6280    2.3039   -0.0215 C.3       1 <0>         0.1334
     13 H1          4.5206    1.6613   -0.0417 H         1 <0>         0.1049
     14 C11         3.6294    3.1772   -1.2470 C.ar      1 <0>        -0.0997
     15 C12         3.9630    2.6309   -2.4734 C.ar      1 <0>        -0.0787
     16 C13         3.9687    3.4206   -3.6073 C.ar      1 <0>        -0.1437
     17 C14         3.6403    4.7610   -3.5196 C.ar      1 <0>        -0.1056
     18 C15         3.3061    5.3115   -2.2986 C.ar      1 <0>        -0.1370
     19 C16         3.3006    4.5201   -1.1562 C.ar      1 <0>         0.1226
     20 O3          2.9736    5.0739    0.0368 O.3       1 <0>        -0.2132
     21 C17         3.3398    4.4704    1.1805 C.2       1 <0>         0.2120
     22 C18         3.6649    3.1468    1.2236 C.2       1 <0>        -0.2648
     23 C19         4.0379    2.5694    2.4479 C.2       1 <0>         0.5129
     24 O4          4.3226    1.3846    2.4695 O.2       1 <0>        -0.4338
     25 O5          4.0950    3.2601    3.5910 O.3       1 <0>        -0.2717
     26 C20         3.7895    4.5729    3.6135 C.ar      1 <0>         0.1523
     27 C21         3.4035    5.2344    2.4372 C.ar      1 <0>        -0.1263
     28 C22         3.0874    6.5937    2.4675 C.ar      1 <0>        -0.0464
     29 C23         3.1577    7.2829    3.6582 C.ar      1 <0>        -0.1487
     30 C24         3.5399    6.6306    4.8208 C.ar      1 <0>        -0.0712
     31 C25         3.8538    5.2882    4.8040 C.ar      1 <0>        -0.1379
     32 O6          3.6816   -0.5200   -0.0360 O.3       1 <0>        -0.6380
     33 H2          0.0801   -3.8628   -0.0166 H         1 <0>         0.1222
     34 H3         -2.0691   -2.6677    0.0100 H         1 <0>         0.1258
     35 H4         -2.1315   -0.2145    0.0221 H         1 <0>         0.1297
     36 H5          2.1945   -2.6101   -0.0317 H         1 <0>         0.1351
     37 H6          4.2201    1.5843   -2.5448 H         1 <0>         0.1295
     38 H7          4.2296    2.9904   -4.5630 H         1 <0>         0.1214
     39 H8          3.6448    5.3772   -4.4066 H         1 <0>         0.1255
     40 H9          3.0491    6.3582   -2.2309 H         1 <0>         0.1269
     41 H10         2.7899    7.1024    1.5624 H         1 <0>         0.1408
     42 H11         2.9147    8.3348    3.6863 H         1 <0>         0.1333
     43 H12         3.5919    7.1799    5.7493 H         1 <0>         0.1365
     44 H13         4.1502    4.7919    5.7163 H         1 <0>         0.1430
@<TRIPOS>BOND
     1    1    6 ar
     2    1    2 ar
     3    1   33 1
     4    2    3 ar
     5    2   34 1
     6    3    4 ar
     7    3   35 1
     8    4   11 1
     9    4    5 ar
    10    5    6 ar
    11    5    7 1
    12    6   36 1
    13    7    8 2
    14    7   32 1
    15    8    9 1
    16    8   12 1
    17    9   10 2
    18    9   11 1
    19   12   13 1
    20   12   22 1
    21   12   14 1
    22   14   19 ar
    23   14   15 ar
    24   15   16 ar
    25   15   37 1
    26   16   17 ar
    27   16   38 1
    28   17   18 ar
    29   17   39 1
    30   18   19 ar
    31   18   40 1
    32   19   20 1
    33   20   21 1
    34   21   27 1
    35   21   22 2
    36   22   23 1
    37   23   24 2
    38   23   25 1
    39   25   26 1
    40   26   31 ar
    41   26   27 ar
    42   27   28 ar
    43   28   29 ar
    44   28   41 1
    45   29   30 ar
    46   29   42 1
    47   30   31 ar
    48   30   43 1
    49   31   44 1
@<TRIPOS>MOLECULE
ZINC06576219
   45    50     0     0     0
SMALL
USER_CHARGES
(7R)-7-(4-hydroxy-2-oxo-chromen-3-yl)-7H-chromeno[3,2-c]chromen-6-one
@<TRIPOS>ATOM
      1 C1          0.0665   -2.7829   -0.0117 C.ar      1 <0>        -0.1471
      2 C2         -1.1454   -2.1080    0.0035 C.ar      1 <0>        -0.0533
      3 C3         -1.1823   -0.7296    0.0099 C.ar      1 <0>        -0.1390
      4 C4          0.0021   -0.0041    0.0020 C.ar      1 <0>         0.1650
      5 C5          1.2291   -0.6863   -0.0134 C.ar      1 <0>        -0.1550
      6 C6          1.2522   -2.0826   -0.0202 C.ar      1 <0>        -0.0367
      7 C7          2.4764    0.0937   -0.0216 C.2       1 <0>         0.2952
      8 C8          2.3808    1.4580   -0.0138 C.2       1 <0>        -0.3545
      9 C9          1.1167    2.0667    0.0025 C.2       1 <0>         0.5311
     10 O1          1.0451    3.2833    0.0093 O.2       1 <0>        -0.4650
     11 O2         -0.0162    1.3463    0.0094 O.3       1 <0>        -0.2747
     12 C10         3.6280    2.3039   -0.0215 C.3       1 <0>         0.1185
     13 H1          4.5206    1.6613   -0.0417 H         1 <0>         0.0931
     14 C11         3.6294    3.1772   -1.2470 C.ar      1 <0>        -0.1315
     15 C12         3.9630    2.6309   -2.4734 C.ar      1 <0>        -0.0819
     16 C13         3.9687    3.4206   -3.6073 C.ar      1 <0>        -0.1320
     17 C14         3.6403    4.7610   -3.5196 C.ar      1 <0>        -0.0854
     18 C15         3.3061    5.3115   -2.2986 C.ar      1 <0>        -0.1242
     19 C16         3.3006    4.5201   -1.1562 C.ar      1 <0>         0.1282
     20 O3          2.9736    5.0739    0.0368 O.3       1 <0>        -0.2069
     21 C17         3.3398    4.4704    1.1805 C.2       1 <0>         0.2661
     22 C18         3.6649    3.1468    1.2236 C.2       1 <0>        -0.3226
     23 C19         4.0379    2.5694    2.4479 C.2       1 <0>         0.5298
     24 O4          4.3226    1.3846    2.4695 O.2       1 <0>        -0.4715
     25 O5          4.0950    3.2601    3.5910 O.3       1 <0>        -0.2592
     26 C20         3.7895    4.5729    3.6135 C.ar      1 <0>         0.1570
     27 C21         3.4035    5.2344    2.4372 C.ar      1 <0>        -0.1468
     28 C22         3.0874    6.5937    2.4675 C.ar      1 <0>        -0.0386
     29 C23         3.1577    7.2829    3.6582 C.ar      1 <0>        -0.1412
     30 C24         3.5399    6.6306    4.8208 C.ar      1 <0>        -0.0539
     31 C25         3.8538    5.2882    4.8040 C.ar      1 <0>        -0.1349
     32 O6          3.6816   -0.5200   -0.0360 O.3       1 <0>        -0.4718
     33 H2          0.0801   -3.8628   -0.0166 H         1 <0>         0.1395
     34 H3         -2.0691   -2.6677    0.0100 H         1 <0>         0.1437
     35 H4         -2.1315   -0.2145    0.0221 H         1 <0>         0.1478
     36 H5          2.1945   -2.6101   -0.0317 H         1 <0>         0.1449
     37 H6          4.2201    1.5843   -2.5448 H         1 <0>         0.1283
     38 H7          4.2296    2.9904   -4.5630 H         1 <0>         0.1321
     39 H8          3.6448    5.3772   -4.4066 H         1 <0>         0.1376
     40 H9          3.0491    6.3582   -2.2309 H         1 <0>         0.1386
     41 H10         2.7899    7.1024    1.5624 H         1 <0>         0.1455
     42 H11         2.9147    8.3348    3.6863 H         1 <0>         0.1414
     43 H12         3.5919    7.1799    5.7493 H         1 <0>         0.1450
     44 H13         4.1502    4.7919    5.7163 H         1 <0>         0.1496
     45 H14         4.6040    0.0793   -0.0420 H         1 <0>         0.4494
@<TRIPOS>BOND
     1    1    6 ar
     2    1    2 ar
     3    1   33 1
     4    2    3 ar
     5    2   34 1
     6    3    4 ar
     7    3   35 1
     8    4   11 1
     9    4    5 ar
    10    5    6 ar
    11    5    7 1
    12    6   36 1
    13    7    8 2
    14    7   32 1
    15    8    9 1
    16    8   12 1
    17    9   10 2
    18    9   11 1
    19   12   13 1
    20   12   22 1
    21   12   14 1
    22   14   19 ar
    23   14   15 ar
    24   15   16 ar
    25   15   37 1
    26   16   17 ar
    27   16   38 1
    28   17   18 ar
    29   17   39 1
    30   18   19 ar
    31   18   40 1
    32   19   20 1
    33   20   21 1
    34   21   27 1
    35   21   22 2
    36   22   23 1
    37   23   24 2
    38   23   25 1
    39   25   26 1
    40   26   31 ar
    41   26   27 ar
    42   27   28 ar
    43   28   29 ar
    44   28   41 1
    45   29   30 ar
    46   29   42 1
    47   30   31 ar
    48   30   43 1
    49   31   44 1
    50   32   45 1
@<TRIPOS>MOLECULE
ZINC05835069
   46    50     0     0     0
SMALL
USER_CHARGES

@<TRIPOS>ATOM
      1 C1          3.3435    1.0740   -3.2629 C.ar      1 <0>        -0.1812
      2 C2          2.1596    0.9309   -3.9712 C.ar      1 <0>        -0.0898
      3 C3          1.3484   -0.1659   -3.7712 C.ar      1 <0>        -0.1636
      4 C4          1.7157   -1.1411   -2.8524 C.ar      1 <0>         0.1665
      5 C5          2.9137   -0.9955   -2.1369 C.ar      1 <0>        -0.2012
      6 C6          3.7252    0.1176   -2.3472 C.ar      1 <0>        -0.0454
      7 C7          3.2842   -2.0445   -1.1652 C.2       1 <0>         0.4066
      8 O1          4.3137   -1.9714   -0.5141 O.2       1 <0>        -0.5674
      9 C8          2.4000   -3.1341   -1.0196 C.2       1 <0>        -0.4244
     10 C9          1.2633   -3.1791   -1.7625 C.2       1 <0>         0.4468
     11 O2          0.9365   -2.2226   -2.6405 O.3       1 <0>        -0.2824
     12 O3          0.4301   -4.2298   -1.6089 O.3       1 <0>        -0.6097
     13 C10         2.7144   -4.2413   -0.0468 C.3       1 <0>         0.1640
     14 C11         2.1441   -3.8989    1.3054 C.ar      1 <0>         0.0337
     15 C12         0.8769   -3.3541    1.4021 C.ar      1 <0>        -0.0513
     16 C13         0.3520   -3.0389    2.6405 C.ar      1 <0>        -0.1506
     17 C14         1.0972   -3.2699    3.7876 C.ar      1 <0>         0.0468
     18 C15         2.3682   -3.8170    3.6879 C.ar      1 <0>        -0.1466
     19 C16         2.8865   -4.1353    2.4476 C.ar      1 <0>        -0.1219
     20 O4          0.5832   -2.9603    5.0070 O.3       1 <0>        -0.5102
     21 C17         2.1051   -5.5293   -0.5375 C.2       1 <0>        -0.3945
     22 C18         1.1822   -6.2300    0.2673 C.2       1 <0>         0.4136
     23 O5          0.8575   -5.8155    1.3681 O.2       1 <0>        -0.5479
     24 C19         0.6244   -7.4851   -0.2761 C.ar      1 <0>        -0.1931
     25 C20        -0.2937   -8.2438    0.4472 C.ar      1 <0>        -0.0464
     26 C21        -0.7907   -9.4087   -0.0958 C.ar      1 <0>        -0.1834
     27 C22        -0.3803   -9.8248   -1.3537 C.ar      1 <0>        -0.0931
     28 C23         0.5277   -9.0824   -2.0786 C.ar      1 <0>        -0.1651
     29 C24         1.0400   -7.9046   -1.5488 C.ar      1 <0>         0.1669
     30 O6          1.9290   -7.1620   -2.2414 O.3       1 <0>        -0.2793
     31 C25         2.4366   -6.0203   -1.7601 C.2       1 <0>         0.4465
     32 O7          3.3167   -5.3323   -2.5178 O.3       1 <0>        -0.6413
     33 H1          3.9710    1.9364   -3.4330 H         1 <0>         0.1145
     34 H2          1.8700    1.6866   -4.6864 H         1 <0>         0.1183
     35 H3          0.4284   -0.2666   -4.3278 H         1 <0>         0.1249
     36 H4          4.6473    0.2300   -1.7961 H         1 <0>         0.1268
     37 H5          3.7951   -4.3581    0.0337 H         1 <0>         0.0466
     38 H6          0.2972   -3.1745    0.5088 H         1 <0>         0.1190
     39 H7         -0.6375   -2.6127    2.7155 H         1 <0>         0.1002
     40 H8          2.9503   -3.9977    4.5795 H         1 <0>         0.1012
     41 H9          3.8742   -4.5653    2.3697 H         1 <0>         0.1050
     42 H10         0.0897   -3.6817    5.4205 H         1 <0>         0.3663
     43 H11        -0.6134   -7.9211    1.4270 H         1 <0>         0.1247
     44 H12        -1.5025  -10.0004    0.4605 H         1 <0>         0.1120
     45 H13        -0.7756  -10.7398   -1.7694 H         1 <0>         0.1162
     46 H14         0.8404   -9.4161   -3.0570 H         1 <0>         0.1227
@<TRIPOS>BOND
     1    1    6 ar
     2    1    2 ar
     3    1   33 1
     4    2    3 ar
     5    2   34 1
     6    3    4 ar
     7    3   35 1
     8    4   11 1
     9    4    5 ar
    10    5    6 ar
    11    5    7 1
    12    6   36 1
    13    7    8 2
    14    7    9 1
    15    9   10 2
    16    9   13 1
    17   10   11 1
    18   10   12 1
    19   13   14 1
    20   13   21 1
    21   13   37 1
    22   14   19 ar
    23   14   15 ar
    24   15   16 ar
    25   15   38 1
    26   16   17 ar
    27   16   39 1
    28   17   18 ar
    29   17   20 1
    30   18   19 ar
    31   18   40 1
    32   19   41 1
    33   20   42 1
    34   21   31 2
    35   21   22 1
    36   22   23 2
    37   22   24 1
    38   24   29 ar
    39   24   25 ar
    40   25   26 ar
    41   25   43 1
    42   26   27 ar
    43   26   44 1
    44   27   28 ar
    45   27   45 1
    46   28   29 ar
    47   28   46 1
    48   29   30 1
    49   30   31 1
    50   31   32 1
@<TRIPOS>MOLECULE
ZINC05835076
   50    54     0     0     0
SMALL
USER_CHARGES

@<TRIPOS>ATOM
      1 C1         -1.0631    0.2291    0.6695 C.3       1 <0>         0.0312
      2 O1         -0.6337   -1.1326    0.7270 O.3       1 <0>        -0.3234
      3 C2          0.3486   -1.4332    1.6181 C.ar      1 <0>         0.0917
      4 C3          0.8832   -0.4403    2.4234 C.ar      1 <0>        -0.2027
      5 C4          1.8814   -0.7476    3.3291 C.ar      1 <0>         0.0687
      6 C5          2.3489   -2.0444    3.4336 C.ar      1 <0>        -0.0786
      7 C6          1.8203   -3.0396    2.6328 C.ar      1 <0>        -0.1184
      8 C7          0.8152   -2.7396    1.7273 C.ar      1 <0>         0.0246
      9 O2          0.2899   -3.7186    0.9431 O.3       1 <0>        -0.4938
     10 C8          2.4615    0.3336    4.2041 C.3       1 <0>         0.1647
     11 C9          1.8035    0.2902    5.5591 C.2       1 <0>        -0.3946
     12 C10         0.8542   -0.7104    5.8557 C.2       1 <0>         0.4197
     13 O3          0.5458   -1.5565    5.0322 O.2       1 <0>        -0.5412
     14 C11         0.2490   -0.6932    7.2030 C.ar      1 <0>        -0.1925
     15 C12        -0.6971   -1.6421    7.5853 C.ar      1 <0>        -0.0455
     16 C13        -1.2375   -1.5915    8.8519 C.ar      1 <0>        -0.1828
     17 C14        -0.8435   -0.6027    9.7413 C.ar      1 <0>        -0.0926
     18 C15         0.0917    0.3416    9.3742 C.ar      1 <0>        -0.1656
     19 C16         0.6486    0.3072    8.1018 C.ar      1 <0>         0.1664
     20 O4          1.5664    1.2209    7.7219 O.3       1 <0>        -0.2795
     21 C17         2.1248    1.2111    6.5049 C.2       1 <0>         0.4397
     22 O5          3.0397    2.1568    6.2041 O.3       1 <0>        -0.6452
     23 C18         3.9443    0.1132    4.3584 C.2       1 <0>        -0.4291
     24 C19         4.8467    0.6843    3.4365 C.2       1 <0>         0.4074
     25 O6          4.4541    1.3636    2.5019 O.2       1 <0>        -0.5672
     26 C20         6.2859    0.4274    3.6481 C.ar      1 <0>        -0.2017
     27 C21         7.2500    0.9508    2.7889 C.ar      1 <0>        -0.0453
     28 C22         8.5826    0.6880    3.0216 C.ar      1 <0>        -0.1809
     29 C23         8.9630   -0.0926    4.1032 C.ar      1 <0>        -0.0893
     30 C24         8.0179   -0.6158    4.9600 C.ar      1 <0>        -0.1633
     31 C25         6.6693   -0.3619    4.7427 C.ar      1 <0>         0.1663
     32 O7          5.7276   -0.8632    5.5694 O.3       1 <0>        -0.2825
     33 C26         4.4211   -0.6321    5.3894 C.2       1 <0>         0.4454
     34 O8          3.5422   -1.1651    6.2644 O.3       1 <0>        -0.6057
     35 H1         -0.2195    0.8651    0.4011 H         1 <0>         0.0500
     36 H2         -1.8480    0.3313   -0.0798 H         1 <0>         0.0838
     37 H3         -1.4492    0.5298    1.6435 H         1 <0>         0.0504
     38 H4          0.5202    0.5738    2.3433 H         1 <0>         0.1123
     39 H5          3.1291   -2.2805    4.1421 H         1 <0>         0.1194
     40 H6          2.1875   -4.0519    2.7161 H         1 <0>         0.1097
     41 H7          0.7483   -3.8353    0.0997 H         1 <0>         0.3594
     42 H8          2.2846    1.3063    3.7452 H         1 <0>         0.0484
     43 H9         -1.0050   -2.4121    6.8933 H         1 <0>         0.1255
     44 H10        -1.9711   -2.3245    9.1533 H         1 <0>         0.1124
     45 H11        -1.2740   -0.5718   10.7313 H         1 <0>         0.1164
     46 H12         0.3907    1.1072   10.0748 H         1 <0>         0.1227
     47 H13         6.9548    1.5582    1.9461 H         1 <0>         0.1267
     48 H14         9.3339    1.0913    2.3588 H         1 <0>         0.1147
     49 H15        10.0101   -0.2929    4.2758 H         1 <0>         0.1185
     50 H16         8.3256   -1.2226    5.7988 H         1 <0>         0.1252
@<TRIPOS>BOND
     1    1    2 1
     2    1   35 1
     3    1   36 1
     4    1   37 1
     5    2    3 1
     6    3    8 ar
     7    3    4 ar
     8    4    5 ar
     9    4   38 1
    10    5    6 ar
    11    5   10 1
    12    6    7 ar
    13    6   39 1
    14    7    8 ar
    15    7   40 1
    16    8    9 1
    17    9   41 1
    18   10   11 1
    19   10   23 1
    20   10   42 1
    21   11   21 2
    22   11   12 1
    23   12   13 2
    24   12   14 1
    25   14   19 ar
    26   14   15 ar
    27   15   16 ar
    28   15   43 1
    29   16   17 ar
    30   16   44 1
    31   17   18 ar
    32   17   45 1
    33   18   19 ar
    34   18   46 1
    35   19   20 1
    36   20   21 1
    37   21   22 1
    38   23   33 2
    39   23   24 1
    40   24   25 2
    41   24   26 1
    42   26   31 ar
    43   26   27 ar
    44   27   28 ar
    45   27   47 1
    46   28   29 ar
    47   28   48 1
    48   29   30 ar
    49   29   49 1
    50   30   31 ar
    51   30   50 1
    52   31   32 1
    53   32   33 1
    54   33   34 1
@<TRIPOS>MOLECULE
ZINC05819733
   45    48     0     0     0
SMALL
USER_CHARGES

@<TRIPOS>ATOM
      1 C1          0.3043    1.5580    0.0698 C.3       1 <0>        -0.1379
      2 C2          0.2047    0.0314    0.0457 C.3       1 <0>        -0.0977
      3 C3          0.8386   -0.5008   -1.2411 C.3       1 <0>        -0.1249
      4 C4          0.7390   -2.0273   -1.2652 C.3       1 <0>         0.1019
      5 C5         -0.7088   -2.4376   -1.1832 C.2       1 <0>        -0.4684
      6 C6         -1.6935   -1.5548   -1.5316 C.2       1 <0>         0.3561
      7 C7         -3.0908   -2.0046   -1.4337 C.ar      1 <0>        -0.1670
      8 C8         -4.1463   -1.1558   -1.7738 C.ar      1 <0>        -0.0408
      9 C9         -5.4432   -1.6078   -1.6714 C.ar      1 <0>        -0.1701
     10 C10        -5.7025   -2.8982   -1.2333 C.ar      1 <0>        -0.0868
     11 C11        -4.6695   -3.7463   -0.8939 C.ar      1 <0>        -0.1582
     12 C12        -3.3542   -3.3105   -0.9904 C.ar      1 <0>         0.1509
     13 O1         -2.3305   -4.1285   -0.6634 O.3       1 <0>        -0.3041
     14 C13        -1.0520   -3.7289   -0.7545 C.2       1 <0>         0.5052
     15 O2         -0.1650   -4.5077   -0.4517 O.2       1 <0>        -0.5407
     16 O3         -1.3918   -0.3056   -1.9532 O.3       1 <0>        -0.6061
     17 C14         1.3373   -2.5496   -2.5459 C.2       1 <0>        -0.2127
     18 C15         2.3635   -3.4529   -2.5062 C.2       1 <0>         0.1845
     19 C16         2.9123   -3.9315   -3.7845 C.ar      1 <0>        -0.1697
     20 C17         3.9601   -4.8542   -3.8182 C.ar      1 <0>        -0.0749
     21 C18         4.4509   -5.2826   -5.0315 C.ar      1 <0>        -0.1430
     22 C19         3.9096   -4.8020   -6.2150 C.ar      1 <0>        -0.0764
     23 C20         2.8751   -3.8904   -6.1957 C.ar      1 <0>        -0.1350
     24 C21         2.3651   -3.4457   -4.9827 C.ar      1 <0>         0.1592
     25 O4          1.3512   -2.5542   -4.9457 O.3       1 <0>        -0.2883
     26 C22         0.8402   -2.1156   -3.7843 C.2       1 <0>         0.5043
     27 O5         -0.0778   -1.3143   -3.8061 O.2       1 <0>        -0.3983
     28 O6          2.8591   -3.8926   -1.3271 O.3       1 <0>        -0.4305
     29 H1          1.3525    1.8543    0.0317 H         1 <0>         0.0347
     30 H2         -0.2214    1.9701   -0.7916 H         1 <0>         0.0562
     31 H3         -0.1473    1.9371    0.9865 H         1 <0>         0.0344
     32 H4          0.7303   -0.3806    0.9071 H         1 <0>         0.0257
     33 H5         -0.8436   -0.2649    0.0839 H         1 <0>         0.0727
     34 H6          0.3129   -0.0887   -2.1025 H         1 <0>         0.1387
     35 H7          1.8868   -0.2044   -1.2792 H         1 <0>         0.0107
     36 H8          1.2824   -2.4404   -0.4154 H         1 <0>         0.0639
     37 H9         -3.9468   -0.1507   -2.1148 H         1 <0>         0.1344
     38 H10        -6.2623   -0.9543   -1.9331 H         1 <0>         0.1197
     39 H11        -6.7235   -3.2419   -1.1568 H         1 <0>         0.1233
     40 H12        -4.8830   -4.7487   -0.5533 H         1 <0>         0.1275
     41 H13         4.3832   -5.2294   -2.8981 H         1 <0>         0.1319
     42 H14         5.2613   -5.9958   -5.0619 H         1 <0>         0.1317
     43 H15         4.3024   -5.1450   -7.1607 H         1 <0>         0.1356
     44 H16         2.4617   -3.5224   -7.1231 H         1 <0>         0.1415
     45 H17         3.5820   -4.5285   -1.4170 H         1 <0>         0.3867
@<TRIPOS>BOND
     1    1    2 1
     2    1   29 1
     3    1   30 1
     4    1   31 1
     5    2    3 1
     6    2   32 1
     7    2   33 1
     8    3    4 1
     9    3   34 1
    10    3   35 1
    11    4    5 1
    12    4   17 1
    13    4   36 1
    14    5   14 1
    15    5    6 2
    16    6    7 1
    17    6   16 1
    18    7   12 ar
    19    7    8 ar
    20    8    9 ar
    21    8   37 1
    22    9   10 ar
    23    9   38 1
    24   10   11 ar
    25   10   39 1
    26   11   12 ar
    27   11   40 1
    28   12   13 1
    29   13   14 1
    30   14   15 2
    31   17   26 1
    32   17   18 2
    33   18   19 1
    34   18   28 1
    35   19   24 ar
    36   19   20 ar
    37   20   21 ar
    38   20   41 1
    39   21   22 ar
    40   21   42 1
    41   22   23 ar
    42   22   43 1
    43   23   24 ar
    44   23   44 1
    45   24   25 1
    46   25   26 1
    47   26   27 2
    48   28   45 1
@<TRIPOS>MOLECULE
ZINC05819733
   44    47     0     0     0
SMALL
USER_CHARGES
4-hydroxy-3-[1-(4-hydroxy-2-oxo-chromen-3-yl)butyl]chromen-2-one
@<TRIPOS>ATOM
      1 C1         -1.6061   -1.8998    3.6797 C.3       1 <0>        -0.1401
      2 C2         -1.4426   -0.9415    2.4982 C.3       1 <0>        -0.1228
      3 C3         -1.4542   -1.7367    1.1912 C.3       1 <0>        -0.0869
      4 C4         -1.2907   -0.7784    0.0097 C.3       1 <0>         0.1319
      5 C5          0.0694   -0.1325    0.0713 C.2       1 <0>        -0.4004
      6 C6          0.1804    1.2195    0.2447 C.2       1 <0>         0.3295
      7 C7          1.5309    1.8007    0.2975 C.ar      1 <0>        -0.1520
      8 C8          1.7181    3.1736    0.4719 C.ar      1 <0>        -0.0482
      9 C9          2.9956    3.6859    0.5166 C.ar      1 <0>        -0.1769
     10 C10         4.0920    2.8456    0.3894 C.ar      1 <0>        -0.1007
     11 C11         3.9211    1.4881    0.2177 C.ar      1 <0>        -0.1612
     12 C12         2.6411    0.9509    0.1694 C.ar      1 <0>         0.1504
     13 O1          2.4558   -0.3762    0.0005 O.3       1 <0>        -0.3120
     14 C13         1.2274   -0.9157   -0.0495 C.2       1 <0>         0.4938
     15 O2          1.1150   -2.1194   -0.2036 O.2       1 <0>        -0.5216
     16 O3         -0.9185    1.9997    0.3585 O.3       1 <0>        -0.6637
     17 C14        -1.4250   -1.5447   -1.2810 C.2       1 <0>        -0.4228
     18 C15        -1.4476   -0.8792   -2.4756 C.2       1 <0>         0.3142
     19 C16        -1.5804   -1.6738   -3.7066 C.ar      1 <0>        -0.1545
     20 C17        -1.6099   -1.0600   -4.9606 C.ar      1 <0>        -0.0490
     21 C18        -1.7347   -1.8326   -6.0937 C.ar      1 <0>        -0.1769
     22 C19        -1.8308   -3.2129   -5.9931 C.ar      1 <0>        -0.1000
     23 C20        -1.8029   -3.8315   -4.7610 C.ar      1 <0>        -0.1616
     24 C21        -1.6776   -3.0708   -3.6057 C.ar      1 <0>         0.1521
     25 O4         -1.6482   -3.6606   -2.3911 O.3       1 <0>        -0.3108
     26 C22        -1.5215   -2.9445   -1.2625 C.2       1 <0>         0.5064
     27 O5         -1.4951   -3.5259   -0.1918 O.2       1 <0>        -0.5275
     28 O6         -1.3512    0.4689   -2.5238 O.3       1 <0>        -0.6403
     29 H1         -1.5978   -1.3280    4.6194 H         1 <0>         0.0321
     30 H2         -0.7770   -2.6227    3.6829 H         1 <0>         0.0450
     31 H3         -2.5611   -2.4376    3.5862 H         1 <0>         0.0425
     32 H4         -2.2717   -0.2186    2.4950 H         1 <0>         0.0443
     33 H5         -0.4876   -0.4037    2.5917 H         1 <0>         0.0507
     34 H6         -0.6251   -2.4596    1.1945 H         1 <0>         0.0793
     35 H7         -2.4092   -2.2745    1.0977 H         1 <0>         0.0404
     36 H8         -2.0622    0.0050    0.0443 H         1 <0>         0.0556
     37 H9          0.8660    3.8296    0.5714 H         1 <0>         0.1292
     38 H10         3.1446    4.7470    0.6516 H         1 <0>         0.1129
     39 H11         5.0893    3.2585    0.4260 H         1 <0>         0.1162
     40 H12         4.7818    0.8431    0.1201 H         1 <0>         0.1222
     41 H13        -1.5349    0.0144   -5.0413 H         1 <0>         0.1293
     42 H14        -1.7576   -1.3617   -7.0654 H         1 <0>         0.1131
     43 H15        -1.9280   -3.8088   -6.8886 H         1 <0>         0.1164
     44 H16        -1.8781   -4.9068   -4.6945 H         1 <0>         0.1226
@<TRIPOS>BOND
     1    1    2 1
     2    1   29 1
     3    1   30 1
     4    1   31 1
     5    2    3 1
     6    2   32 1
     7    2   33 1
     8    3    4 1
     9    3   34 1
    10    3   35 1
    11    4    5 1
    12    4   17 1
    13    4   36 1
    14    5   14 1
    15    5    6 2
    16    6    7 1
    17    6   16 1
    18    7   12 ar
    19    7    8 ar
    20    8    9 ar
    21    8   37 1
    22    9   10 ar
    23    9   38 1
    24   10   11 ar
    25   10   39 1
    26   11   12 ar
    27   11   40 1
    28   12   13 1
    29   13   14 1
    30   14   15 2
    31   17   26 1
    32   17   18 2
    33   18   19 1
    34   18   28 1
    35   19   24 ar
    36   19   20 ar
    37   20   21 ar
    38   20   41 1
    39   21   22 ar
    40   21   42 1
    41   22   23 ar
    42   22   43 1
    43   23   24 ar
    44   23   44 1
    45   24   25 1
    46   25   26 1
    47   26   27 2
@<TRIPOS>MOLECULE
ZINC05819733
   46    49     0     0     0
SMALL
USER_CHARGES
4-hydroxy-3-[1-(4-hydroxy-2-oxo-chromen-3-yl)butyl]chromen-2-one
@<TRIPOS>ATOM
      1 C1         -1.6061   -1.8998    3.6797 C.3       1 <0>        -0.1506
      2 C2         -1.4426   -0.9415    2.4982 C.3       1 <0>        -0.1240
      3 C3         -1.4542   -1.7367    1.1912 C.3       1 <0>        -0.1083
      4 C4         -1.2907   -0.7784    0.0097 C.3       1 <0>         0.0675
      5 C5          0.0694   -0.1325    0.0713 C.2       1 <0>        -0.2657
      6 C6          0.1804    1.2195    0.2447 C.2       1 <0>         0.2554
      7 C7          1.5309    1.8007    0.2975 C.ar      1 <0>        -0.1890
      8 C8          1.7181    3.1736    0.4719 C.ar      1 <0>        -0.0666
      9 C9          2.9956    3.6859    0.5166 C.ar      1 <0>        -0.1372
     10 C10         4.0920    2.8456    0.3894 C.ar      1 <0>        -0.0610
     11 C11         3.9211    1.4881    0.2177 C.ar      1 <0>        -0.1324
     12 C12         2.6411    0.9509    0.1694 C.ar      1 <0>         0.1625
     13 O1          2.4558   -0.3762    0.0005 O.3       1 <0>        -0.2782
     14 C13         1.2274   -0.9157   -0.0495 C.2       1 <0>         0.5228
     15 O2          1.1150   -2.1194   -0.2036 O.2       1 <0>        -0.4477
     16 O3         -0.9185    1.9997    0.3585 O.3       1 <0>        -0.4654
     17 C14        -1.4250   -1.5447   -1.2810 C.2       1 <0>        -0.2650
     18 C15        -1.4476   -0.8792   -2.4756 C.2       1 <0>         0.2416
     19 C16        -1.5804   -1.6738   -3.7066 C.ar      1 <0>        -0.1901
     20 C17        -1.6099   -1.0600   -4.9606 C.ar      1 <0>        -0.0677
     21 C18        -1.7347   -1.8326   -6.0937 C.ar      1 <0>        -0.1387
     22 C19        -1.8308   -3.2129   -5.9931 C.ar      1 <0>        -0.0612
     23 C20        -1.8029   -3.8315   -4.7610 C.ar      1 <0>        -0.1326
     24 C21        -1.6776   -3.0708   -3.6057 C.ar      1 <0>         0.1658
     25 O4         -1.6482   -3.6606   -2.3911 O.3       1 <0>        -0.2775
     26 C22        -1.5215   -2.9445   -1.2625 C.2       1 <0>         0.5317
     27 O5         -1.4951   -3.5259   -0.1918 O.2       1 <0>        -0.4408
     28 O6         -1.3512    0.4689   -2.5238 O.3       1 <0>        -0.4661
     29 H1         -1.5978   -1.3280    4.6194 H         1 <0>         0.0490
     30 H2         -0.7770   -2.6227    3.6829 H         1 <0>         0.0537
     31 H3         -2.5611   -2.4376    3.5862 H         1 <0>         0.0546
     32 H4         -2.2717   -0.2186    2.4950 H         1 <0>         0.0559
     33 H5         -0.4876   -0.4037    2.5917 H         1 <0>         0.0490
     34 H6         -0.6251   -2.4596    1.1945 H         1 <0>         0.0936
     35 H7         -2.4092   -2.2745    1.0977 H         1 <0>         0.0736
     36 H8         -2.0622    0.0050    0.0443 H         1 <0>         0.0968
     37 H9          0.8660    3.8296    0.5714 H         1 <0>         0.1346
     38 H10         3.1446    4.7470    0.6516 H         1 <0>         0.1384
     39 H11         5.0893    3.2585    0.4260 H         1 <0>         0.1429
     40 H12         4.7818    0.8431    0.1201 H         1 <0>         0.1468
     41 H13        -1.5349    0.0144   -5.0413 H         1 <0>         0.1327
     42 H14        -1.7576   -1.3617   -7.0654 H         1 <0>         0.1377
     43 H15        -1.9280   -3.8088   -6.8886 H         1 <0>         0.1427
     44 H16        -1.8781   -4.9068   -4.6945 H         1 <0>         0.1474
     45 H17        -1.3712    0.9874   -3.4937 H         1 <0>         0.4333
     46 H18        -0.8101    3.0855    0.4975 H         1 <0>         0.4359
@<TRIPOS>BOND
     1    1    2 1
     2    1   29 1
     3    1   30 1
     4    1   31 1
     5    2    3 1
     6    2   32 1
     7    2   33 1
     8    3    4 1
     9    3   34 1
    10    3   35 1
    11    4    5 1
    12    4   17 1
    13    4   36 1
    14    5   14 1
    15    5    6 2
    16    6    7 1
    17    6   16 1
    18    7   12 ar
    19    7    8 ar
    20    8    9 ar
    21    8   37 1
    22    9   10 ar
    23    9   38 1
    24   10   11 ar
    25   10   39 1
    26   11   12 ar
    27   11   40 1
    28   12   13 1
    29   13   14 1
    30   14   15 2
    31   16   46 1
    32   17   26 1
    33   17   18 2
    34   18   19 1
    35   18   28 1
    36   19   24 ar
    37   19   20 ar
    38   20   21 ar
    39   20   41 1
    40   21   22 ar
    41   21   42 1
    42   22   23 ar
    43   22   43 1
    44   23   24 ar
    45   23   44 1
    46   24   25 1
    47   25   26 1
    48   26   27 2
    49   28   45 1
@<TRIPOS>MOLECULE
ZINC05819733
   46    49     0     0     0
SMALL
USER_CHARGES

@<TRIPOS>ATOM
      1 C1          0.1548    1.4362   -0.3441 C.3       1 <0>        -0.1486
      2 C2          0.1009   -0.0850   -0.1889 C.3       1 <0>        -0.1149
      3 C3         -1.3587   -0.5423   -0.1507 C.3       1 <0>        -0.1230
      4 C4         -1.4126   -2.0635    0.0045 C.3       1 <0>         0.0784
      5 C5         -0.6400   -2.4708    1.2326 C.2       1 <0>        -0.3312
      6 C6         -0.0732   -3.7598    1.3197 C.2       1 <0>         0.4352
      7 O1         -0.1924   -4.5680    0.4132 O.2       1 <0>        -0.4730
      8 C7          0.6708   -4.0918    2.5519 C.ar      1 <0>        -0.2162
      9 C8          1.2648   -5.3401    2.7263 C.ar      1 <0>        -0.0329
     10 C9          1.9505   -5.6099    3.8908 C.ar      1 <0>        -0.1464
     11 C10         2.0491   -4.6463    4.8836 C.ar      1 <0>        -0.0614
     12 C11         1.4655   -3.4077    4.7221 C.ar      1 <0>        -0.1386
     13 C12         0.7702   -3.1161    3.5551 C.ar      1 <0>         0.1519
     14 O2          0.1920   -1.9098    3.3757 O.3       1 <0>        -0.2620
     15 C13        -0.4801   -1.5972    2.2607 C.2       1 <0>         0.3806
     16 O3         -1.0247   -0.3666    2.1559 O.3       1 <0>        -0.3673
     17 C14        -2.8470   -2.5036    0.1445 C.2       1 <0>        -0.3166
     18 C15        -3.6527   -1.9801    1.1775 C.2       1 <0>         0.4376
     19 O4         -3.2137   -1.1669    1.9743 O.2       1 <0>        -0.4593
     20 C16        -5.0490   -2.4555    1.2557 C.ar      1 <0>        -0.2167
     21 C17        -5.9183   -1.9937    2.2420 C.ar      1 <0>        -0.0318
     22 C18        -7.2137   -2.4619    2.2801 C.ar      1 <0>        -0.1459
     23 C19        -7.6507   -3.3873    1.3438 C.ar      1 <0>        -0.0604
     24 C20        -6.7997   -3.8514    0.3634 C.ar      1 <0>        -0.1379
     25 C21        -5.4899   -3.3911    0.3078 C.ar      1 <0>         0.1520
     26 O5         -4.6402   -3.8313   -0.6440 O.3       1 <0>        -0.2616
     27 C22        -3.3744   -3.4029   -0.7267 C.2       1 <0>         0.3625
     28 O6         -2.5894   -3.8877   -1.7120 O.3       1 <0>        -0.4030
     29 H1          1.1946    1.7620   -0.3713 H         1 <0>         0.0492
     30 H2         -0.3407    1.7246   -1.2712 H         1 <0>         0.0512
     31 H3         -0.3512    1.9056    0.4995 H         1 <0>         0.0536
     32 H4          0.6068   -0.5544   -1.0326 H         1 <0>         0.0532
     33 H5          0.5964   -0.3734    0.7381 H         1 <0>         0.0544
     34 H6         -1.8646   -0.0729    0.6929 H         1 <0>         0.1129
     35 H7         -1.8542   -0.2539   -1.0778 H         1 <0>         0.0555
     36 H8         -0.9722   -2.5342   -0.8745 H         1 <0>         0.0927
     37 H9          1.1880   -6.0913    1.9542 H         1 <0>         0.1425
     38 H10         2.4128   -6.5758    4.0311 H         1 <0>         0.1367
     39 H11         2.5883   -4.8687    5.7926 H         1 <0>         0.1414
     40 H12         1.5484   -2.6652    5.5020 H         1 <0>         0.1429
     41 H13        -5.5788   -1.2737    2.9720 H         1 <0>         0.1430
     42 H14        -7.8915   -2.1072    3.0425 H         1 <0>         0.1370
     43 H15        -8.6678   -3.7481    1.3834 H         1 <0>         0.1420
     44 H16        -7.1506   -4.5722   -0.3603 H         1 <0>         0.1434
     45 H17        -3.0326   -4.5219   -2.2919 H         1 <0>         0.4115
     46 H18        -0.8698    0.1988    2.9249 H         1 <0>         0.3873
@<TRIPOS>BOND
     1    1    2 1
     2    1   29 1
     3    1   30 1
     4    1   31 1
     5    2    3 1
     6    2   32 1
     7    2   33 1
     8    3    4 1
     9    3   34 1
    10    3   35 1
    11    4    5 1
    12    4   17 1
    13    4   36 1
    14    5   15 2
    15    5    6 1
    16    6    7 2
    17    6    8 1
    18    8   13 ar
    19    8    9 ar
    20    9   10 ar
    21    9   37 1
    22   10   11 ar
    23   10   38 1
    24   11   12 ar
    25   11   39 1
    26   12   13 ar
    27   12   40 1
    28   13   14 1
    29   14   15 1
    30   15   16 1
    31   16   46 1
    32   17   27 2
    33   17   18 1
    34   18   19 2
    35   18   20 1
    36   20   25 ar
    37   20   21 ar
    38   21   22 ar
    39   21   41 1
    40   22   23 ar
    41   22   42 1
    42   23   24 ar
    43   23   43 1
    44   24   25 ar
    45   24   44 1
    46   25   26 1
    47   26   27 1
    48   27   28 1
    49   28   45 1
@<TRIPOS>MOLECULE
ZINC05819733
   44    47     0     0     0
SMALL
USER_CHARGES

@<TRIPOS>ATOM
      1 C1         -0.4107    1.4263    0.0381 C.3       1 <0>        -0.1352
      2 C2         -0.2109   -0.0904    0.0124 C.3       1 <0>        -0.1006
      3 C3          0.5631   -0.5241    1.2589 C.3       1 <0>        -0.1169
      4 C4          0.7628   -2.0407    1.2331 C.3       1 <0>         0.1380
      5 C5          1.4503   -2.4352   -0.0486 C.2       1 <0>        -0.4425
      6 C6          1.2749   -3.7308   -0.5787 C.2       1 <0>         0.3938
      7 O1          0.5701   -4.5551   -0.0195 O.2       1 <0>        -0.5420
      8 C7          1.9783   -4.0494   -1.8379 C.ar      1 <0>        -0.2043
      9 C8          1.8640   -5.3030   -2.4354 C.ar      1 <0>        -0.0471
     10 C9          2.5362   -5.5599   -3.6105 C.ar      1 <0>        -0.1826
     11 C10         3.3223   -4.5782   -4.1956 C.ar      1 <0>        -0.0923
     12 C11         3.4430   -3.3342   -3.6135 C.ar      1 <0>        -0.1660
     13 C12         2.7727   -3.0554   -2.4289 C.ar      1 <0>         0.1640
     14 O2          2.8759   -1.8441   -1.8425 O.3       1 <0>        -0.2860
     15 C13         2.2385   -1.5436   -0.7040 C.2       1 <0>         0.4383
     16 O3          2.3890   -0.3071   -0.1842 O.3       1 <0>        -0.5866
     17 C14         1.6121   -2.4556    2.4069 C.2       1 <0>        -0.4385
     18 C15         2.8959   -1.8989    2.5862 C.2       1 <0>         0.3951
     19 O4          3.3459   -1.0768    1.8048 O.2       1 <0>        -0.4921
     20 C16         3.6735   -2.3508    3.7580 C.ar      1 <0>        -0.2050
     21 C17         4.9502   -1.8557    4.0160 C.ar      1 <0>        -0.0455
     22 C18         5.6425   -2.3028    5.1205 C.ar      1 <0>        -0.1821
     23 C19         5.0735   -3.2399    5.9703 C.ar      1 <0>        -0.0921
     24 C20         3.8110   -3.7368    5.7251 C.ar      1 <0>        -0.1659
     25 C21         3.0967   -3.2982    4.6171 C.ar      1 <0>         0.1623
     26 O5          1.8591   -3.7707    4.3587 O.3       1 <0>        -0.2838
     27 C22         1.1440   -3.3638    3.3023 C.2       1 <0>         0.4210
     28 O6         -0.0891   -3.8805    3.1168 O.3       1 <0>        -0.6443
     29 H1          0.5608    1.9205    0.0529 H         1 <0>         0.0520
     30 H2         -0.9620    1.7353   -0.8499 H         1 <0>         0.0266
     31 H3         -0.9730    1.7037    0.9297 H         1 <0>         0.0328
     32 H4         -1.1823   -0.5846   -0.0024 H         1 <0>         0.0224
     33 H5          0.3514   -0.3677   -0.8792 H         1 <0>         0.0641
     34 H6          1.5345   -0.0298    1.2737 H         1 <0>         0.1304
     35 H7          0.0007   -0.2467    2.1505 H         1 <0>         0.0000
     36 H8         -0.2064   -2.5359    1.2929 H         1 <0>         0.0501
     37 H9          1.2527   -6.0683   -1.9803 H         1 <0>         0.1259
     38 H10         2.4510   -6.5299   -4.0778 H         1 <0>         0.1131
     39 H11         3.8454   -4.7906   -5.1162 H         1 <0>         0.1167
     40 H12         4.0581   -2.5775   -4.0777 H         1 <0>         0.1235
     41 H13         5.3944   -1.1266    3.3546 H         1 <0>         0.1274
     42 H14         6.6323   -1.9223    5.3250 H         1 <0>         0.1133
     43 H15         5.6252   -3.5839    6.8326 H         1 <0>         0.1170
     44 H16         3.3780   -4.4664    6.3934 H         1 <0>         0.1234
@<TRIPOS>BOND
     1    1    2 1
     2    1   29 1
     3    1   30 1
     4    1   31 1
     5    2    3 1
     6    2   32 1
     7    2   33 1
     8    3    4 1
     9    3   34 1
    10    3   35 1
    11    4    5 1
    12    4   17 1
    13    4   36 1
    14    5   15 2
    15    5    6 1
    16    6    7 2
    17    6    8 1
    18    8   13 ar
    19    8    9 ar
    20    9   10 ar
    21    9   37 1
    22   10   11 ar
    23   10   38 1
    24   11   12 ar
    25   11   39 1
    26   12   13 ar
    27   12   40 1
    28   13   14 1
    29   14   15 1
    30   15   16 1
    31   17   27 2
    32   17   18 1
    33   18   19 2
    34   18   20 1
    35   20   25 ar
    36   20   21 ar
    37   21   22 ar
    38   21   41 1
    39   22   23 ar
    40   22   42 1
    41   23   24 ar
    42   23   43 1
    43   24   25 ar
    44   24   44 1
    45   25   26 1
    46   26   27 1
    47   27   28 1
@<TRIPOS>MOLECULE
ZINC03846907
   33    35     0     0     0
SMALL
USER_CHARGES
4,8-diamino-1,5-dihydroxy-9,10-dioxo-anthracene-2-sulfonic acid
@<TRIPOS>ATOM
      1 C1          2.3096   -2.4862   -2.5827 C.ar      1 <0>        -0.1632
      2 C2          3.4957   -1.7881   -2.5885 C.ar      1 <0>        -0.0804
      3 C3          3.5532   -0.4840   -2.0989 C.ar      1 <0>         0.0959
      4 C4          2.4002    0.1210   -1.5974 C.ar      1 <0>        -0.0952
      5 C5          1.1835   -0.5928   -1.5891 C.ar      1 <0>        -0.1917
      6 C6          1.1445   -1.8994   -2.0850 C.ar      1 <0>         0.2612
      7 N1         -0.0472   -2.6104   -2.0821 N.pl3     1 <0>        -0.8532
      8 C7         -0.0337    0.0454   -1.0586 C.2       1 <0>         0.4483
      9 O1         -1.0215   -0.6213   -0.8131 O.2       1 <0>        -0.4392
     10 C8         -0.0406    1.5021   -0.8292 C.ar      1 <0>        -0.1391
     11 C9          1.1761    2.2166   -0.8391 C.ar      1 <0>        -0.1834
     12 C10         1.1691    3.5975   -0.6232 C.ar      1 <0>         0.2411
     13 C11        -0.0413    4.2574   -0.3992 C.ar      1 <0>        -0.0551
     14 C12        -1.2263    3.5583   -0.3892 C.ar      1 <0>        -0.6262
     15 C13        -1.2390    2.1811   -0.6084 C.ar      1 <0>         0.1939
     16 O2         -2.4135    1.5026   -0.6016 O.3       1 <0>        -0.4757
     17 S1         -2.7413    4.4114   -0.1033 S.o2      1 <0>         2.7001
     18 O3         -3.1515    4.9416   -1.3562 O.2       1 <0>        -1.0453
     19 O4         -3.5618    3.5372    0.6595 O.2       1 <0>        -1.0424
     20 N2          2.3598    4.3100   -0.6319 N.pl3     1 <0>        -0.8551
     21 C14         2.4412    1.5003   -1.0772 C.2       1 <0>         0.4420
     22 O5          3.5070    2.0400   -0.8465 O.2       1 <0>        -0.4348
     23 O6          4.7274    0.1949   -2.1093 O.3       1 <0>        -0.4754
     24 H1          2.2800   -3.4955   -2.9656 H         1 <0>         0.1371
     25 H2          4.3895   -2.2543   -2.9760 H         1 <0>         0.1398
     26 H3         -0.8912   -2.1420   -1.9867 H         1 <0>         0.4150
     27 H4         -0.0362   -3.5759   -2.1756 H         1 <0>         0.3992
     28 H5         -0.0471    5.3244   -0.2322 H         1 <0>         0.1518
     29 H6         -2.6707    1.1703    0.2693 H         1 <0>         0.4066
     30 H7          3.1535    3.9233   -1.0335 H         1 <0>         0.4085
     31 H8          2.3984    5.1949   -0.2363 H         1 <0>         0.4015
     32 H9          4.8812    0.7024   -2.9180 H         1 <0>         0.3862
     33 O7         -2.4255    5.6021    0.7906 O.3       1 <0>        -1.0726
@<TRIPOS>BOND
     1    1    6 ar
     2    1    2 ar
     3    1   24 1
     4    2    3 ar
     5    2   25 1
     6    3    4 ar
     7    3   23 1
     8    4   21 1
     9    4    5 ar
    10    5    6 ar
    11    5    8 1
    12    6    7 1
    13    7   26 1
    14    7   27 1
    15    8    9 2
    16    8   10 1
    17   10   15 ar
    18   10   11 ar
    19   11   12 ar
    20   11   21 1
    21   12   13 ar
    22   12   20 1
    23   13   14 ar
    24   13   28 1
    25   14   15 ar
    26   14   17 1
    27   15   16 1
    28   16   29 1
    29   17   18 2
    30   17   19 2
    31   17   33 1
    32   20   30 1
    33   20   31 1
    34   21   22 2
    35   23   32 1
@<TRIPOS>MOLECULE
ZINC45258649
   41    44     0     0     0
SMALL
USER_CHARGES

@<TRIPOS>ATOM
      1 C1         -0.0184    1.5028    0.0103 C.3       1 <0>        -0.0965
      2 C2          0.0021   -0.0041    0.0020 C.ar      1 <0>        -0.1512
      3 C3          0.0057   -0.6877   -1.2051 C.ar      1 <0>        -0.0972
      4 C4          0.0238   -2.0663   -1.2321 C.ar      1 <0>        -0.1592
      5 C5          0.0392   -2.7831   -0.0425 C.ar      1 <0>         0.1485
      6 C6          0.0360   -2.0920    1.1796 C.ar      1 <0>        -0.1510
      7 C7          0.0228   -0.6956    1.1928 C.ar      1 <0>        -0.0455
      8 C8          0.0523   -2.8628    2.4326 C.2       1 <0>         0.3122
      9 C9          0.0699   -4.2276    2.3469 C.2       1 <0>        -0.4360
     10 C10         0.0719   -4.8455    1.0871 C.2       1 <0>         0.4868
     11 O1          0.0876   -6.0625    1.0243 O.2       1 <0>        -0.4935
     12 O2          0.0566   -4.1335   -0.0510 O.3       1 <0>        -0.3131
     13 C11         0.0876   -5.0644    3.6001 C.3       1 <0>         0.1070
     14 C12        -1.3208   -5.4650    3.9565 C.2       1 <0>        -0.4359
     15 C13        -1.8132   -6.6756    3.5537 C.2       1 <0>         0.3122
     16 C14        -3.1941   -7.0188    3.9275 C.ar      1 <0>        -0.1511
     17 C15        -3.7607   -8.2381    3.5502 C.ar      1 <0>        -0.0455
     18 C16        -5.0559   -8.5291    3.9166 C.ar      1 <0>        -0.1512
     19 C17        -5.7960   -7.6179    4.6559 C.ar      1 <0>        -0.0972
     20 C18        -5.2484   -6.4105    5.0350 C.ar      1 <0>        -0.1592
     21 C19        -3.9436   -6.0975    4.6762 C.ar      1 <0>         0.1485
     22 O3         -3.3916   -4.9197    5.0399 O.3       1 <0>        -0.3131
     23 C20        -2.1306   -4.5999    4.7081 C.2       1 <0>         0.4867
     24 O4         -1.6783   -3.5261    5.0653 O.2       1 <0>        -0.4930
     25 C21        -5.6724   -9.8434    3.5121 C.3       1 <0>        -0.0965
     26 O5         -1.0536   -7.5315    2.8328 O.3       1 <0>        -0.6378
     27 O6          0.0504   -2.2403    3.6334 O.3       1 <0>        -0.6374
     28 H1          1.0042    1.8801    0.0026 H         1 <0>         0.0577
     29 H2         -0.5455    1.8639   -0.8728 H         1 <0>         0.0549
     30 H3         -0.5286    1.8543    0.9071 H         1 <0>         0.0598
     31 H4         -0.0062   -0.1348   -2.1328 H         1 <0>         0.1161
     32 H5          0.0257   -2.5882   -2.1776 H         1 <0>         0.1229
     33 H6          0.0244   -0.1612    2.1313 H         1 <0>         0.1293
     34 H7          0.6880   -5.9584    3.4317 H         1 <0>         0.0388
     35 H8          0.5186   -4.4859    4.4172 H         1 <0>         0.0387
     36 H9         -3.1866   -8.9487    2.9740 H         1 <0>         0.1293
     37 H10        -6.8111   -7.8565    4.9370 H         1 <0>         0.1161
     38 H11        -5.8339   -5.7084    5.6101 H         1 <0>         0.1229
     39 H12        -5.4790  -10.5883    4.2839 H         1 <0>         0.0578
     40 H13        -6.7482   -9.7177    3.3899 H         1 <0>         0.0548
     41 H14        -5.2360  -10.1747    2.5698 H         1 <0>         0.0598
@<TRIPOS>BOND
     1    1    2 1
     2    1   28 1
     3    1   29 1
     4    1   30 1
     5    2    7 ar
     6    2    3 ar
     7    3    4 ar
     8    3   31 1
     9    4    5 ar
    10    4   32 1
    11    5   12 1
    12    5    6 ar
    13    6    7 ar
    14    6    8 1
    15    7   33 1
    16    8    9 2
    17    8   27 1
    18    9   10 1
    19    9   13 1
    20   10   11 2
    21   10   12 1
    22   13   14 1
    23   13   34 1
    24   13   35 1
    25   14   23 1
    26   14   15 2
    27   15   16 1
    28   15   26 1
    29   16   21 ar
    30   16   17 ar
    31   17   18 ar
    32   17   36 1
    33   18   19 ar
    34   18   25 1
    35   19   20 ar
    36   19   37 1
    37   20   21 ar
    38   20   38 1
    39   21   22 1
    40   22   23 1
    41   23   24 2
    42   25   39 1
    43   25   40 1
    44   25   41 1
@<TRIPOS>MOLECULE
ZINC45258649
   42    45     0     0     0
SMALL
USER_CHARGES

@<TRIPOS>ATOM
      1 C1         -0.0184    1.5028    0.0103 C.3       1 <0>        -0.1029
      2 C2          0.0021   -0.0041    0.0020 C.ar      1 <0>        -0.1395
      3 C3          0.0057   -0.6877   -1.2051 C.ar      1 <0>        -0.0849
      4 C4          0.0248   -2.0662   -1.2321 C.ar      1 <0>        -0.1536
      5 C5          0.0406   -2.7831   -0.0425 C.ar      1 <0>         0.1482
      6 C6          0.0369   -2.0920    1.1796 C.ar      1 <0>        -0.1628
      7 C7          0.0228   -0.6956    1.1928 C.ar      1 <0>        -0.0407
      8 C8          0.0536   -2.8628    2.4326 C.2       1 <0>         0.3381
      9 C9          0.0721   -4.2276    2.3469 C.2       1 <0>        -0.4753
     10 C10         0.0746   -4.8455    1.0871 C.2       1 <0>         0.5068
     11 O1          0.0911   -6.0624    1.0242 O.2       1 <0>        -0.5279
     12 O2          0.0589   -4.1335   -0.0511 O.3       1 <0>        -0.3038
     13 C11         0.0903   -5.0643    3.6001 C.3       1 <0>         0.0676
     14 C12        -1.3179   -5.4659    3.9564 C.2       1 <0>        -0.2265
     15 C13        -1.8094   -6.6769    3.5535 C.2       1 <0>         0.1897
     16 C14        -3.1901   -7.0210    3.9273 C.ar      1 <0>        -0.1669
     17 C15        -3.7559   -8.2407    3.5499 C.ar      1 <0>        -0.0744
     18 C16        -5.0510   -8.5324    3.9162 C.ar      1 <0>        -0.1114
     19 C17        -5.7916   -7.6220    4.6559 C.ar      1 <0>        -0.0757
     20 C18        -5.2450   -6.4140    5.0346 C.ar      1 <0>        -0.1308
     21 C19        -3.9403   -6.1001    4.6759 C.ar      1 <0>         0.1544
     22 O3         -3.3891   -4.9221    5.0397 O.3       1 <0>        -0.2876
     23 C20        -2.1283   -4.6014    4.7079 C.2       1 <0>         0.5048
     24 O4         -1.6768   -3.5273    5.0652 O.2       1 <0>        -0.4065
     25 C21        -5.6668   -9.8469    3.5113 C.3       1 <0>        -0.1099
     26 O5         -1.0492   -7.5323    2.8327 O.3       1 <0>        -0.4118
     27 O6          0.0512   -2.2403    3.6334 O.3       1 <0>        -0.6227
     28 H1          1.0042    1.8801    0.0026 H         1 <0>         0.0635
     29 H2         -0.5455    1.8639   -0.8728 H         1 <0>         0.0601
     30 H3         -0.5286    1.8543    0.9071 H         1 <0>         0.0631
     31 H4         -0.0068   -0.1348   -2.1328 H         1 <0>         0.1241
     32 H5          0.0271   -2.5882   -2.1776 H         1 <0>         0.1290
     33 H6          0.0244   -0.1612    2.1313 H         1 <0>         0.1337
     34 H7          0.6913   -5.9579    3.4317 H         1 <0>         0.0618
     35 H8          0.5208   -4.4855    4.4172 H         1 <0>         0.0728
     36 H9         -3.1813   -8.9508    2.9737 H         1 <0>         0.1321
     37 H10        -6.8063   -7.8615    4.9376 H         1 <0>         0.1353
     38 H11        -5.8309   -5.7123    5.6098 H         1 <0>         0.1420
     39 H12        -5.4729  -10.5920    4.2828 H         1 <0>         0.0705
     40 H13        -6.7427   -9.7218    3.3892 H         1 <0>         0.0675
     41 H14        -5.2302  -10.1777    2.5689 H         1 <0>         0.0673
     42 H15        -1.4969   -8.3579    2.6023 H         1 <0>         0.3830
@<TRIPOS>BOND
     1    1    2 1
     2    1   28 1
     3    1   29 1
     4    1   30 1
     5    2    7 ar
     6    2    3 ar
     7    3    4 ar
     8    3   31 1
     9    4    5 ar
    10    4   32 1
    11    5   12 1
    12    5    6 ar
    13    6    7 ar
    14    6    8 1
    15    7   33 1
    16    8    9 2
    17    8   27 1
    18    9   10 1
    19    9   13 1
    20   10   11 2
    21   10   12 1
    22   13   14 1
    23   13   34 1
    24   13   35 1
    25   14   23 1
    26   14   15 2
    27   15   16 1
    28   15   26 1
    29   16   21 ar
    30   16   17 ar
    31   17   18 ar
    32   17   36 1
    33   18   19 ar
    34   18   25 1
    35   19   20 ar
    36   19   37 1
    37   20   21 ar
    38   20   38 1
    39   21   22 1
    40   22   23 1
    41   23   24 2
    42   25   39 1
    43   25   40 1
    44   25   41 1
    45   26   42 1
@<TRIPOS>MOLECULE
ZINC45261493
   47    50     0     0     0
SMALL
USER_CHARGES

@<TRIPOS>ATOM
      1 C1         -0.0184    1.5028    0.0103 C.3       1 <0>        -0.0980
      2 C2          0.0021   -0.0041    0.0020 C.ar      1 <0>        -0.1478
      3 C3          0.0056   -0.6828   -1.1965 C.ar      1 <0>        -0.0428
      4 C4          0.0246   -2.0790   -1.1987 C.ar      1 <0>        -0.1541
      5 C5          0.0399   -2.7834    0.0159 C.ar      1 <0>         0.1521
      6 C6          0.0365   -2.0797    1.2132 C.ar      1 <0>        -0.1584
      7 C7          0.0229   -0.7006    1.2013 C.ar      1 <0>        -0.0708
      8 C8          0.0255    0.0569    2.5041 C.3       1 <0>        -0.1031
      9 O1          0.0573   -4.1339    0.0097 O.3       1 <0>        -0.3131
     10 C9          0.0604   -4.8334   -1.1362 C.2       1 <0>         0.4868
     11 O2          0.0759   -6.0510   -1.0868 O.2       1 <0>        -0.4937
     12 C10         0.0459   -4.2019   -2.3892 C.2       1 <0>        -0.4366
     13 C11         0.0284   -2.8362   -2.4600 C.2       1 <0>         0.3130
     14 O3          0.0141   -2.2008   -3.6539 O.3       1 <0>        -0.6378
     15 C12         0.0501   -5.0250   -3.6515 C.3       1 <0>         0.1075
     16 C13         1.4684   -5.3849   -4.0118 C.2       1 <0>        -0.4366
     17 C14         1.9921   -6.5867   -3.6221 C.2       1 <0>         0.3131
     18 C15         3.3815   -6.8897   -3.9993 C.ar      1 <0>        -0.1542
     19 C16         3.9795   -8.0977   -3.6351 C.ar      1 <0>        -0.0427
     20 C17         5.2820   -8.3510   -4.0043 C.ar      1 <0>        -0.1478
     21 C18         5.9981   -7.4130   -4.7333 C.ar      1 <0>        -0.0708
     22 C19         5.4194   -6.2157   -5.0990 C.ar      1 <0>        -0.1585
     23 C20         4.1069   -5.9408   -4.7376 C.ar      1 <0>         0.1523
     24 O4          3.5245   -4.7738   -5.0882 O.3       1 <0>        -0.3132
     25 C21         2.2554   -4.4908   -4.7536 C.2       1 <0>         0.4868
     26 O5          1.7753   -3.4254   -5.0992 O.2       1 <0>        -0.4932
     27 C22         7.4226   -7.7048   -5.1292 C.3       1 <0>        -0.1049
     28 C23         5.9325   -9.6531   -3.6140 C.3       1 <0>        -0.0997
     29 O6          1.2551   -7.4699   -2.9109 O.3       1 <0>        -0.6381
     30 H1          1.0042    1.8801    0.0026 H         1 <0>         0.0580
     31 H2         -0.5455    1.8639   -0.8728 H         1 <0>         0.0592
     32 H3         -0.5286    1.8543    0.9071 H         1 <0>         0.0575
     33 H4         -0.0065   -0.1383   -2.1291 H         1 <0>         0.1297
     34 H5          0.0478   -2.6119    2.1529 H         1 <0>         0.1225
     35 H6         -1.0015    0.2259    2.8281 H         1 <0>         0.0626
     36 H7          0.5544   -0.5230    3.2605 H         1 <0>         0.0598
     37 H8          0.5253    1.0156    2.3660 H         1 <0>         0.0630
     38 H9         -0.5269   -5.9361   -3.4930 H         1 <0>         0.0384
     39 H10        -0.3958   -4.4490   -4.4623 H         1 <0>         0.0383
     40 H11         3.4240   -8.8292   -3.0669 H         1 <0>         0.1296
     41 H12         5.9865   -5.4923   -5.6659 H         1 <0>         0.1224
     42 H13         7.4355   -8.2023   -6.0989 H         1 <0>         0.0628
     43 H14         7.9807   -6.7707   -5.1925 H         1 <0>         0.0592
     44 H15         7.8818   -8.3525   -4.3824 H         1 <0>         0.0651
     45 H16         5.7585  -10.3943   -4.3941 H         1 <0>         0.0579
     46 H17         7.0047   -9.5009   -3.4901 H         1 <0>         0.0597
     47 H18         5.5048  -10.0060   -2.6756 H         1 <0>         0.0589
@<TRIPOS>BOND
     1    1    2 1
     2    1   30 1
     3    1   31 1
     4    1   32 1
     5    2    7 ar
     6    2    3 ar
     7    3    4 ar
     8    3   33 1
     9    4   13 1
    10    4    5 ar
    11    5    6 ar
    12    5    9 1
    13    6    7 ar
    14    6   34 1
    15    7    8 1
    16    8   35 1
    17    8   36 1
    18    8   37 1
    19    9   10 1
    20   10   11 2
    21   10   12 1
    22   12   13 2
    23   12   15 1
    24   13   14 1
    25   15   16 1
    26   15   38 1
    27   15   39 1
    28   16   25 1
    29   16   17 2
    30   17   18 1
    31   17   29 1
    32   18   23 ar
    33   18   19 ar
    34   19   20 ar
    35   19   40 1
    36   20   21 ar
    37   20   28 1
    38   21   22 ar
    39   21   27 1
    40   22   23 ar
    41   22   41 1
    42   23   24 1
    43   24   25 1
    44   25   26 2
    45   27   42 1
    46   27   43 1
    47   27   44 1
    48   28   45 1
    49   28   46 1
    50   28   47 1
@<TRIPOS>MOLECULE
ZINC45261493
   49    52     0     0     0
SMALL
USER_CHARGES

@<TRIPOS>ATOM
      1 C1         -0.0184    1.5028    0.0103 C.3       1 <0>        -0.1157
      2 C2          0.0021   -0.0041    0.0020 C.ar      1 <0>        -0.1126
      3 C3          0.0056   -0.6837   -1.1970 C.ar      1 <0>        -0.0291
      4 C4          0.0246   -2.0768   -1.1974 C.ar      1 <0>        -0.2171
      5 C5          0.0399   -2.7831    0.0149 C.ar      1 <0>         0.1509
      6 C6          0.0365   -2.0798    1.2129 C.ar      1 <0>        -0.1369
      7 C7          0.0229   -0.7009    1.2009 C.ar      1 <0>        -0.0278
      8 C8          0.0250    0.0564    2.5038 C.3       1 <0>        -0.1221
      9 O1          0.0573   -4.1326    0.0036 O.3       1 <0>        -0.2626
     10 C9          0.0606   -4.8386   -1.1341 C.2       1 <0>         0.3635
     11 C10         0.0468   -4.2527   -2.3598 C.2       1 <0>        -0.3279
     12 C11         0.0286   -2.8455   -2.4588 C.2       1 <0>         0.4348
     13 O2          0.0153   -2.2858   -3.5430 O.2       1 <0>        -0.4601
     14 C12         0.0519   -5.1005   -3.6056 C.3       1 <0>         0.0445
     15 C13        -1.3633   -5.2996   -4.0836 C.2       1 <0>        -0.3277
     16 C14        -2.1568   -6.3328   -3.5421 C.2       1 <0>         0.4348
     17 O3         -1.7224   -7.0827   -2.6831 O.2       1 <0>        -0.4600
     18 C15        -3.5348   -6.4702   -4.0563 C.ar      1 <0>        -0.2171
     19 C16        -4.3910   -7.4608   -3.5804 C.ar      1 <0>        -0.0288
     20 C17        -5.6696   -7.5550   -4.0862 C.ar      1 <0>        -0.1128
     21 C18        -6.1022   -6.6704   -5.0627 C.ar      1 <0>        -0.0280
     22 C19        -5.2635   -5.6862   -5.5417 C.ar      1 <0>        -0.1366
     23 C20        -3.9713   -5.5742   -5.0440 C.ar      1 <0>         0.1508
     24 O4         -3.1342   -4.6176   -5.4975 O.3       1 <0>        -0.2626
     25 C21        -1.8851   -4.4817   -5.0347 C.2       1 <0>         0.3634
     26 O5         -1.1120   -3.4956   -5.5364 O.3       1 <0>        -0.3884
     27 C22        -7.5029   -6.7862   -5.6064 C.3       1 <0>        -0.1236
     28 C23        -6.6014   -8.6240   -3.5762 C.3       1 <0>        -0.1170
     29 O6          0.0788   -6.1862   -1.0603 O.3       1 <0>        -0.3883
     30 H1          1.0042    1.8801    0.0026 H         1 <0>         0.0747
     31 H2         -0.5455    1.8639   -0.8728 H         1 <0>         0.0704
     32 H3         -0.5286    1.8543    0.9071 H         1 <0>         0.0725
     33 H4         -0.0065   -0.1399   -2.1301 H         1 <0>         0.1431
     34 H5          0.0478   -2.6122    2.1525 H         1 <0>         0.1428
     35 H6         -1.0021    0.2250    2.8276 H         1 <0>         0.0803
     36 H7          0.5539   -0.5234    3.2602 H         1 <0>         0.0737
     37 H8          0.5245    1.0153    2.3659 H         1 <0>         0.0779
     38 H9          0.6309   -4.6012   -4.3825 H         1 <0>         0.0854
     39 H10         0.5002   -6.0691   -3.3842 H         1 <0>         0.0854
     40 H11        -4.0549   -8.1507   -2.8204 H         1 <0>         0.1431
     41 H12        -5.6108   -5.0029   -6.3026 H         1 <0>         0.1428
     42 H13        -8.1768   -6.1731   -5.0079 H         1 <0>         0.0806
     43 H14        -7.5208   -6.4424   -6.6406 H         1 <0>         0.0731
     44 H15        -7.8242   -7.8269   -5.5639 H         1 <0>         0.0796
     45 H16        -7.1620   -8.2408   -2.7235 H         1 <0>         0.0743
     46 H17        -7.2943   -8.9098   -4.3677 H         1 <0>         0.0745
     47 H18        -6.0221   -9.4945   -3.2686 H         1 <0>         0.0702
     48 H19         0.0882   -6.5306   -0.1567 H         1 <0>         0.4080
     49 H20        -1.5503   -2.9552   -6.2078 H         1 <0>         0.4080
@<TRIPOS>BOND
     1    1    2 1
     2    1   30 1
     3    1   31 1
     4    1   32 1
     5    2    7 ar
     6    2    3 ar
     7    3    4 ar
     8    3   33 1
     9    4   12 1
    10    4    5 ar
    11    5    6 ar
    12    5    9 1
    13    6    7 ar
    14    6   34 1
    15    7    8 1
    16    8   35 1
    17    8   36 1
    18    8   37 1
    19    9   10 1
    20   10   11 2
    21   10   29 1
    22   11   12 1
    23   11   14 1
    24   12   13 2
    25   14   15 1
    26   14   38 1
    27   14   39 1
    28   15   25 2
    29   15   16 1
    30   16   17 2
    31   16   18 1
    32   18   23 ar
    33   18   19 ar
    34   19   20 ar
    35   19   40 1
    36   20   21 ar
    37   20   28 1
    38   21   22 ar
    39   21   27 1
    40   22   23 ar
    41   22   41 1
    42   23   24 1
    43   24   25 1
    44   25   26 1
    45   26   49 1
    46   27   42 1
    47   27   43 1
    48   27   44 1
    49   28   45 1
    50   28   46 1
    51   28   47 1
    52   29   48 1
@<TRIPOS>MOLECULE
ZINC45261493
   48    51     0     0     0
SMALL
USER_CHARGES

@<TRIPOS>ATOM
      1 C1         -0.0184    1.5028    0.0103 C.3       1 <0>        -0.1094
      2 C2          0.0021   -0.0041    0.0020 C.ar      1 <0>        -0.1225
      3 C3          0.0056   -0.6829   -1.1967 C.ar      1 <0>        -0.0423
      4 C4          0.0246   -2.0789   -1.1988 C.ar      1 <0>        -0.1352
      5 C5          0.0399   -2.7834    0.0159 C.ar      1 <0>         0.1593
      6 C6          0.0365   -2.0798    1.2130 C.ar      1 <0>        -0.1401
      7 C7          0.0229   -0.7005    1.2011 C.ar      1 <0>        -0.0398
      8 C8          0.0255    0.0570    2.5039 C.3       1 <0>        -0.1164
      9 O1          0.0573   -4.1339    0.0096 O.3       1 <0>        -0.2879
     10 C9          0.0604   -4.8334   -1.1363 C.2       1 <0>         0.5089
     11 O2          0.0759   -6.0510   -1.0869 O.2       1 <0>        -0.4169
     12 C10         0.0459   -4.2018   -2.3893 C.2       1 <0>        -0.3020
     13 C11         0.0284   -2.8362   -2.4602 C.2       1 <0>         0.2186
     14 O3          0.0146   -2.2008   -3.6541 O.3       1 <0>        -0.4553
     15 C12         0.0496   -5.0250   -3.6516 C.3       1 <0>         0.0624
     16 C13         1.4678   -5.3854   -4.0121 C.2       1 <0>        -0.4836
     17 C14         1.9912   -6.5873   -3.6224 C.2       1 <0>         0.3477
     18 C15         3.3804   -6.8907   -3.9998 C.ar      1 <0>        -0.1683
     19 C16         3.9783   -8.0991   -3.6357 C.ar      1 <0>        -0.0359
     20 C17         5.2805   -8.3526   -4.0051 C.ar      1 <0>        -0.1354
     21 C18         5.9967   -7.4149   -4.7347 C.ar      1 <0>        -0.0531
     22 C19         5.4183   -6.2176   -5.1003 C.ar      1 <0>        -0.1519
     23 C20         4.1059   -5.9422   -4.7382 C.ar      1 <0>         0.1513
     24 O4          3.5237   -4.7752   -5.0892 O.3       1 <0>        -0.2965
     25 C21         2.2550   -4.4916   -4.7540 C.2       1 <0>         0.5145
     26 O5          1.7752   -3.4259   -5.0996 O.2       1 <0>        -0.5558
     27 C22         7.4208   -7.7073   -5.1313 C.3       1 <0>        -0.1127
     28 C23         5.9309   -9.6547   -3.6145 C.3       1 <0>        -0.1068
     29 O6          1.2540   -7.4703   -2.9111 O.3       1 <0>        -0.6135
     30 H1          1.0042    1.8801    0.0026 H         1 <0>         0.0694
     31 H2         -0.5455    1.8639   -0.8728 H         1 <0>         0.0668
     32 H3         -0.5286    1.8543    0.9071 H         1 <0>         0.0682
     33 H4         -0.0065   -0.1384   -2.1293 H         1 <0>         0.1403
     34 H5          0.0477   -2.6120    2.1527 H         1 <0>         0.1409
     35 H6         -1.0015    0.2260    2.8279 H         1 <0>         0.0752
     36 H7          0.5544   -0.5228    3.2603 H         1 <0>         0.0702
     37 H8          0.5253    1.0158    2.3658 H         1 <0>         0.0729
     38 H9         -0.5276   -5.9359   -3.4930 H         1 <0>         0.0843
     39 H10        -0.3962   -4.4489   -4.4623 H         1 <0>         0.0468
     40 H11         3.4227   -8.8304   -3.0674 H         1 <0>         0.1351
     41 H12         5.9854   -5.4945   -5.6677 H         1 <0>         0.1300
     42 H13         7.4331   -8.2050   -6.1009 H         1 <0>         0.0701
     43 H14         7.9793   -6.7734   -5.1951 H         1 <0>         0.0645
     44 H15         7.8802   -8.3550   -4.3846 H         1 <0>         0.0707
     45 H16         5.7565  -10.3962   -4.3942 H         1 <0>         0.0646
     46 H17         7.0031   -9.5026   -3.4909 H         1 <0>         0.0654
     47 H18         5.5033  -10.0071   -2.6758 H         1 <0>         0.0631
     48 H19         0.0187   -2.7958   -4.4163 H         1 <0>         0.4200
@<TRIPOS>BOND
     1    1    2 1
     2    1   30 1
     3    1   31 1
     4    1   32 1
     5    2    7 ar
     6    2    3 ar
     7    3    4 ar
     8    3   33 1
     9    4   13 1
    10    4    5 ar
    11    5    6 ar
    12    5    9 1
    13    6    7 ar
    14    6   34 1
    15    7    8 1
    16    8   35 1
    17    8   36 1
    18    8   37 1
    19    9   10 1
    20   10   11 2
    21   10   12 1
    22   12   13 2
    23   12   15 1
    24   13   14 1
    25   14   48 1
    26   15   16 1
    27   15   38 1
    28   15   39 1
    29   16   25 1
    30   16   17 2
    31   17   18 1
    32   17   29 1
    33   18   23 ar
    34   18   19 ar
    35   19   20 ar
    36   19   40 1
    37   20   21 ar
    38   20   28 1
    39   21   22 ar
    40   21   27 1
    41   22   23 ar
    42   22   41 1
    43   23   24 1
    44   24   25 1
    45   25   26 2
    46   27   42 1
    47   27   43 1
    48   27   44 1
    49   28   45 1
    50   28   46 1
    51   28   47 1
@<TRIPOS>MOLECULE
ZINC06580932
   30    32     0     0     0
SMALL
USER_CHARGES
3-benzyl-4-hydroxy-chromen-2-one
@<TRIPOS>ATOM
      1 C1         -3.6256   -3.7616   -4.0101 C.ar      1 <0>        -0.1441
      2 C2         -2.7597   -4.6292   -3.3709 C.ar      1 <0>        -0.1311
      3 C3         -2.3651   -4.3781   -2.0701 C.ar      1 <0>        -0.1164
      4 C4         -2.8366   -3.2598   -1.4083 C.ar      1 <0>        -0.0484
      5 C5         -3.7069   -2.3953   -2.0456 C.ar      1 <0>        -0.1081
      6 C6         -4.0975   -2.6436   -3.3482 C.ar      1 <0>        -0.1307
      7 C7         -2.4067   -2.9864    0.0099 C.3       1 <0>         0.0296
      8 C8         -1.1568   -2.1445    0.0025 C.2       1 <0>        -0.4655
      9 C9         -1.2479   -0.7799    0.0103 C.2       1 <0>         0.3437
     10 C10         0.0021   -0.0041    0.0020 C.ar      1 <0>        -0.1682
     11 C11        -0.0169    1.3923    0.0097 C.ar      1 <0>        -0.0418
     12 C12         1.1710    2.0890    0.0021 C.ar      1 <0>        -0.1680
     13 C13         2.3808    1.4104   -0.0140 C.ar      1 <0>        -0.0842
     14 C14         2.4135    0.0318   -0.0213 C.ar      1 <0>        -0.1552
     15 C15         1.2269   -0.6901   -0.0134 C.ar      1 <0>         0.1527
     16 O1          1.2407   -2.0406   -0.0207 O.3       1 <0>        -0.2998
     17 C16         0.1054   -2.7573   -0.0129 C.2       1 <0>         0.5144
     18 O2          0.1730   -3.9741   -0.0196 O.2       1 <0>        -0.5400
     19 O3         -2.4510   -0.1622    0.0247 O.3       1 <0>        -0.6543
     20 H1         -3.9337   -3.9576   -5.0265 H         1 <0>         0.1090
     21 H2         -2.3913   -5.5029   -3.8879 H         1 <0>         0.1107
     22 H3         -1.6886   -5.0559   -1.5707 H         1 <0>         0.1217
     23 H4         -4.0788   -1.5240   -1.5271 H         1 <0>         0.1268
     24 H5         -4.7743   -1.9660   -3.8475 H         1 <0>         0.1109
     25 H6         -3.2077   -2.4490    0.5387 H         1 <0>         0.0668
     26 H7         -2.2043   -3.9388    0.5218 H         1 <0>         0.0572
     27 H8         -0.9576    1.9227    0.0170 H         1 <0>         0.1342
     28 H9          1.1607    3.1690    0.0076 H         1 <0>         0.1218
     29 H10         3.3062    1.9672   -0.0202 H         1 <0>         0.1258
     30 H11         3.3611   -0.4862   -0.0335 H         1 <0>         0.1304
@<TRIPOS>BOND
     1    1    6 ar
     2    1    2 ar
     3    1   20 1
     4    2    3 ar
     5    2   21 1
     6    3    4 ar
     7    3   22 1
     8    4    5 ar
     9    4    7 1
    10    5    6 ar
    11    5   23 1
    12    6   24 1
    13    7    8 1
    14    7   25 1
    15    7   26 1
    16    8   17 1
    17    8    9 2
    18    9   10 1
    19    9   19 1
    20   10   15 ar
    21   10   11 ar
    22   11   12 ar
    23   11   27 1
    24   12   13 ar
    25   12   28 1
    26   13   14 ar
    27   13   29 1
    28   14   15 ar
    29   14   30 1
    30   15   16 1
    31   16   17 1
    32   17   18 2
@<TRIPOS>MOLECULE
ZINC06580932
   31    33     0     0     0
SMALL
USER_CHARGES
3-benzyl-4-hydroxy-chromen-2-one
@<TRIPOS>ATOM
      1 C1         -3.6256   -3.7616   -4.0101 C.ar      1 <0>        -0.1242
      2 C2         -2.7597   -4.6292   -3.3709 C.ar      1 <0>        -0.1214
      3 C3         -2.3651   -4.3781   -2.0701 C.ar      1 <0>        -0.1091
      4 C4         -2.8366   -3.2598   -1.4083 C.ar      1 <0>        -0.0790
      5 C5         -3.7069   -2.3953   -2.0456 C.ar      1 <0>        -0.1117
      6 C6         -4.0975   -2.6436   -3.3482 C.ar      1 <0>        -0.1245
      7 C7         -2.4067   -2.9864    0.0099 C.3       1 <0>        -0.0078
      8 C8         -1.1568   -2.1445    0.0025 C.2       1 <0>        -0.2820
      9 C9         -1.2479   -0.7799    0.0103 C.2       1 <0>         0.2574
     10 C10         0.0021   -0.0041    0.0020 C.ar      1 <0>        -0.1922
     11 C11        -0.0169    1.3923    0.0097 C.ar      1 <0>        -0.0654
     12 C12         1.1710    2.0890    0.0021 C.ar      1 <0>        -0.1360
     13 C13         2.3808    1.4104   -0.0140 C.ar      1 <0>        -0.0585
     14 C14         2.4135    0.0318   -0.0213 C.ar      1 <0>        -0.1312
     15 C15         1.2269   -0.6901   -0.0134 C.ar      1 <0>         0.1639
     16 O1          1.2407   -2.0406   -0.0207 O.3       1 <0>        -0.2746
     17 C16         0.1054   -2.7573   -0.0129 C.2       1 <0>         0.5297
     18 O2          0.1730   -3.9741   -0.0196 O.2       1 <0>        -0.4603
     19 O3         -2.4510   -0.1622    0.0247 O.3       1 <0>        -0.4690
     20 H1         -3.9337   -3.9576   -5.0265 H         1 <0>         0.1197
     21 H2         -2.3913   -5.5029   -3.8879 H         1 <0>         0.1212
     22 H3         -1.6886   -5.0559   -1.5707 H         1 <0>         0.1265
     23 H4         -4.0788   -1.5240   -1.5271 H         1 <0>         0.1228
     24 H5         -4.7743   -1.9660   -3.8475 H         1 <0>         0.1197
     25 H6         -3.2077   -2.4490    0.5387 H         1 <0>         0.0876
     26 H7         -2.2043   -3.9388    0.5218 H         1 <0>         0.0893
     27 H8         -0.9576    1.9227    0.0170 H         1 <0>         0.1356
     28 H9          1.1607    3.1690    0.0076 H         1 <0>         0.1397
     29 H10         3.3062    1.9672   -0.0202 H         1 <0>         0.1443
     30 H11         3.3611   -0.4862   -0.0335 H         1 <0>         0.1486
     31 H12        -2.5051    0.9365    0.0308 H         1 <0>         0.4408
@<TRIPOS>BOND
     1    1    6 ar
     2    1    2 ar
     3    1   20 1
     4    2    3 ar
     5    2   21 1
     6    3    4 ar
     7    3   22 1
     8    4    5 ar
     9    4    7 1
    10    5    6 ar
    11    5   23 1
    12    6   24 1
    13    7    8 1
    14    7   25 1
    15    7   26 1
    16    8   17 1
    17    8    9 2
    18    9   10 1
    19    9   19 1
    20   10   15 ar
    21   10   11 ar
    22   11   12 ar
    23   11   27 1
    24   12   13 ar
    25   12   28 1
    26   13   14 ar
    27   13   29 1
    28   14   15 ar
    29   14   30 1
    30   15   16 1
    31   16   17 1
    32   17   18 2
    33   19   31 1
@<TRIPOS>MOLECULE
ZINC05393058
   54    56     0     0     0
SMALL
USER_CHARGES
2-[3-[bis(2-hydroxyethyl)amino]propylamino]-1,4-dihydroxy-anthracene-9,10-dione
@<TRIPOS>ATOM
      1 C1          2.1742   -1.3150   -0.2893 C.ar      1 <0>        -0.0950
      2 C2          2.2848    0.0638   -0.2676 C.ar      1 <0>        -0.0985
      3 C3          1.1523    0.8566   -0.2260 C.ar      1 <0>        -0.0677
      4 C4         -0.1082    0.2654   -0.2066 C.ar      1 <0>        -0.1245
      5 C5         -0.2207   -1.1358   -0.2291 C.ar      1 <0>        -0.1185
      6 C6          0.9299   -1.9186   -0.2705 C.ar      1 <0>        -0.0697
      7 C7         -1.5546   -1.7721   -0.2083 C.2       1 <0>         0.4354
      8 O1         -1.6509   -2.9846   -0.2274 O.2       1 <0>        -0.4202
      9 C8         -2.7640   -0.9395   -0.1641 C.ar      1 <0>        -0.1913
     10 C9         -4.0299   -1.5364   -0.1447 C.ar      1 <0>         0.2105
     11 C10        -5.1715   -0.7442   -0.1033 C.ar      1 <0>        -0.2072
     12 C11        -5.0670    0.6356   -0.0809 C.ar      1 <0>         0.2258
     13 C12        -3.8048    1.2513   -0.0999 C.ar      1 <0>         0.0815
     14 C13        -2.6529    0.4685   -0.1414 C.ar      1 <0>        -0.0815
     15 C14        -1.3239    1.1040   -0.1564 C.2       1 <0>         0.4328
     16 O2         -1.2278    2.3158   -0.1366 O.2       1 <0>        -0.4100
     17 O3         -3.7075    2.6039   -0.0784 O.3       1 <0>        -0.4692
     18 N1         -6.2172    1.4163   -0.0400 N.pl3     1 <0>        -0.7328
     19 C15        -7.5355    0.7777   -0.0201 C.3       1 <0>         0.1256
     20 C16        -8.6227    1.8533    0.0246 C.3       1 <0>        -0.1625
     21 C17        -9.9995    1.1864    0.0454 C.3       1 <0>        -0.0052
     22 C18       -11.2551    2.9499   -1.0391 C.3       1 <0>        -0.0045
     23 C19       -12.1506    4.1606   -0.7685 C.3       1 <0>         0.0449
     24 O4        -11.4698    5.0731    0.0952 O.3       1 <0>        -0.5774
     25 C20       -12.2909    1.6183    0.6977 C.3       1 <0>        -0.0082
     26 C21       -12.1595    1.2972    2.1878 C.3       1 <0>         0.0443
     27 O5        -12.0098    2.5119    2.9255 O.3       1 <0>        -0.5775
     28 O6         -4.1428   -2.8875   -0.1667 O.3       1 <0>        -0.4745
     29 H1          3.0654   -1.9241   -0.3214 H         1 <0>         0.1402
     30 H2          3.2616    0.5241   -0.2833 H         1 <0>         0.1401
     31 H3          1.2455    1.9325   -0.2092 H         1 <0>         0.1438
     32 H4          0.8509   -2.9956   -0.2884 H         1 <0>         0.1446
     33 H5         -6.1464   -1.2087   -0.0880 H         1 <0>         0.1430
     34 H6         -3.7005    3.0117   -0.9551 H         1 <0>         0.3912
     35 H7         -6.1466    2.3836   -0.0246 H         1 <0>         0.4116
     36 H8         -7.6598    0.1726   -0.9182 H         1 <0>         0.0764
     37 H9         -7.6177    0.1412    0.8610 H         1 <0>         0.0747
     38 H10        -8.4984    2.4584    0.9227 H         1 <0>         0.0966
     39 H11        -8.5405    2.4898   -0.8565 H         1 <0>         0.0963
     40 H12       -10.1604    0.6558   -0.8931 H         1 <0>         0.1375
     41 H13       -10.0490    0.4808    0.8747 H         1 <0>         0.1321
     42 H14       -10.2964    3.2878   -1.4327 H         1 <0>         0.1362
     43 H15       -11.7369    2.2970   -1.7670 H         1 <0>         0.1445
     44 H16       -12.3844    4.6573   -1.7101 H         1 <0>         0.0945
     45 H17       -13.0740    3.8303   -0.2928 H         1 <0>         0.0712
     46 H18       -11.9796    5.8662    0.3098 H         1 <0>         0.4095
     47 H19       -13.1086    2.3234    0.5487 H         1 <0>         0.1373
     48 H20       -12.4965    0.7015    0.1452 H         1 <0>         0.1454
     49 H21       -13.0535    0.7739    2.5270 H         1 <0>         0.0958
     50 H22       -11.2860    0.6651    2.3476 H         1 <0>         0.0702
     51 H23       -11.9208    2.3841    3.8799 H         1 <0>         0.4094
     52 H24        -4.1544   -3.2956    0.7099 H         1 <0>         0.4036
     53 N2        -11.0288    2.2307    0.2322 N.4       1 <0>        -0.3936
     54 H25       -10.7014    2.8988    0.9397 H         1 <0>         0.4434
@<TRIPOS>BOND
     1    1    6 ar
     2    1    2 ar
     3    1   29 1
     4    2    3 ar
     5    2   30 1
     6    3    4 ar
     7    3   31 1
     8    4   15 1
     9    4    5 ar
    10    5    6 ar
    11    5    7 1
    12    6   32 1
    13    7    8 2
    14    7    9 1
    15    9   14 ar
    16    9   10 ar
    17   10   11 ar
    18   10   28 1
    19   11   12 ar
    20   11   33 1
    21   12   13 ar
    22   12   18 1
    23   13   14 ar
    24   13   17 1
    25   14   15 1
    26   15   16 2
    27   17   34 1
    28   18   19 1
    29   18   35 1
    30   19   20 1
    31   19   36 1
    32   19   37 1
    33   20   21 1
    34   20   38 1
    35   20   39 1
    36   21   40 1
    37   21   41 1
    38   21   53 1
    39   22   23 1
    40   22   42 1
    41   22   43 1
    42   22   53 1
    43   23   24 1
    44   23   44 1
    45   23   45 1
    46   24   46 1
    47   25   26 1
    48   25   47 1
    49   25   48 1
    50   25   53 1
    51   26   27 1
    52   26   49 1
    53   26   50 1
    54   27   51 1
    55   28   52 1
    56   53   54 1
