@<TRIPOS>MOLECULE
ZINC03877501
   48    51     0     0     0
SMALL
USER_CHARGES

@<TRIPOS>ATOM
      1 C1         -3.2174    2.2385    1.7664 C.3       1 <0>        -0.1704
      2 C2         -2.1091    1.7071    0.8552 C.3       1 <0>         0.0524
      3 N1         -2.3706    0.3011    0.5373 N.ar      1 <0>        -0.3933
      4 C3         -1.9419   -0.6576    1.3793 C.ar      1 <0>         0.3683
      5 C4         -2.1681   -2.0283    1.1194 C.ar      1 <0>        -0.1699
      6 C5         -2.8326   -2.4056   -0.0016 C.ar      1 <0>         0.0289
      7 C6         -3.2985   -1.3642   -0.9156 C.ar      1 <0>        -0.0990
      8 C7         -3.0463   -0.0115   -0.5993 C.ar      1 <0>         0.1343
      9 C8         -3.4936    0.9877   -1.4680 C.ar      1 <0>        -0.1453
     10 C9         -4.1703    0.6464   -2.6043 C.ar      1 <0>        -0.0476
     11 C10        -4.4225   -0.6848   -2.9123 C.ar      1 <0>        -0.1088
     12 C11        -3.9894   -1.6851   -2.0891 C.ar      1 <0>        -0.0614
     13 C12        -1.2555   -0.2883    2.5393 C.2       1 <0>        -0.4350
     14 C13        -0.0003    0.3186    2.4451 C.2       1 <0>         0.2978
     15 C14         0.6101    0.4459    1.1767 C.2       1 <0>        -0.2149
     16 C15         1.8286    1.0320    1.0660 C.2       1 <0>         0.0112
     17 C16         2.4773    1.5193    2.2821 C.ar      1 <0>        -0.1356
     18 C17         3.7335    2.1336    2.2375 C.ar      1 <0>        -0.0527
     19 C18         4.3093    2.5772    3.3939 C.ar      1 <0>        -0.1372
     20 C19         3.6605    2.4246    4.6131 C.ar      1 <0>        -0.0497
     21 C20         2.4336    1.8286    4.6855 C.ar      1 <0>        -0.1625
     22 C21         1.8173    1.3638    3.5205 C.ar      1 <0>         0.1753
     23 N2          0.5948    0.7722    3.5640 N.pl3     1 <0>        -0.4621
     24 C22        -0.0854    0.6203    4.8526 C.3       1 <0>         0.0760
     25 C23         0.3114   -0.7154    5.4844 C.3       1 <0>        -0.1774
     26 H1         -2.9780    3.2566    2.0737 H         1 <0>         0.0932
     27 H2         -4.1644    2.2351    1.2267 H         1 <0>         0.0718
     28 H3         -3.2992    1.6026    2.6478 H         1 <0>         0.0742
     29 H4         -2.0855    2.2895   -0.0659 H         1 <0>         0.1149
     30 H5         -1.1487    1.7921    1.3635 H         1 <0>         0.1159
     31 H6         -1.8117   -2.7754    1.8131 H         1 <0>         0.1773
     32 H7         -3.0125   -3.4492   -0.2135 H         1 <0>         0.1711
     33 H8         -3.3051    2.0267   -1.2413 H         1 <0>         0.1482
     34 H9         -4.5144    1.4220   -3.2725 H         1 <0>         0.1493
     35 H10        -4.9594   -0.9316   -3.8163 H         1 <0>         0.1483
     36 H11        -4.1895   -2.7172   -2.3366 H         1 <0>         0.1536
     37 H12        -1.6952   -0.4720    3.5085 H         1 <0>         0.1685
     38 H13         0.1066    0.0763    0.2957 H         1 <0>         0.1394
     39 H14         2.3076    1.1356    0.1035 H         1 <0>         0.1541
     40 H15         4.2450    2.2560    1.2942 H         1 <0>         0.1421
     41 H16         5.2791    3.0511    3.3603 H         1 <0>         0.1390
     42 H17         4.1331    2.7819    5.5161 H         1 <0>         0.1408
     43 H18         1.9411    1.7172    5.6402 H         1 <0>         0.1414
     44 H19         0.2048    1.4359    5.5150 H         1 <0>         0.1043
     45 H20        -1.1642    0.6434    4.6989 H         1 <0>         0.1069
     46 H21        -0.1946   -0.8285    6.4432 H         1 <0>         0.0869
     47 H22         0.0213   -1.5310    4.8220 H         1 <0>         0.0701
     48 H23         1.3903   -0.7385    5.6381 H         1 <0>         0.0676
@<TRIPOS>BOND
     1    1    2 1
     2    1   26 1
     3    1   27 1
     4    1   28 1
     5    2    3 1
     6    2   29 1
     7    2   30 1
     8    3    8 ar
     9    3    4 ar
    10    4    5 ar
    11    4   13 1
    12    5    6 ar
    13    5   31 1
    14    6    7 ar
    15    6   32 1
    16    7   12 ar
    17    7    8 ar
    18    8    9 ar
    19    9   10 ar
    20    9   33 1
    21   10   11 ar
    22   10   34 1
    23   11   12 ar
    24   11   35 1
    25   12   36 1
    26   13   14 2
    27   13   37 1
    28   14   23 1
    29   14   15 1
    30   15   16 2
    31   15   38 1
    32   16   17 1
    33   16   39 1
    34   17   22 ar
    35   17   18 ar
    36   18   19 ar
    37   18   40 1
    38   19   20 ar
    39   19   41 1
    40   20   21 ar
    41   20   42 1
    42   21   22 ar
    43   21   43 1
    44   22   23 1
    45   23   24 1
    46   24   25 1
    47   24   44 1
    48   24   45 1
    49   25   46 1
    50   25   47 1
    51   25   48 1
@<TRIPOS>MOLECULE
ZINC08619414
   48    51     0     0     0
SMALL
USER_CHARGES
1-ethyl-2-[(1-ethyl-2-quinolylidene)methyl]quinoline
@<TRIPOS>ATOM
      1 C1         -5.4447   -0.3223    0.7715 C.3       1 <0>        -0.1754
      2 C2         -5.1336    0.3709   -0.5566 C.3       1 <0>         0.0617
      3 N1         -4.9878    1.8114   -0.3331 N.ar      1 <0>        -0.4121
      4 C3         -3.8060    2.2997    0.0235 C.ar      1 <0>         0.3024
      5 C4         -3.6224    3.6802    0.2550 C.ar      1 <0>        -0.2032
      6 C5         -4.6671    4.5358    0.1010 C.ar      1 <0>         0.0151
      7 C6         -5.9203    4.0059   -0.2783 C.ar      1 <0>        -0.1206
      8 C7         -6.0471    2.6109   -0.4915 C.ar      1 <0>         0.1585
      9 C8         -7.2963    2.0874   -0.8689 C.ar      1 <0>        -0.1575
     10 C9         -8.3605    2.9229   -1.0234 C.ar      1 <0>        -0.0425
     11 C10        -8.2329    4.2934   -0.8132 C.ar      1 <0>        -0.1249
     12 C11        -7.0375    4.8361   -0.4462 C.ar      1 <0>        -0.0552
     13 C12        -2.6743    1.3897    0.1854 C.2       1 <0>        -0.4200
     14 C13        -1.5504    1.8030    0.8638 C.2       1 <0>         0.3553
     15 C14        -0.2740    1.6016    0.2849 C.2       1 <0>        -0.1783
     16 C15         0.8410    2.0059    0.9338 C.2       1 <0>         0.0167
     17 C16         0.7095    2.6492    2.2456 C.ar      1 <0>        -0.1140
     18 C17         1.8377    3.0818    2.9482 C.ar      1 <0>        -0.0559
     19 C18         1.6860    3.6826    4.1787 C.ar      1 <0>        -0.1233
     20 C19         0.4224    3.8607    4.7220 C.ar      1 <0>        -0.0516
     21 C20        -0.7010    3.4394    4.0405 C.ar      1 <0>        -0.1539
     22 C21        -0.5703    2.8309    2.7986 C.ar      1 <0>         0.1551
     23 N2         -1.6857    2.4024    2.1001 N.pl3     1 <0>        -0.4536
     24 C22        -3.0200    2.5908    2.6747 C.3       1 <0>         0.0591
     25 C23        -3.3180    1.4551    3.6556 C.3       1 <0>        -0.1732
     26 H1         -5.4668   -1.4017    0.6215 H         1 <0>         0.0935
     27 H2         -4.6741   -0.0726    1.5009 H         1 <0>         0.0713
     28 H3         -6.4146    0.0136    1.1382 H         1 <0>         0.0701
     29 H4         -5.9479    0.1927   -1.2589 H         1 <0>         0.1130
     30 H5         -4.2062   -0.0289   -0.9666 H         1 <0>         0.1163
     31 H6         -2.6535    4.0559    0.5491 H         1 <0>         0.1527
     32 H7         -4.5434    5.5952    0.2702 H         1 <0>         0.1619
     33 H8         -7.4115    1.0265   -1.0352 H         1 <0>         0.1472
     34 H9         -9.3182    2.5162   -1.3130 H         1 <0>         0.1461
     35 H10        -9.0922    4.9347   -0.9424 H         1 <0>         0.1439
     36 H11        -6.9515    5.9007   -0.2855 H         1 <0>         0.1482
     37 H12        -2.7198    0.3927   -0.2273 H         1 <0>         0.1694
     38 H13        -0.1911    1.1267   -0.6816 H         1 <0>         0.1698
     39 H14         1.8154    1.8571    0.4924 H         1 <0>         0.1622
     40 H15         2.8235    2.9449    2.5291 H         1 <0>         0.1485
     41 H16         2.5564    4.0173    4.7234 H         1 <0>         0.1441
     42 H17         0.3168    4.3330    5.6875 H         1 <0>         0.1447
     43 H18        -1.6806    3.5829    4.4718 H         1 <0>         0.1415
     44 H19        -3.0577    3.5446    3.2009 H         1 <0>         0.1057
     45 H20        -3.7630    2.5863    1.8772 H         1 <0>         0.1110
     46 H21        -3.1908    0.4970    3.1517 H         1 <0>         0.0714
     47 H22        -2.6318    1.5152    4.5004 H         1 <0>         0.0722
     48 H23        -4.3437    1.5439    4.0137 H         1 <0>         0.0864
@<TRIPOS>BOND
     1    1    2 1
     2    1   26 1
     3    1   27 1
     4    1   28 1
     5    2    3 1
     6    2   29 1
     7    2   30 1
     8    3    8 ar
     9    3    4 ar
    10    4    5 ar
    11    4   13 1
    12    5    6 ar
    13    5   31 1
    14    6    7 ar
    15    6   32 1
    16    7   12 ar
    17    7    8 ar
    18    8    9 ar
    19    9   10 ar
    20    9   33 1
    21   10   11 ar
    22   10   34 1
    23   11   12 ar
    24   11   35 1
    25   12   36 1
    26   13   14 2
    27   13   37 1
    28   14   23 1
    29   14   15 1
    30   15   16 2
    31   15   38 1
    32   16   17 1
    33   16   39 1
    34   17   22 ar
    35   17   18 ar
    36   18   19 ar
    37   18   40 1
    38   19   20 ar
    39   19   41 1
    40   20   21 ar
    41   20   42 1
    42   21   22 ar
    43   21   43 1
    44   22   23 1
    45   23   24 1
    46   24   25 1
    47   24   44 1
    48   24   45 1
    49   25   46 1
    50   25   47 1
    51   25   48 1
@<TRIPOS>MOLECULE
ZINC27215871
   53    56     0     0     0
SMALL
USER_CHARGES
(3-diethylaminopropylamino)-hydroxy-BLAHone
@<TRIPOS>ATOM
      1 C1         -1.6925    3.3187   -5.0448 C.3       1 <0>        -0.1924
      2 C2         -0.6804    2.9188   -3.9694 C.3       1 <0>        -0.0117
      3 N1         -0.8150    1.4851   -3.6792 N.4       1 <0>        -0.4006
      4 C3         -0.4286    0.6742   -4.8415 C.3       1 <0>        -0.0165
      5 C4         -1.0216   -0.7295   -4.7040 C.3       1 <0>        -0.1898
      6 C5         -0.0321    1.1122   -2.4934 C.3       1 <0>        -0.0081
      7 C6         -0.7575    1.5878   -1.2331 C.3       1 <0>        -0.1631
      8 C7         -0.0094    1.0890    0.0048 C.3       1 <0>         0.1078
      9 N2         -0.7040    1.5444    1.2116 N.pl3     1 <0>        -0.7090
     10 C8         -0.2083    1.2126    2.4642 C.2       1 <0>         0.3536
     11 C9          0.9494    0.4397    2.5926 C.2       1 <0>        -0.2285
     12 C10         1.4742    0.0970    3.8218 C.2       1 <0>         0.1046
     13 C11         0.8371    0.5144    4.9952 C.2       1 <0>         0.0028
     14 C12        -0.3163    1.2763    4.8528 C.2       1 <0>         0.0932
     15 C13        -0.8599    1.6396    3.6278 C.2       1 <0>        -0.2060
     16 C14        -2.0856    2.4494    3.6548 C.2       1 <0>         0.4319
     17 O1         -2.6344    2.8179    2.6320 O.3       1 <0>        -0.3906
     18 C15        -2.6185    2.7932    4.9958 C.ar      1 <0>        -0.1661
     19 C16        -3.7823    3.5593    5.0992 C.ar      1 <0>        -0.1232
     20 C17        -4.2841    3.8836    6.3445 C.ar      1 <0>         0.1798
     21 C18        -3.6333    3.4498    7.4952 C.ar      1 <0>        -0.1094
     22 C19        -2.4853    2.6933    7.4053 C.ar      1 <0>        -0.0934
     23 C20        -1.9641    2.3569    6.1609 C.ar      1 <0>         0.1834
     24 N3         -0.8049    1.5943    6.0784 N.pl3     1 <0>        -0.4038
     25 C21         0.0575    1.0234    6.9702 C.2       1 <0>         0.2621
     26 N4          1.0154    0.3933    6.3348 N.2       1 <0>        -0.4177
     27 O2         -5.4165    4.6290    6.4461 O.3       1 <0>        -0.4953
     28 H1         -1.5917    4.3923   -5.2621 H         1 <0>         0.1093
     29 H2         -2.7111    3.1115   -4.6848 H         1 <0>         0.0809
     30 H3         -1.5024    2.7398   -5.9606 H         1 <0>         0.0836
     31 H4          0.3382    3.1260   -4.3294 H         1 <0>         0.1299
     32 H5         -0.8705    3.4977   -3.0536 H         1 <0>         0.1271
     33 H6         -0.8096    1.1448   -5.7599 H         1 <0>         0.1367
     34 H7          0.6681    0.6055   -4.8925 H         1 <0>         0.1303
     35 H8         -0.7322   -1.3367   -5.5744 H         1 <0>         0.1109
     36 H9         -2.1183   -0.6609   -4.6531 H         1 <0>         0.0816
     37 H10        -0.6406   -1.2001   -3.7856 H         1 <0>         0.0778
     38 H11         0.0835    0.0188   -2.4594 H         1 <0>         0.1380
     39 H12         0.9600    1.5844   -2.5457 H         1 <0>         0.1357
     40 H13        -0.7918    2.6872   -1.2226 H         1 <0>         0.0982
     41 H14        -1.7826    1.1890   -1.2275 H         1 <0>         0.0980
     42 H15         0.0249   -0.0104   -0.0057 H         1 <0>         0.0932
     43 H16         1.0157    1.4878   -0.0008 H         1 <0>         0.0934
     44 H17        -1.6186    2.1494    1.1246 H         1 <0>         0.4368
     45 H18         1.4534    0.1035    1.6986 H         1 <0>         0.1563
     46 H19         2.3738   -0.4979    3.8780 H         1 <0>         0.1668
     47 H20        -4.2888    3.8969    4.2071 H         1 <0>         0.1503
     48 H21        -4.0311    3.7075    8.4657 H         1 <0>         0.1659
     49 H22        -1.9882    2.3608    8.3046 H         1 <0>         0.1626
     50 H23        -0.0363    1.0825    8.0445 H         1 <0>         0.2379
     51 H24        -5.8174    4.8881    7.4372 H         1 <0>         0.4637
     52 H25        -3.5511    3.4234    2.6871 H         1 <0>         0.5026
     53 H26        -1.8742    1.2821   -3.4626 H         1 <0>         0.4383
@<TRIPOS>BOND
     1    1    2 1
     2    1   28 1
     3    1   29 1
     4    1   30 1
     5    2    3 1
     6    2   31 1
     7    2   32 1
     8    3    4 1
     9    3    6 1
    10    3   53 1
    11    4    5 1
    12    4   33 1
    13    4   34 1
    14    5   35 1
    15    5   36 1
    16    5   37 1
    17    6    7 1
    18    6   38 1
    19    6   39 1
    20    7    8 1
    21    7   40 1
    22    7   41 1
    23    8    9 1
    24    8   42 1
    25    8   43 1
    26    9   10 2
    27    9   44 1
    28   10   15 1
    29   10   11 1
    30   11   12 2
    31   11   45 1
    32   12   13 1
    33   12   46 1
    34   13   26 1
    35   13   14 2
    36   14   24 1
    37   14   15 1
    38   15   16 2
    39   16   17 1
    40   16   18 1
    41   17   52 1
    42   18   23 ar
    43   18   19 ar
    44   19   20 ar
    45   19   47 1
    46   20   21 ar
    47   20   27 1
    48   21   22 ar
    49   21   48 1
    50   22   23 ar
    51   22   49 1
    52   23   24 1
    53   24   25 1
    54   25   26 2
    55   25   50 1
    56   27   51 1
@<TRIPOS>MOLECULE
ZINC27215871
   54    57     0     0     0
SMALL
USER_CHARGES
(3-diethylaminopropylamino)-hydroxy-BLAHone
@<TRIPOS>ATOM
      1 C1         -1.6925    3.3187   -5.0448 C.3       1 <0>        -0.1940
      2 C2         -0.6804    2.9188   -3.9694 C.3       1 <0>        -0.0113
      3 N1         -0.8150    1.4851   -3.6792 N.4       1 <0>        -0.4007
      4 C3         -0.4286    0.6742   -4.8415 C.3       1 <0>        -0.0176
      5 C4         -1.0216   -0.7295   -4.7040 C.3       1 <0>        -0.1896
      6 C5         -0.0321    1.1122   -2.4934 C.3       1 <0>        -0.0083
      7 C6         -0.7575    1.5878   -1.2331 C.3       1 <0>        -0.1661
      8 C7         -0.0094    1.0890    0.0048 C.3       1 <0>         0.0956
      9 N2         -0.7040    1.5444    1.2116 N.pl3     1 <0>        -0.6825
     10 C8         -0.2083    1.2126    2.4642 C.2       1 <0>         0.3723
     11 C9          0.9494    0.4397    2.5926 C.2       1 <0>        -0.1823
     12 C10         1.4742    0.0970    3.8218 C.2       1 <0>         0.0742
     13 C11         0.8371    0.5144    4.9952 C.2       1 <0>         0.0042
     14 C12        -0.3163    1.2763    4.8528 C.2       1 <0>         0.1353
     15 C13        -0.8599    1.6396    3.6278 C.2       1 <0>        -0.2224
     16 C14        -2.0856    2.4494    3.6548 C.2       1 <0>         0.4628
     17 O1         -2.6344    2.8179    2.6320 O.3       1 <0>        -0.3761
     18 C15        -2.6185    2.7932    4.9958 C.ar      1 <0>        -0.1470
     19 C16        -3.7823    3.5593    5.0992 C.ar      1 <0>        -0.1127
     20 C17        -4.2841    3.8836    6.3445 C.ar      1 <0>         0.2103
     21 C18        -3.6333    3.4498    7.4952 C.ar      1 <0>        -0.1088
     22 C19        -2.4853    2.6933    7.4053 C.ar      1 <0>        -0.0723
     23 C20        -1.9641    2.3569    6.1609 C.ar      1 <0>         0.1361
     24 N3         -0.8049    1.5943    6.0784 N.pl3     1 <0>        -0.3686
     25 C21         0.0575    1.0234    6.9702 C.cat     1 <0>         0.3905
     26 N4          1.0154    0.3933    6.3348 N.pl3     1 <0>        -0.4599
     27 O2         -5.4165    4.6290    6.4461 O.3       1 <0>        -0.4834
     28 H1         -1.5917    4.3923   -5.2621 H         1 <0>         0.1112
     29 H2         -2.7111    3.1115   -4.6848 H         1 <0>         0.0813
     30 H3         -1.5024    2.7398   -5.9606 H         1 <0>         0.0856
     31 H4          0.3382    3.1260   -4.3294 H         1 <0>         0.1312
     32 H5         -0.8705    3.4977   -3.0536 H         1 <0>         0.1253
     33 H6         -0.8096    1.1448   -5.7599 H         1 <0>         0.1395
     34 H7          0.6681    0.6055   -4.8925 H         1 <0>         0.1316
     35 H8         -0.7322   -1.3367   -5.5744 H         1 <0>         0.1133
     36 H9         -2.1183   -0.6609   -4.6531 H         1 <0>         0.0823
     37 H10        -0.6406   -1.2001   -3.7856 H         1 <0>         0.0759
     38 H11         0.0835    0.0188   -2.4594 H         1 <0>         0.1390
     39 H12         0.9600    1.5844   -2.5457 H         1 <0>         0.1370
     40 H13        -0.7918    2.6872   -1.2226 H         1 <0>         0.1018
     41 H14        -1.7826    1.1890   -1.2275 H         1 <0>         0.1015
     42 H15         0.0249   -0.0104   -0.0057 H         1 <0>         0.1044
     43 H16         1.0157    1.4878   -0.0008 H         1 <0>         0.1046
     44 H17        -1.6186    2.1494    1.1246 H         1 <0>         0.4466
     45 H18         1.4534    0.1035    1.6986 H         1 <0>         0.1750
     46 H19         2.3738   -0.4979    3.8780 H         1 <0>         0.1843
     47 H20        -4.2888    3.8969    4.2071 H         1 <0>         0.1619
     48 H21        -4.0311    3.7075    8.4657 H         1 <0>         0.1771
     49 H22        -1.9882    2.3608    8.3046 H         1 <0>         0.1689
     50 H23        -0.0363    1.0825    8.0445 H         1 <0>         0.2824
     51 H24        -5.8174    4.8881    7.4372 H         1 <0>         0.4769
     52 H25        -3.5511    3.4234    2.6871 H         1 <0>         0.5203
     53 H26        -1.8742    1.2821   -3.4626 H         1 <0>         0.4385
     54 H27         1.8730   -0.1733    6.7265 H         1 <0>         0.5247
@<TRIPOS>BOND
     1    1    2 1
     2    1   28 1
     3    1   29 1
     4    1   30 1
     5    2    3 1
     6    2   31 1
     7    2   32 1
     8    3    4 1
     9    3    6 1
    10    3   53 1
    11    4    5 1
    12    4   33 1
    13    4   34 1
    14    5   35 1
    15    5   36 1
    16    5   37 1
    17    6    7 1
    18    6   38 1
    19    6   39 1
    20    7    8 1
    21    7   40 1
    22    7   41 1
    23    8    9 1
    24    8   42 1
    25    8   43 1
    26    9   10 2
    27    9   44 1
    28   10   15 1
    29   10   11 1
    30   11   12 2
    31   11   45 1
    32   12   13 1
    33   12   46 1
    34   13   26 1
    35   13   14 2
    36   14   24 1
    37   14   15 1
    38   15   16 2
    39   16   17 1
    40   16   18 1
    41   17   52 1
    42   18   23 ar
    43   18   19 ar
    44   19   20 ar
    45   19   47 1
    46   20   21 ar
    47   20   27 1
    48   21   22 ar
    49   21   48 1
    50   22   23 ar
    51   22   49 1
    52   23   24 1
    53   24   25 1
    54   25   26 2
    55   25   50 1
    56   26   54 1
    57   27   51 1
@<TRIPOS>MOLECULE
ZINC16957598
   56    60     0     0     0
SMALL
USER_CHARGES
(E)-1-[2-(3,5-diphenylpyrazol-1-yl)-4-methyl-thiazol-5-yl]-3-(3-nitrophenyl)prop-2-en-1-one
@<TRIPOS>ATOM
      1 C1         -1.9462    9.9191   -1.8852 C.3       1 <0>        -0.0951
      2 C2         -2.9208    9.2816   -0.9288 C.2       1 <0>         0.1654
      3 C3         -2.5051    8.3245   -0.0107 C.2       1 <0>        -0.2869
      4 S1         -4.0536    7.9562    0.8022 S.3       1 <0>         0.1688
      5 C4         -5.0503    9.0557   -0.0994 C.2       1 <0>         0.3220
      6 N1         -4.1856    9.6095   -0.9346 N.2       1 <0>        -0.5014
      7 N2         -6.4120    9.2907    0.0216 N.pl3     1 <0>        -0.2975
      8 C5         -7.3971    8.3403    0.0182 C.2       1 <0>         0.1401
      9 C6         -8.5897    8.9857    0.1598 C.2       1 <0>        -0.2095
     10 C7         -8.3245   10.3638    0.2518 C.2       1 <0>         0.1402
     11 N3         -7.0222   10.5421    0.1750 N.2       1 <0>        -0.2446
     12 C8         -9.3393   11.4342    0.4146 C.ar      1 <0>        -0.0275
     13 C9        -10.6927   11.1100    0.4837 C.ar      1 <0>        -0.0887
     14 C10       -11.6318   12.1092    0.6404 C.ar      1 <0>        -0.1208
     15 C11       -11.2325   13.4313    0.7174 C.ar      1 <0>        -0.1039
     16 C12        -9.8907   13.7593    0.6441 C.ar      1 <0>        -0.1211
     17 C13        -8.9426   12.7677    0.4931 C.ar      1 <0>        -0.0853
     18 C14        -7.2031    6.8799   -0.1153 C.ar      1 <0>        -0.0488
     19 C15        -6.0260    6.3774   -0.6710 C.ar      1 <0>        -0.1109
     20 C16        -5.8487    5.0141   -0.7870 C.ar      1 <0>        -0.1094
     21 C17        -6.8400    4.1462   -0.3650 C.ar      1 <0>        -0.1001
     22 C18        -8.0118    4.6383    0.1816 C.ar      1 <0>        -0.1134
     23 C19        -8.1989    5.9993    0.3088 C.ar      1 <0>        -0.0809
     24 C20        -1.1702    7.7676    0.2218 C.2       1 <0>         0.4758
     25 O1         -0.2258    8.1478   -0.4491 O.2       1 <0>        -0.4324
     26 C21        -0.9699    6.7539    1.2605 C.2       1 <0>        -0.2191
     27 C22         0.2591    6.2412    1.4744 C.2       1 <0>        -0.0089
     28 C23         0.4602    5.2229    2.5178 C.ar      1 <0>        -0.0756
     29 C24        -0.6206    4.7845    3.2899 C.ar      1 <0>        -0.0520
     30 C25        -0.4250    3.8264    4.2618 C.ar      1 <0>        -0.1140
     31 C26         0.8390    3.3069    4.4822 C.ar      1 <0>        -0.0428
     32 C27         1.9134    3.7355    3.7225 C.ar      1 <0>        -0.0433
     33 C28         1.7330    4.6890    2.7427 C.ar      1 <0>        -0.0304
     34 N4          3.2597    3.1693    3.9625 N.pl3     1 <0>         0.0247
     35 O2          3.4209    2.3274    4.8278 O.2       1 <0>        -0.1519
     36 O3          4.2064    3.5454    3.2948 O.3       1 <0>        -0.1524
     37 H1         -1.9004    9.3320   -2.8024 H         1 <0>         0.0884
     38 H2         -2.2753   10.9318   -2.1181 H         1 <0>         0.0824
     39 H3         -0.9578    9.9546   -1.4269 H         1 <0>         0.0986
     40 H4         -9.5642    8.5215    0.1945 H         1 <0>         0.1704
     41 H5        -11.0059   10.0785    0.4193 H         1 <0>         0.1294
     42 H6        -12.6808   11.8588    0.6982 H         1 <0>         0.1298
     43 H7        -11.9711   14.2104    0.8355 H         1 <0>         0.1268
     44 H8         -9.5844   14.7931    0.7047 H         1 <0>         0.1283
     45 H9         -7.8952   13.0248    0.4364 H         1 <0>         0.1298
     46 H10        -5.2536    7.0540   -1.0055 H         1 <0>         0.1125
     47 H11        -4.9362    4.6237   -1.2128 H         1 <0>         0.1298
     48 H12        -6.6984    3.0799   -0.4624 H         1 <0>         0.1307
     49 H13        -8.7817    3.9556    0.5097 H         1 <0>         0.1341
     50 H14        -9.1139    6.3822    0.7359 H         1 <0>         0.1346
     51 H15        -1.8064    6.4171    1.8547 H         1 <0>         0.1342
     52 H16         1.0956    6.5780    0.8801 H         1 <0>         0.1490
     53 H17        -1.6065    5.1924    3.1224 H         1 <0>         0.1479
     54 H18        -1.2593    3.4836    4.8558 H         1 <0>         0.1547
     55 H19         0.9867    2.5598    5.2480 H         1 <0>         0.1587
     56 H20         2.5723    5.0222    2.1504 H         1 <0>         0.1614
@<TRIPOS>BOND
     1    1    2 1
     2    1   37 1
     3    1   38 1
     4    1   39 1
     5    2    6 1
     6    2    3 2
     7    3    4 1
     8    3   24 1
     9    4    5 1
    10    5    6 2
    11    5    7 1
    12    7   11 1
    13    7    8 1
    14    8    9 2
    15    8   18 1
    16    9   10 1
    17    9   40 1
    18   10   11 2
    19   10   12 1
    20   12   17 ar
    21   12   13 ar
    22   13   14 ar
    23   13   41 1
    24   14   15 ar
    25   14   42 1
    26   15   16 ar
    27   15   43 1
    28   16   17 ar
    29   16   44 1
    30   17   45 1
    31   18   23 ar
    32   18   19 ar
    33   19   20 ar
    34   19   46 1
    35   20   21 ar
    36   20   47 1
    37   21   22 ar
    38   21   48 1
    39   22   23 ar
    40   22   49 1
    41   23   50 1
    42   24   25 2
    43   24   26 1
    44   26   27 2
    45   26   51 1
    46   27   28 1
    47   27   52 1
    48   28   33 ar
    49   28   29 ar
    50   29   30 ar
    51   29   53 1
    52   30   31 ar
    53   30   54 1
    54   31   32 ar
    55   31   55 1
    56   32   33 ar
    57   32   34 1
    58   33   56 1
    59   34   35 2
    60   34   36 1
@<TRIPOS>MOLECULE
ZINC16957611
   54    58     0     0     0
SMALL
USER_CHARGES
(E)-3-(4-chlorophenyl)-1-[2-(3,5-diphenylpyrazol-1-yl)-4-methyl-thiazol-5-yl]prop-2-en-1-one
@<TRIPOS>ATOM
      1 C1          1.8324    8.0078   -0.1803 C.3       1 <0>        -0.0940
      2 C2          1.7451    6.5067   -0.0786 C.2       1 <0>         0.1608
      3 C3          0.5184    5.8648    0.0429 C.2       1 <0>        -0.2812
      4 S1          1.0474    4.1593    0.1178 S.3       1 <0>         0.1709
      5 C4          2.7551    4.4454   -0.0122 C.2       1 <0>         0.3181
      6 N1          2.8205    5.7646   -0.0958 N.2       1 <0>        -0.5013
      7 N2          3.7912    3.5231   -0.0204 N.pl3     1 <0>        -0.2967
      8 C5          4.0207    2.5608    0.9256 C.2       1 <0>         0.1414
      9 C6          5.1288    1.8652    0.5422 C.2       1 <0>        -0.2112
     10 C7          5.5890    2.4210   -0.6650 C.2       1 <0>         0.1390
     11 N3          4.7895    3.4132   -0.9967 N.2       1 <0>        -0.2455
     12 C8          6.7742    1.9668   -1.4338 C.ar      1 <0>        -0.0264
     13 C9          7.5443    0.9031   -0.9679 C.ar      1 <0>        -0.0890
     14 C10         8.6426    0.4815   -1.6897 C.ar      1 <0>        -0.1208
     15 C11         8.9860    1.1202   -2.8676 C.ar      1 <0>        -0.1045
     16 C12         8.2281    2.1801   -3.3320 C.ar      1 <0>        -0.1212
     17 C13         7.1245    2.6063   -2.6212 C.ar      1 <0>        -0.0856
     18 C14         3.2106    2.3161    2.1389 C.ar      1 <0>        -0.0490
     19 C15         2.4120    3.3322    2.6648 C.ar      1 <0>        -0.1080
     20 C16         1.6591    3.0977    3.7970 C.ar      1 <0>        -0.1097
     21 C17         1.6948    1.8583    4.4106 C.ar      1 <0>        -0.0998
     22 C18         2.4846    0.8466    3.8941 C.ar      1 <0>        -0.1139
     23 C19         3.2422    1.0683    2.7625 C.ar      1 <0>        -0.0812
     24 C20        -0.8326    6.4292    0.0950 C.2       1 <0>         0.4761
     25 O1         -0.9921    7.6361    0.0284 O.2       1 <0>        -0.4376
     26 C21        -1.9918    5.5434    0.2272 C.2       1 <0>        -0.2329
     27 C22        -3.2358    6.0631    0.2752 C.2       1 <0>        -0.0006
     28 C23        -4.4001    5.1735    0.4079 C.ar      1 <0>        -0.0814
     29 C24        -4.2213    3.7879    0.4788 C.ar      1 <0>        -0.0849
     30 C25        -5.3164    2.9608    0.6075 C.ar      1 <0>        -0.1124
     31 C26        -6.5926    3.4982    0.6570 C.ar      1 <0>        -0.0206
     32 C27        -6.7776    4.8693    0.5820 C.ar      1 <0>        -0.1130
     33 C28        -5.6915    5.7088    0.4580 C.ar      1 <0>        -0.0766
     34 Cl1        -7.9664    2.4484    0.8130 Cl        1 <0>        -0.0610
     35 H1          1.9205    8.4351    0.8186 H         1 <0>         0.0874
     36 H2          2.7065    8.2817   -0.7711 H         1 <0>         0.0815
     37 H3          0.9333    8.3922   -0.6619 H         1 <0>         0.0983
     38 H4          5.5741    1.0356    1.0713 H         1 <0>         0.1699
     39 H5          7.2796    0.4066   -0.0460 H         1 <0>         0.1294
     40 H6          9.2378   -0.3455   -1.3316 H         1 <0>         0.1295
     41 H7          9.8488    0.7899   -3.4269 H         1 <0>         0.1265
     42 H8          8.5007    2.6752   -4.2523 H         1 <0>         0.1280
     43 H9          6.5333    3.4337   -2.9849 H         1 <0>         0.1297
     44 H10         2.3830    4.3001    2.1865 H         1 <0>         0.1117
     45 H11         1.0371    3.8820    4.2024 H         1 <0>         0.1298
     46 H12         1.1039    1.6798    5.2968 H         1 <0>         0.1306
     47 H13         2.5079   -0.1189    4.3775 H         1 <0>         0.1338
     48 H14         3.8580    0.2776    2.3601 H         1 <0>         0.1344
     49 H15        -1.8505    4.4743    0.2862 H         1 <0>         0.1327
     50 H16        -3.3770    7.1322    0.2161 H         1 <0>         0.1429
     51 H17        -3.2274    3.3674    0.4363 H         1 <0>         0.1374
     52 H18        -5.1797    1.8911    0.6662 H         1 <0>         0.1394
     53 H19        -7.7752    5.2811    0.6204 H         1 <0>         0.1401
     54 H20        -5.8372    6.7773    0.3993 H         1 <0>         0.1409
@<TRIPOS>BOND
     1    1    2 1
     2    1   35 1
     3    1   36 1
     4    1   37 1
     5    2    6 1
     6    2    3 2
     7    3    4 1
     8    3   24 1
     9    4    5 1
    10    5    6 2
    11    5    7 1
    12    7   11 1
    13    7    8 1
    14    8    9 2
    15    8   18 1
    16    9   10 1
    17    9   38 1
    18   10   11 2
    19   10   12 1
    20   12   17 ar
    21   12   13 ar
    22   13   14 ar
    23   13   39 1
    24   14   15 ar
    25   14   40 1
    26   15   16 ar
    27   15   41 1
    28   16   17 ar
    29   16   42 1
    30   17   43 1
    31   18   23 ar
    32   18   19 ar
    33   19   20 ar
    34   19   44 1
    35   20   21 ar
    36   20   45 1
    37   21   22 ar
    38   21   46 1
    39   22   23 ar
    40   22   47 1
    41   23   48 1
    42   24   25 2
    43   24   26 1
    44   26   27 2
    45   26   49 1
    46   27   28 1
    47   27   50 1
    48   28   33 ar
    49   28   29 ar
    50   29   30 ar
    51   29   51 1
    52   30   31 ar
    53   30   52 1
    54   31   32 ar
    55   31   34 1
    56   32   33 ar
    57   32   53 1
    58   33   54 1
@<TRIPOS>MOLECULE
ZINC16957625
   57    61     0     0     0
SMALL
USER_CHARGES
(E)-1-[2-(3,5-diphenylpyrazol-1-yl)-4-methyl-thiazol-5-yl]-3-(p-tolyl)prop-2-en-1-one
@<TRIPOS>ATOM
      1 C1         -7.7846    2.5868    0.7986 C.3       1 <0>        -0.1211
      2 C2         -6.5921    3.4979    0.6612 C.ar      1 <0>        -0.0662
      3 C3         -6.7774    4.8674    0.5848 C.ar      1 <0>        -0.1253
      4 C4         -5.6915    5.7078    0.4594 C.ar      1 <0>        -0.0836
      5 C5         -4.4002    5.1728    0.4091 C.ar      1 <0>        -0.0952
      6 C6         -4.2217    3.7875    0.4807 C.ar      1 <0>        -0.0906
      7 C7         -5.3175    2.9608    0.6117 C.ar      1 <0>        -0.1248
      8 C8         -3.2356    6.0627    0.2754 C.2       1 <0>         0.0060
      9 C9         -1.9919    5.5432    0.2272 C.2       1 <0>        -0.2426
     10 C10        -0.8325    6.4291    0.0941 C.2       1 <0>         0.4762
     11 O1         -0.9920    7.6359    0.0270 O.2       1 <0>        -0.4403
     12 C11         0.5184    5.8647    0.0418 C.2       1 <0>        -0.2789
     13 C12         1.7451    6.5067   -0.0800 C.2       1 <0>         0.1588
     14 N1          2.8205    5.7647   -0.0965 N.2       1 <0>        -0.5012
     15 C13         2.7552    4.4454   -0.0129 C.2       1 <0>         0.3156
     16 S1          1.0474    4.1593    0.1174 S.3       1 <0>         0.1715
     17 N2          3.7912    3.5231   -0.0211 N.pl3     1 <0>        -0.2959
     18 C14         4.0166    2.5561    0.9211 C.2       1 <0>         0.1413
     19 C15         5.1262    1.8622    0.5389 C.2       1 <0>        -0.2114
     20 C16         5.5919    2.4243   -0.6632 C.2       1 <0>         0.1383
     21 N3          4.7942    3.4186   -0.9931 N.2       1 <0>        -0.2454
     22 C17         6.7806    1.9741   -1.4290 C.ar      1 <0>        -0.0260
     23 C18         7.5484    0.9077   -0.9653 C.ar      1 <0>        -0.0891
     24 C19         8.6498    0.4898   -1.6843 C.ar      1 <0>        -0.1209
     25 C20         8.9987    1.1347   -2.8572 C.ar      1 <0>        -0.1047
     26 C21         8.2431    2.1972   -3.3194 C.ar      1 <0>        -0.1212
     27 C22         7.1363    2.6198   -2.6114 C.ar      1 <0>        -0.0857
     28 C23         3.2014    2.3056    2.1298 C.ar      1 <0>        -0.0490
     29 C24         3.2264    1.0533    2.7445 C.ar      1 <0>        -0.0813
     30 C25         2.4638    0.8261    3.8716 C.ar      1 <0>        -0.1142
     31 C26         1.6752    1.8367    4.3922 C.ar      1 <0>        -0.0999
     32 C27         1.6458    3.0805    3.7871 C.ar      1 <0>        -0.1097
     33 C28         2.4041    3.3206    2.6598 C.ar      1 <0>        -0.1077
     34 C29         1.8324    8.0077   -0.1822 C.3       1 <0>        -0.0935
     35 H1         -8.1394    2.3009   -0.1915 H         1 <0>         0.0750
     36 H2         -7.4974    1.6937    1.3536 H         1 <0>         0.0695
     37 H3         -8.5795    3.1068    1.3333 H         1 <0>         0.0697
     38 H4         -7.7752    5.2790    0.6238 H         1 <0>         0.1281
     39 H5         -5.8376    6.7762    0.3999 H         1 <0>         0.1303
     40 H6         -3.2280    3.3667    0.4380 H         1 <0>         0.1275
     41 H7         -5.1810    1.8912    0.6716 H         1 <0>         0.1274
     42 H8         -3.3769    7.1318    0.2159 H         1 <0>         0.1394
     43 H9         -1.8506    4.4741    0.2867 H         1 <0>         0.1315
     44 H10         5.5686    1.0294    1.0653 H         1 <0>         0.1697
     45 H11         7.2794    0.4064   -0.0473 H         1 <0>         0.1294
     46 H12         9.2433   -0.3392   -1.3280 H         1 <0>         0.1295
     47 H13         9.8640    0.8073   -3.4144 H         1 <0>         0.1264
     48 H14         8.5200    2.6971   -4.2358 H         1 <0>         0.1280
     49 H15         6.5469    3.4492   -2.9734 H         1 <0>         0.1297
     50 H16         3.8418    0.2637    2.3393 H         1 <0>         0.1343
     51 H17         2.4859   -0.1414    4.3512 H         1 <0>         0.1337
     52 H18         1.0798    1.6537    5.2745 H         1 <0>         0.1305
     53 H19         1.0282    3.8653    4.1983 H         1 <0>         0.1298
     54 H20         2.3807    4.2922    2.1888 H         1 <0>         0.1119
     55 H21         1.9206    8.4354    0.8166 H         1 <0>         0.0870
     56 H22         2.7065    8.2815   -0.7731 H         1 <0>         0.0811
     57 H23         0.9333    8.3920   -0.6638 H         1 <0>         0.0983
@<TRIPOS>BOND
     1    1    2 1
     2    1   35 1
     3    1   36 1
     4    1   37 1
     5    2    7 ar
     6    2    3 ar
     7    3    4 ar
     8    3   38 1
     9    4    5 ar
    10    4   39 1
    11    5    6 ar
    12    5    8 1
    13    6    7 ar
    14    6   40 1
    15    7   41 1
    16    8    9 2
    17    8   42 1
    18    9   10 1
    19    9   43 1
    20   10   11 2
    21   10   12 1
    22   12   16 1
    23   12   13 2
    24   13   14 1
    25   13   34 1
    26   14   15 2
    27   15   16 1
    28   15   17 1
    29   17   21 1
    30   17   18 1
    31   18   19 2
    32   18   28 1
    33   19   20 1
    34   19   44 1
    35   20   21 2
    36   20   22 1
    37   22   27 ar
    38   22   23 ar
    39   23   24 ar
    40   23   45 1
    41   24   25 ar
    42   24   46 1
    43   25   26 ar
    44   25   47 1
    45   26   27 ar
    46   26   48 1
    47   27   49 1
    48   28   33 ar
    49   28   29 ar
    50   29   30 ar
    51   29   50 1
    52   30   31 ar
    53   30   51 1
    54   31   32 ar
    55   31   52 1
    56   32   33 ar
    57   32   53 1
    58   33   54 1
    59   34   55 1
    60   34   56 1
    61   34   57 1
@<TRIPOS>MOLECULE
ZINC06575869
   49    53     0     0     0
SMALL
USER_CHARGES
1-[(E)-2-(4-nitrophenyl)vinyl]-3-phenyl-benzo[f]quinoline
@<TRIPOS>ATOM
      1 C1         -6.2217   -5.3738   -0.4154 C.ar      1 <0>        -0.1043
      2 C2         -7.4125   -4.6794   -0.3008 C.ar      1 <0>        -0.1251
      3 C3         -7.4042   -3.3038   -0.1901 C.ar      1 <0>        -0.0757
      4 C4         -6.1929   -2.6143   -0.1939 C.ar      1 <0>        -0.0578
      5 C5         -4.9965   -3.3188   -0.3154 C.ar      1 <0>        -0.0986
      6 C6         -5.0165   -4.6948   -0.4198 C.ar      1 <0>        -0.1233
      7 C7         -6.1775   -1.1359   -0.0752 C.ar      1 <0>         0.1954
      8 C8         -4.9533   -0.4649   -0.0812 C.ar      1 <0>        -0.1493
      9 C9         -4.9378    0.9258    0.0305 C.ar      1 <0>        -0.0007
     10 C10        -6.1781    1.5936    0.1514 C.ar      1 <0>        -0.0821
     11 C11        -6.2537    3.0473    0.2791 C.ar      1 <0>        -0.0299
     12 C12        -5.1046    3.8430    0.2870 C.ar      1 <0>        -0.1389
     13 C13        -5.2211    5.1977    0.4088 C.ar      1 <0>        -0.1048
     14 C14        -6.4704    5.7967    0.5245 C.ar      1 <0>        -0.1149
     15 C15        -7.6103    5.0475    0.5196 C.ar      1 <0>        -0.0957
     16 C16        -7.5263    3.6536    0.3965 C.ar      1 <0>        -0.0536
     17 C17        -8.6891    2.8501    0.3877 C.ar      1 <0>        -0.0784
     18 C18        -8.6169    1.5097    0.2580 C.ar      1 <0>        -0.0978
     19 C19        -7.3733    0.8431    0.1430 C.ar      1 <0>         0.1633
     20 N1         -7.3235   -0.4857    0.0332 N.ar      1 <0>        -0.4654
     21 C20        -3.6709    1.6730    0.0285 C.2       1 <0>        -0.0885
     22 C21        -2.8027    1.5216   -0.9869 C.2       1 <0>        -0.1122
     23 C22        -1.5337    2.2700   -0.9888 C.ar      1 <0>        -0.0004
     24 C23        -0.6287    2.1152   -2.0427 C.ar      1 <0>        -0.1055
     25 C24         0.5546    2.8234   -2.0404 C.ar      1 <0>        -0.0490
     26 C25         0.8493    3.6817   -0.9956 C.ar      1 <0>        -0.0470
     27 C26        -0.0396    3.8365    0.0537 C.ar      1 <0>        -0.0467
     28 C27        -1.2267    3.1347    0.0655 C.ar      1 <0>        -0.1206
     29 N2          2.1217    4.4383   -1.0006 N.pl3     1 <0>         0.0263
     30 O1          2.9061    4.3046   -1.9227 O.2       1 <0>        -0.1573
     31 O2          2.3841    5.1945   -0.0825 O.3       1 <0>        -0.1579
     32 H1         -6.2329   -6.4504   -0.5015 H         1 <0>         0.1256
     33 H2         -8.3505   -5.2146   -0.2984 H         1 <0>         0.1274
     34 H3         -8.3345   -2.7626   -0.1004 H         1 <0>         0.1357
     35 H4         -4.0553   -2.7892   -0.3234 H         1 <0>         0.1262
     36 H5         -4.0898   -5.2421   -0.5095 H         1 <0>         0.1277
     37 H6         -4.0289   -1.0160   -0.1708 H         1 <0>         0.1456
     38 H7         -4.1291    3.3881    0.1981 H         1 <0>         0.1483
     39 H8         -4.3324    5.8114    0.4155 H         1 <0>         0.1268
     40 H9         -6.5394    6.8702    0.6199 H         1 <0>         0.1278
     41 H10        -8.5741    5.5265    0.6100 H         1 <0>         0.1326
     42 H11        -9.6571    3.3206    0.4774 H         1 <0>         0.1371
     43 H12        -9.5282    0.9301    0.2555 H         1 <0>         0.1393
     44 H13        -3.4380    2.3432    0.8427 H         1 <0>         0.1462
     45 H14        -3.0356    0.8513   -1.8011 H         1 <0>         0.1372
     46 H15        -0.8575    1.4460   -2.8589 H         1 <0>         0.1519
     47 H16         1.2532    2.7077   -2.8558 H         1 <0>         0.1572
     48 H17         0.1970    4.5084    0.8655 H         1 <0>         0.1569
     49 H18        -1.9195    3.2565    0.8850 H         1 <0>         0.1470
@<TRIPOS>BOND
     1    1    6 ar
     2    1    2 ar
     3    1   32 1
     4    2    3 ar
     5    2   33 1
     6    3    4 ar
     7    3   34 1
     8    4    5 ar
     9    4    7 1
    10    5    6 ar
    11    5   35 1
    12    6   36 1
    13    7   20 ar
    14    7    8 ar
    15    8    9 ar
    16    8   37 1
    17    9   10 ar
    18    9   21 1
    19   10   19 ar
    20   10   11 ar
    21   11   16 ar
    22   11   12 ar
    23   12   13 ar
    24   12   38 1
    25   13   14 ar
    26   13   39 1
    27   14   15 ar
    28   14   40 1
    29   15   16 ar
    30   15   41 1
    31   16   17 ar
    32   17   18 ar
    33   17   42 1
    34   18   19 ar
    35   18   43 1
    36   19   20 ar
    37   21   22 2
    38   21   44 1
    39   22   23 1
    40   22   45 1
    41   23   28 ar
    42   23   24 ar
    43   24   25 ar
    44   24   46 1
    45   25   26 ar
    46   25   47 1
    47   26   27 ar
    48   26   29 1
    49   27   28 ar
    50   27   48 1
    51   28   49 1
    52   29   30 2
    53   29   31 1
@<TRIPOS>MOLECULE
ZINC08616455
   35    38     0     0     0
SMALL
USER_CHARGES

@<TRIPOS>ATOM
      1 C1         -0.0164    1.3590    0.0095 C.ar      1 <0>        -0.0994
      2 C2          1.1671    2.0926    0.0022 C.ar      1 <0>        -0.1231
      3 C3          2.3806    1.4689   -0.0128 C.ar      1 <0>        -0.0850
      4 C4          2.4360    0.0725   -0.0208 C.ar      1 <0>        -0.1041
      5 C5          1.2320   -0.6764   -0.0134 C.ar      1 <0>        -0.0221
      6 C6          0.0021   -0.0041    0.0020 C.ar      1 <0>        -0.1137
      7 C7          1.3220   -2.0813   -0.0213 C.ar      1 <0>        -0.1706
      8 C8          2.5472   -2.6747   -0.0357 C.ar      1 <0>         0.0869
      9 N1          3.6764   -1.9865   -0.0428 N.ar      1 <0>        -0.4946
     10 C9          3.7021   -0.6584   -0.0364 C.ar      1 <0>         0.2184
     11 C10         4.9789    0.0626   -0.0452 C.2       1 <0>        -0.1638
     12 C11         6.1408   -0.6232   -0.0595 C.2       1 <0>         0.0131
     13 C12         7.4191    0.0986   -0.0683 C.2       1 <0>        -0.1646
     14 C13         7.5923    1.4509   -0.0577 C.2       1 <0>         0.0855
     15 N2          8.9211    1.7431   -0.0712 N.pl3     1 <0>        -0.5855
     16 H1          9.2913    2.6396   -0.0669 H         1 <0>         0.4193
     17 C14         9.6667    0.5829   -0.0913 C.ar      1 <0>         0.0890
     18 C15         8.7680   -0.4965   -0.0840 C.ar      1 <0>        -0.0877
     19 C16         9.2473   -1.8040   -0.0947 C.ar      1 <0>        -0.0727
     20 C17        10.6060   -2.0325   -0.1087 C.ar      1 <0>        -0.1397
     21 C18        11.4950   -0.9675   -0.1117 C.ar      1 <0>        -0.0987
     22 C19        11.0347    0.3314   -0.1104 C.ar      1 <0>        -0.1276
     23 H2         -0.9635    1.8779    0.0259 H         1 <0>         0.1270
     24 H3          1.1239    3.1717    0.0080 H         1 <0>         0.1272
     25 H4          3.2910    2.0498   -0.0187 H         1 <0>         0.1314
     26 H5         -0.9231   -0.5613    0.0082 H         1 <0>         0.1312
     27 H6          0.4257   -2.6839   -0.0156 H         1 <0>         0.1352
     28 H7          2.5992   -3.7535   -0.0413 H         1 <0>         0.1517
     29 H8          4.9893    1.1425   -0.0402 H         1 <0>         0.1266
     30 H9          6.1304   -1.7031   -0.0645 H         1 <0>         0.1347
     31 H10         6.7954    2.1797   -0.0413 H         1 <0>         0.1763
     32 H11         8.5574   -2.6349   -0.0917 H         1 <0>         0.1254
     33 H12        10.9806   -3.0453   -0.1170 H         1 <0>         0.1256
     34 H13        12.5579   -1.1582   -0.1224 H         1 <0>         0.1272
     35 H14        11.7354    1.1532   -0.1116 H         1 <0>         0.1212
@<TRIPOS>BOND
     1    1    6 ar
     2    1    2 ar
     3    1   23 1
     4    2    3 ar
     5    2   24 1
     6    3    4 ar
     7    3   25 1
     8    4   10 ar
     9    4    5 ar
    10    5    6 ar
    11    5    7 ar
    12    6   26 1
    13    7    8 ar
    14    7   27 1
    15    8    9 ar
    16    8   28 1
    17    9   10 ar
    18   10   11 1
    19   11   12 2
    20   11   29 1
    21   12   13 1
    22   12   30 1
    23   13   18 1
    24   13   14 2
    25   14   15 1
    26   14   31 1
    27   15   16 1
    28   15   17 1
    29   17   22 ar
    30   17   18 ar
    31   18   19 ar
    32   19   20 ar
    33   19   32 1
    34   20   21 ar
    35   20   33 1
    36   21   22 ar
    37   21   34 1
    38   22   35 1
@<TRIPOS>MOLECULE
ZINC08616455
   36    39     0     0     0
SMALL
USER_CHARGES

@<TRIPOS>ATOM
      1 C1         -0.0164    1.3590    0.0095 C.ar      1 <0>        -0.0570
      2 C2          1.1671    2.0926    0.0022 C.ar      1 <0>        -0.0943
      3 C3          2.3806    1.4689   -0.0128 C.ar      1 <0>        -0.0703
      4 C4          2.4360    0.0725   -0.0208 C.ar      1 <0>        -0.0907
      5 C5          1.2320   -0.6764   -0.0134 C.ar      1 <0>        -0.0013
      6 C6          0.0021   -0.0041    0.0020 C.ar      1 <0>        -0.1079
      7 C7          1.3220   -2.0813   -0.0213 C.ar      1 <0>        -0.0956
      8 C8          2.5472   -2.6747   -0.0357 C.ar      1 <0>         0.0558
      9 N1          3.6764   -1.9865   -0.0428 N.ar      1 <0>        -0.4798
     10 C9          3.7021   -0.6584   -0.0364 C.ar      1 <0>         0.3025
     11 C10         4.9789    0.0626   -0.0452 C.2       1 <0>        -0.2430
     12 C11         6.1408   -0.6232   -0.0595 C.2       1 <0>         0.0869
     13 C12         7.4191    0.0986   -0.0683 C.2       1 <0>        -0.2088
     14 C13         7.5923    1.4509   -0.0577 C.2       1 <0>         0.1435
     15 N2          8.9211    1.7431   -0.0712 N.pl3     1 <0>        -0.5685
     16 H1          9.2913    2.6396   -0.0669 H         1 <0>         0.4292
     17 C14         9.6667    0.5829   -0.0913 C.ar      1 <0>         0.0827
     18 C15         8.7680   -0.4965   -0.0840 C.ar      1 <0>        -0.0812
     19 C16         9.2473   -1.8040   -0.0947 C.ar      1 <0>        -0.0859
     20 C17        10.6060   -2.0325   -0.1087 C.ar      1 <0>        -0.1198
     21 C18        11.4950   -0.9675   -0.1117 C.ar      1 <0>        -0.0931
     22 C19        11.0347    0.3314   -0.1104 C.ar      1 <0>        -0.1127
     23 H2         -0.9635    1.8779    0.0259 H         1 <0>         0.1488
     24 H3          1.1239    3.1717    0.0080 H         1 <0>         0.1492
     25 H4          3.2910    2.0498   -0.0187 H         1 <0>         0.1494
     26 H5         -0.9231   -0.5613    0.0082 H         1 <0>         0.1531
     27 H6          0.4257   -2.6839   -0.0156 H         1 <0>         0.1775
     28 H7          2.5992   -3.7535   -0.0413 H         1 <0>         0.1964
     29 H8          4.9893    1.1425   -0.0402 H         1 <0>         0.1633
     30 H9          6.1304   -1.7031   -0.0645 H         1 <0>         0.1240
     31 H10         6.7954    2.1797   -0.0413 H         1 <0>         0.1859
     32 H11         8.5574   -2.6349   -0.0917 H         1 <0>         0.1242
     33 H12        10.9806   -3.0453   -0.1170 H         1 <0>         0.1329
     34 H13        12.5579   -1.1582   -0.1224 H         1 <0>         0.1361
     35 H14        11.7354    1.1532   -0.1116 H         1 <0>         0.1300
     36 H15         4.5175   -2.4697   -0.0528 H         1 <0>         0.4385
@<TRIPOS>BOND
     1    1    6 ar
     2    1    2 ar
     3    1   23 1
     4    2    3 ar
     5    2   24 1
     6    3    4 ar
     7    3   25 1
     8    4   10 ar
     9    4    5 ar
    10    5    6 ar
    11    5    7 ar
    12    6   26 1
    13    7    8 ar
    14    7   27 1
    15    8    9 ar
    16    8   28 1
    17    9   10 ar
    18    9   36 1
    19   10   11 1
    20   11   12 2
    21   11   29 1
    22   12   13 1
    23   12   30 1
    24   13   18 1
    25   13   14 2
    26   14   15 1
    27   14   31 1
    28   15   16 1
    29   15   17 1
    30   17   22 ar
    31   17   18 ar
    32   18   19 ar
    33   19   20 ar
    34   19   32 1
    35   20   21 ar
    36   20   33 1
    37   21   22 ar
    38   21   34 1
    39   22   35 1
@<TRIPOS>MOLECULE
ZINC01647054
   37    42     0     0     0
SMALL
USER_CHARGES
BLAH
@<TRIPOS>ATOM
      1 C1         -6.8702   -5.0342    0.0394 C.ar      1 <0>        -0.1403
      2 C2         -7.0884   -3.6639    0.0493 C.ar      1 <0>        -0.0755
      3 C3         -6.0281   -2.7846    0.0448 C.ar      1 <0>        -0.1311
      4 C4         -4.7223   -3.2670    0.0302 C.ar      1 <0>         0.1371
      5 C5         -4.5026   -4.6547    0.0201 C.ar      1 <0>        -0.1007
      6 C6         -5.5868   -5.5326    0.0249 C.ar      1 <0>        -0.0585
      7 C7         -3.0459   -4.8435    0.0053 C.2       1 <0>        -0.0987
      8 C8         -2.2049   -5.9722   -0.0092 C.2       1 <0>        -0.0441
      9 C9         -0.8654   -5.8107   -0.0211 C.2       1 <0>        -0.0070
     10 N1         -0.2980   -4.5692   -0.0199 N.pl3     1 <0>        -0.2460
     11 C10         1.0677   -4.4731   -0.0330 C.2       1 <0>        -0.0705
     12 C11         1.6943   -3.2799   -0.0310 C.2       1 <0>        -0.0076
     13 C12         0.9407   -2.0918   -0.0180 C.2       1 <0>        -0.1579
     14 C13         1.2570   -0.6688   -0.0135 C.ar      1 <0>        -0.1446
     15 C14         2.4386    0.0751   -0.0208 C.ar      1 <0>        -0.0678
     16 C15         2.3805    1.4385   -0.0130 C.ar      1 <0>        -0.1564
     17 C16         1.1540    2.0968    0.0023 C.ar      1 <0>        -0.1025
     18 C17        -0.0170    1.4014    0.0097 C.ar      1 <0>        -0.1079
     19 C18         0.0021   -0.0041    0.0020 C.ar      1 <0>         0.1194
     20 N2         -0.9669   -0.9268    0.0063 N.2       1 <0>        -0.5438
     21 C19        -0.4743   -2.1669   -0.0051 C.2       1 <0>         0.0995
     22 C20        -1.0770   -3.4504   -0.0063 C.2       1 <0>         0.1789
     23 C21        -2.4765   -3.5646    0.0060 C.2       1 <0>         0.1597
     24 N3         -3.4949   -2.6338    0.0223 N.pl3     1 <0>        -0.5619
     25 H1         -3.3670   -1.6723    0.0268 H         1 <0>         0.4383
     26 H2         -7.7106   -5.7126    0.0431 H         1 <0>         0.1327
     27 H3         -8.0990   -3.2833    0.0604 H         1 <0>         0.1353
     28 H4         -6.2100   -1.7201    0.0523 H         1 <0>         0.1313
     29 H5         -5.4201   -6.5996    0.0172 H         1 <0>         0.1309
     30 H6         -2.6307   -6.9647   -0.0105 H         1 <0>         0.1667
     31 H7         -0.2283   -6.6827   -0.0322 H         1 <0>         0.1906
     32 H8          1.6584   -5.3772   -0.0443 H         1 <0>         0.1827
     33 H9          2.7733   -3.2358   -0.0407 H         1 <0>         0.1519
     34 H10         3.3949   -0.4266   -0.0329 H         1 <0>         0.1119
     35 H11         3.2953    2.0126   -0.0186 H         1 <0>         0.1179
     36 H12         1.1307    3.1766    0.0079 H         1 <0>         0.1201
     37 H13        -0.9592    1.9293    0.0171 H         1 <0>         0.1179
@<TRIPOS>BOND
     1    1    6 ar
     2    1    2 ar
     3    1   26 1
     4    2    3 ar
     5    2   27 1
     6    3    4 ar
     7    3   28 1
     8    4   24 1
     9    4    5 ar
    10    5    6 ar
    11    5    7 1
    12    6   29 1
    13    7   23 2
    14    7    8 1
    15    8    9 2
    16    8   30 1
    17    9   10 1
    18    9   31 1
    19   10   22 1
    20   10   11 1
    21   11   12 2
    22   11   32 1
    23   12   13 1
    24   12   33 1
    25   13   21 1
    26   13   14 2
    27   14   19 ar
    28   14   15 ar
    29   15   16 ar
    30   15   34 1
    31   16   17 ar
    32   16   35 1
    33   17   18 ar
    34   17   36 1
    35   18   19 ar
    36   18   37 1
    37   19   20 2
    38   20   21 1
    39   21   22 2
    40   22   23 1
    41   23   24 1
    42   24   25 1
@<TRIPOS>MOLECULE
ZINC13282980
   40    44     0     0     0
SMALL
USER_CHARGES
5-methyl-1-phenyl-6H-pyrido[4,3-b]carbazole
@<TRIPOS>ATOM
      1 C1         -5.6316    1.2004    0.4556 C.3       1 <0>        -0.1088
      2 C2         -4.8155    2.4672    0.4611 C.ar      1 <0>        -0.1223
      3 C3         -5.4392    3.7047    0.2735 C.ar      1 <0>         0.0142
      4 C4         -6.8309    3.8125    0.0761 C.ar      1 <0>        -0.1671
      5 C5         -7.3778    5.0470   -0.1004 C.ar      1 <0>         0.0880
      6 N1         -6.6433    6.1495   -0.0921 N.ar      1 <0>        -0.4869
      7 C6         -5.3343    6.1325    0.0861 C.ar      1 <0>         0.2260
      8 C7         -4.6683    4.8981    0.2788 C.ar      1 <0>        -0.1178
      9 C8         -3.2865    4.8298    0.4720 C.ar      1 <0>        -0.0390
     10 C9         -2.6834    3.5986    0.6564 C.ar      1 <0>        -0.0868
     11 C10        -3.4483    2.4104    0.6514 C.ar      1 <0>         0.1742
     12 N2         -2.5905    1.3427    0.8575 N.pl3     1 <0>        -0.6239
     13 H1         -2.8632    0.4127    0.8978 H         1 <0>         0.4189
     14 C11        -1.2871    1.7914    0.9913 C.ar      1 <0>         0.1509
     15 C12        -1.2827    3.1895    0.8814 C.ar      1 <0>        -0.1099
     16 C13        -0.0865    3.8939    0.9855 C.ar      1 <0>        -0.0567
     17 C14         1.0929    3.2128    1.2030 C.ar      1 <0>        -0.1496
     18 C15         1.0899    1.8319    1.3176 C.ar      1 <0>        -0.0769
     19 C16        -0.0883    1.1225    1.2159 C.ar      1 <0>        -0.1462
     20 C17        -4.5673    7.3990    0.0853 C.ar      1 <0>        -0.0498
     21 C18        -5.0457    8.5080    0.7834 C.ar      1 <0>        -0.0775
     22 C19        -4.3234    9.6836    0.7835 C.ar      1 <0>        -0.1218
     23 C20        -3.1330    9.7675    0.0834 C.ar      1 <0>        -0.1067
     24 C21        -2.6560    8.6728   -0.6152 C.ar      1 <0>        -0.1213
     25 C22        -3.3661    7.4899   -0.6183 C.ar      1 <0>        -0.1023
     26 H2         -5.6905    0.8105   -0.5606 H         1 <0>         0.0723
     27 H3         -5.1587    0.4607    1.1017 H         1 <0>         0.0610
     28 H4         -6.6359    1.4136    0.8218 H         1 <0>         0.0751
     29 H5         -7.4535    2.9301    0.0654 H         1 <0>         0.1399
     30 H6         -8.4439    5.1299   -0.2517 H         1 <0>         0.1558
     31 H7         -2.6931    5.7322    0.4778 H         1 <0>         0.1436
     32 H8         -0.0820    4.9701    0.8957 H         1 <0>         0.1276
     33 H9          2.0219    3.7576    1.2841 H         1 <0>         0.1296
     34 H10         2.0182    1.3067    1.4876 H         1 <0>         0.1313
     35 H11        -0.0797    0.0463    1.3063 H         1 <0>         0.1259
     36 H12        -5.9772    8.4451    1.3263 H         1 <0>         0.1283
     37 H13        -4.6904   10.5415    1.3273 H         1 <0>         0.1274
     38 H14        -2.5737   10.6914    0.0826 H         1 <0>         0.1255
     39 H15        -1.7259    8.7444   -1.1595 H         1 <0>         0.1280
     40 H16        -2.9927    6.6360   -1.1640 H         1 <0>         0.1277
@<TRIPOS>BOND
     1    1    2 1
     2    1   26 1
     3    1   27 1
     4    1   28 1
     5    2   11 ar
     6    2    3 ar
     7    3    8 ar
     8    3    4 ar
     9    4    5 ar
    10    4   29 1
    11    5    6 ar
    12    5   30 1
    13    6    7 ar
    14    7    8 ar
    15    7   20 1
    16    8    9 ar
    17    9   10 ar
    18    9   31 1
    19   10   15 1
    20   10   11 ar
    21   11   12 1
    22   12   13 1
    23   12   14 1
    24   14   19 ar
    25   14   15 ar
    26   15   16 ar
    27   16   17 ar
    28   16   32 1
    29   17   18 ar
    30   17   33 1
    31   18   19 ar
    32   18   34 1
    33   19   35 1
    34   20   25 ar
    35   20   21 ar
    36   21   22 ar
    37   21   36 1
    38   22   23 ar
    39   22   37 1
    40   23   24 ar
    41   23   38 1
    42   24   25 ar
    43   24   39 1
    44   25   40 1
@<TRIPOS>MOLECULE
ZINC01654295
   37    41     0     0     0
SMALL
USER_CHARGES
3-BLAHylthiophene
@<TRIPOS>ATOM
      1 C1         -5.5903    3.3790   -2.3353 C.ar      1 <0>        -0.1147
      2 C2         -4.5663    4.1177   -1.7561 C.ar      1 <0>        -0.1159
      3 C3         -3.4955    3.4948   -1.1798 C.ar      1 <0>        -0.1369
      4 C4         -3.4274    2.0993   -1.1726 C.ar      1 <0>        -0.0401
      5 C5         -4.4663    1.3463   -1.7603 C.ar      1 <0>        -0.0508
      6 C6         -5.5514    2.0144   -2.3431 C.ar      1 <0>        -0.1075
      7 C7         -4.4020   -0.1115   -1.7556 C.ar      1 <0>        -0.1015
      8 C8         -3.3594   -0.7558   -1.1962 C.ar      1 <0>        -0.1071
      9 C9         -2.2607   -0.0154   -0.5759 C.ar      1 <0>        -0.0459
     10 C10        -2.2893    1.4019   -0.5614 C.ar      1 <0>        -0.0167
     11 C11        -1.2543    2.1346    0.0313 C.ar      1 <0>        -0.0160
     12 C12        -0.1654    1.4522    0.6083 C.ar      1 <0>        -0.0322
     13 C13         0.9012    2.1401    1.2092 C.ar      1 <0>        -0.1011
     14 C14         1.9282    1.4363    1.7583 C.ar      1 <0>        -0.1118
     15 C15         1.9516    0.0435    1.7411 C.ar      1 <0>        -0.1143
     16 C16         0.9498   -0.6806    1.1749 C.ar      1 <0>        -0.1033
     17 C17        -0.1430   -0.0119    0.5889 C.ar      1 <0>        -0.0509
     18 C18        -1.1961   -0.7106   -0.0054 C.ar      1 <0>        -0.0847
     19 C19        -1.2975    3.6124    0.0403 C.2       1 <0>        -0.0652
     20 C20        -1.9017    4.3026    1.0892 C.2       1 <0>        -0.1501
     21 C21        -1.9209    5.6532    1.0610 C.2       1 <0>        -0.1663
     22 S1         -1.0751    6.0140   -0.4684 S.3       1 <0>         0.0514
     23 C22        -0.7394    4.3371   -0.9796 C.2       1 <0>        -0.1750
     24 H1         -6.4283    3.8909   -2.7849 H         1 <0>         0.1236
     25 H2         -4.6174    5.1964   -1.7611 H         1 <0>         0.1222
     26 H3         -2.7048    4.0787   -0.7324 H         1 <0>         0.1623
     27 H4         -6.3542    1.4519   -2.7964 H         1 <0>         0.1275
     28 H5         -5.2005   -0.6815   -2.2071 H         1 <0>         0.1303
     29 H6         -3.3343   -1.8354   -1.2059 H         1 <0>         0.1314
     30 H7          0.9061    3.2198    1.2356 H         1 <0>         0.1270
     31 H8          2.7457    1.9709    2.2191 H         1 <0>         0.1233
     32 H9          2.7871   -0.4744    2.1885 H         1 <0>         0.1238
     33 H10         0.9912   -1.7598    1.1748 H         1 <0>         0.1305
     34 H11        -1.1852   -1.7904   -0.0232 H         1 <0>         0.1354
     35 H12        -2.3481    3.7655    1.9130 H         1 <0>         0.1390
     36 H13        -2.3407    6.3399    1.7812 H         1 <0>         0.1914
     37 H14        -0.2299    3.9850   -1.8645 H         1 <0>         0.1888
@<TRIPOS>BOND
     1    1    6 ar
     2    1    2 ar
     3    1   24 1
     4    2    3 ar
     5    2   25 1
     6    3    4 ar
     7    3   26 1
     8    4   10 ar
     9    4    5 ar
    10    5    6 ar
    11    5    7 ar
    12    6   27 1
    13    7    8 ar
    14    7   28 1
    15    8    9 ar
    16    8   29 1
    17    9   18 ar
    18    9   10 ar
    19   10   11 ar
    20   11   12 ar
    21   11   19 1
    22   12   17 ar
    23   12   13 ar
    24   13   14 ar
    25   13   30 1
    26   14   15 ar
    27   14   31 1
    28   15   16 ar
    29   15   32 1
    30   16   17 ar
    31   16   33 1
    32   17   18 ar
    33   18   34 1
    34   19   23 2
    35   19   20 1
    36   20   21 2
    37   20   35 1
    38   21   22 1
    39   21   36 1
    40   22   23 1
    41   23   37 1
@<TRIPOS>MOLECULE
ZINC01656970
   43    48     0     0     0
SMALL
USER_CHARGES
2-BLAHylbenzothiophene
@<TRIPOS>ATOM
      1 C1          3.6948    5.4200   -4.2625 C.ar      1 <0>        -0.1101
      2 C2          2.9494    4.8577   -3.2339 C.ar      1 <0>        -0.1135
      3 C3          2.5228    5.6198   -2.1834 C.ar      1 <0>        -0.1311
      4 C4          2.8386    6.9803   -2.1410 C.ar      1 <0>        -0.0467
      5 C5          3.5963    7.5543   -3.1849 C.ar      1 <0>        -0.0460
      6 C6          4.0190    6.7459   -4.2485 C.ar      1 <0>        -0.1084
      7 C7          3.9300    8.9743   -3.1478 C.ar      1 <0>        -0.1001
      8 C8          3.5159    9.7563   -2.1310 C.ar      1 <0>        -0.1054
      9 C9          2.7345    9.2020   -1.0270 C.ar      1 <0>        -0.0510
     10 C10         2.3956    7.8251   -1.0272 C.ar      1 <0>         0.0020
     11 C11         1.6428    7.2825    0.0224 C.ar      1 <0>        -0.0112
     12 C12         1.2333    8.1157    1.0866 C.ar      1 <0>        -0.0174
     13 C13         0.4829    7.5998    2.1557 C.ar      1 <0>        -0.1087
     14 C14         0.0993    8.4216    3.1705 C.ar      1 <0>        -0.1045
     15 C15         0.4410    9.7738    3.1673 C.ar      1 <0>        -0.1153
     16 C16         1.1663   10.3104    2.1504 C.ar      1 <0>        -0.1008
     17 C17         1.5821    9.4918    1.0806 C.ar      1 <0>        -0.0525
     18 C18         2.3293   10.0217    0.0239 C.ar      1 <0>        -0.0700
     19 C19         1.2868    5.8539    0.0190 C.2       1 <0>        -0.0716
     20 C20         1.9450    4.8157    0.5991 C.2       1 <0>        -0.1318
     21 C21         1.4365    3.5077    0.4801 C.ar      1 <0>        -0.0880
     22 C22         1.9727    2.3061    1.0088 C.ar      1 <0>        -0.0711
     23 C23         1.3480    1.1170    0.8042 C.ar      1 <0>        -0.1213
     24 C24         0.1748    1.0290    0.0661 C.ar      1 <0>        -0.0901
     25 C25        -0.3811    2.1759   -0.4665 C.ar      1 <0>        -0.0778
     26 C26         0.2386    3.3887   -0.2624 C.ar      1 <0>        -0.1147
     27 S1         -0.1149    5.0592   -0.7476 S.3       1 <0>         0.0466
     28 H1          4.0223    4.7999   -5.0839 H         1 <0>         0.1246
     29 H2          2.7044    3.8063   -3.2650 H         1 <0>         0.1214
     30 H3          1.9438    5.1725   -1.3889 H         1 <0>         0.1547
     31 H4          4.5997    7.1703   -5.0542 H         1 <0>         0.1289
     32 H5          4.5096    9.4064   -3.9501 H         1 <0>         0.1320
     33 H6          3.7753   10.8047   -2.1259 H         1 <0>         0.1336
     34 H7          0.2106    6.5548    2.1722 H         1 <0>         0.1266
     35 H8         -0.4783    8.0207    3.9903 H         1 <0>         0.1262
     36 H9          0.1244   10.4042    3.9851 H         1 <0>         0.1268
     37 H10         1.4231   11.3594    2.1622 H         1 <0>         0.1318
     38 H11         2.5925   11.0691    0.0224 H         1 <0>         0.1385
     39 H12         2.8566    4.9935    1.1502 H         1 <0>         0.1406
     40 H13         2.8859    2.3372    1.5846 H         1 <0>         0.1268
     41 H14         1.7764    0.2179    1.2219 H         1 <0>         0.1291
     42 H15        -0.3016    0.0718   -0.0865 H         1 <0>         0.1362
     43 H16        -1.2955    2.1219   -1.0387 H         1 <0>         0.1327
@<TRIPOS>BOND
     1    1    6 ar
     2    1    2 ar
     3    1   28 1
     4    2    3 ar
     5    2   29 1
     6    3    4 ar
     7    3   30 1
     8    4   10 ar
     9    4    5 ar
    10    5    6 ar
    11    5    7 ar
    12    6   31 1
    13    7    8 ar
    14    7   32 1
    15    8    9 ar
    16    8   33 1
    17    9   18 ar
    18    9   10 ar
    19   10   11 ar
    20   11   12 ar
    21   11   19 1
    22   12   17 ar
    23   12   13 ar
    24   13   14 ar
    25   13   34 1
    26   14   15 ar
    27   14   35 1
    28   15   16 ar
    29   15   36 1
    30   16   17 ar
    31   16   37 1
    32   17   18 ar
    33   18   38 1
    34   19   27 1
    35   19   20 2
    36   20   21 1
    37   20   39 1
    38   21   26 ar
    39   21   22 ar
    40   22   23 ar
    41   22   40 1
    42   23   24 ar
    43   23   41 1
    44   24   25 ar
    45   24   42 1
    46   25   26 ar
    47   25   43 1
    48   26   27 1
@<TRIPOS>MOLECULE
ZINC04962613
   39    41     0     0     0
SMALL
USER_CHARGES

@<TRIPOS>ATOM
      1 C1         -0.0225    1.3184    0.5144 C.ar      1 <0>        -0.1646
      2 C2          1.1554    2.0413    0.4599 C.ar      1 <0>        -0.0797
      3 C3          2.3641    1.3863    0.3323 C.ar      1 <0>        -0.1845
      4 C4          2.3963   -0.0016    0.2591 C.ar      1 <0>         0.2117
      5 C5          1.2103   -0.7247    0.3147 C.ar      1 <0>        -0.1582
      6 C6          0.0054   -0.0625    0.4419 C.ar      1 <0>        -0.0837
      7 N1          3.6150   -0.6666    0.1298 N.pl3     1 <0>        -0.5807
      8 N2          3.6454   -2.0654    0.0562 N.2       1 <0>        -0.1958
      9 C7          4.7766   -2.6842   -0.1594 C.2       1 <0>         0.1619
     10 C8          6.0433   -1.9200   -0.1929 C.ar      1 <0>        -0.1202
     11 C9          6.5172   -1.2976    0.9619 C.ar      1 <0>        -0.0872
     12 C10         7.6991   -0.5869    0.9249 C.ar      1 <0>        -0.1251
     13 C11         8.4169   -0.4882   -0.2545 C.ar      1 <0>        -0.0895
     14 C12         7.9567   -1.1004   -1.4051 C.ar      1 <0>        -0.1476
     15 C13         6.7749   -1.8228   -1.3822 C.ar      1 <0>         0.1339
     16 O1          6.3247   -2.4296   -2.5112 O.3       1 <0>        -0.4871
     17 C14         4.7904   -4.1488   -0.3699 C.ar      1 <0>        -0.0588
     18 C15         5.9848   -4.8022   -0.6732 C.ar      1 <0>        -0.0622
     19 C16         5.9917   -6.1680   -0.8679 C.ar      1 <0>        -0.1333
     20 C17         4.8174   -6.8932   -0.7640 C.ar      1 <0>        -0.0899
     21 C18         3.6277   -6.2563   -0.4643 C.ar      1 <0>        -0.1528
     22 C19         3.6059   -4.8864   -0.2599 C.ar      1 <0>         0.1391
     23 O2          2.4382   -4.2603    0.0402 O.3       1 <0>        -0.4785
     24 H1         -0.9662    1.8333    0.6184 H         1 <0>         0.1203
     25 H2          1.1296    3.1195    0.5168 H         1 <0>         0.1237
     26 H3          3.2834    1.9515    0.2891 H         1 <0>         0.1188
     27 H4          1.2313   -1.8030    0.2578 H         1 <0>         0.1352
     28 H5         -0.9164   -0.6236    0.4847 H         1 <0>         0.1234
     29 H6          4.4418   -0.1608    0.0908 H         1 <0>         0.3881
     30 H7          5.9595   -1.3718    1.8838 H         1 <0>         0.1275
     31 H8          8.0654   -0.1052    1.8195 H         1 <0>         0.1319
     32 H9          9.3411    0.0702   -0.2758 H         1 <0>         0.1322
     33 H10         8.5216   -1.0192   -2.3221 H         1 <0>         0.1351
     34 H11         5.8109   -1.8506   -3.0907 H         1 <0>         0.3919
     35 H12         6.9030   -4.2395   -0.7558 H         1 <0>         0.1275
     36 H13         6.9169   -6.6732   -1.1028 H         1 <0>         0.1282
     37 H14         4.8306   -7.9620   -0.9181 H         1 <0>         0.1286
     38 H15         2.7149   -6.8281   -0.3850 H         1 <0>         0.1320
     39 H16         1.9443   -3.9571   -0.7338 H         1 <0>         0.3882
@<TRIPOS>BOND
     1    1    6 ar
     2    1    2 ar
     3    1   24 1
     4    2    3 ar
     5    2   25 1
     6    3    4 ar
     7    3   26 1
     8    4    5 ar
     9    4    7 1
    10    5    6 ar
    11    5   27 1
    12    6   28 1
    13    7    8 1
    14    7   29 1
    15    8    9 2
    16    9   10 1
    17    9   17 1
    18   10   15 ar
    19   10   11 ar
    20   11   12 ar
    21   11   30 1
    22   12   13 ar
    23   12   31 1
    24   13   14 ar
    25   13   32 1
    26   14   15 ar
    27   14   33 1
    28   15   16 1
    29   16   34 1
    30   17   22 ar
    31   17   18 ar
    32   18   19 ar
    33   18   35 1
    34   19   20 ar
    35   19   36 1
    36   20   21 ar
    37   20   37 1
    38   21   22 ar
    39   21   38 1
    40   22   23 1
    41   23   39 1
@<TRIPOS>MOLECULE
ZINC05518718
   43    45     0     0     0
SMALL
USER_CHARGES
4-(2-hydroxy-5-phenylazo-phenyl)azobenzamidine
@<TRIPOS>ATOM
      1 H1         11.6201    3.9652   -0.0881 H         1 <0>         0.4444
      2 C1          9.6805    4.5841   -0.0668 C.cat     1 <0>         0.5999
      3 C2          8.2857    4.0894   -0.0558 C.ar      1 <0>        -0.1543
      4 C3          8.0325    2.7164   -0.0599 C.ar      1 <0>        -0.0579
      5 C4          6.7359    2.2551   -0.0497 C.ar      1 <0>        -0.0693
      6 C5          5.6717    3.1624   -0.0353 C.ar      1 <0>         0.1368
      7 C6          5.9266    4.5374   -0.0366 C.ar      1 <0>        -0.1154
      8 C7          7.2241    4.9962   -0.0410 C.ar      1 <0>        -0.0512
      9 N1          4.3841    2.7056   -0.0256 N.2       1 <0>        -0.2570
     10 N2          3.4028    3.5429   -0.0123 N.2       1 <0>        -0.1407
     11 C8          2.1173    3.0870   -0.0028 C.ar      1 <0>        -0.0103
     12 C9          1.8606    1.7161   -0.0072 C.ar      1 <0>        -0.0030
     13 C10         0.5431    1.2594    0.0028 C.ar      1 <0>         0.0362
     14 C11        -0.5155    2.1767    0.0171 C.ar      1 <0>        -0.0344
     15 C12        -0.2610    3.5303    0.0220 C.ar      1 <0>        -0.1565
     16 C13         1.0463    3.9968    0.0122 C.ar      1 <0>         0.2195
     17 O1          1.2900    5.3308    0.0170 O.3       1 <0>        -0.4804
     18 N3          0.2850   -0.0815   -0.0011 N.2       1 <0>        -0.2241
     19 N4         -0.9338   -0.5038    0.0085 N.2       1 <0>        -0.1920
     20 C14        -1.1922   -1.8462    0.0046 C.ar      1 <0>         0.0310
     21 C15        -0.1386   -2.7640   -0.0154 C.ar      1 <0>        -0.0889
     22 C16        -0.4069   -4.1168   -0.0134 C.ar      1 <0>        -0.1284
     23 C17        -1.7158   -4.5660   -0.0031 C.ar      1 <0>        -0.0791
     24 C18        -2.7644   -3.6631    0.0111 C.ar      1 <0>        -0.1261
     25 C19        -2.5114   -2.3073    0.0150 C.ar      1 <0>        -0.0474
     26 N5          9.9311    5.9394   -0.0628 N.pl3     1 <0>        -0.7808
     27 H2          8.8545    2.0159   -0.0706 H         1 <0>         0.1441
     28 H3          6.5404    1.1930   -0.0524 H         1 <0>         0.1595
     29 H4          5.1056    5.2391   -0.0296 H         1 <0>         0.1587
     30 H5          7.4212    6.0580   -0.0375 H         1 <0>         0.1410
     31 H6          2.6788    1.0113   -0.0187 H         1 <0>         0.1582
     32 H7         -1.5353    1.8211    0.0248 H         1 <0>         0.1551
     33 H8         -1.0822    4.2318    0.0289 H         1 <0>         0.1549
     34 H9          1.3691    5.7130    0.9018 H         1 <0>         0.4060
     35 H10         0.8833   -2.4148   -0.0281 H         1 <0>         0.1371
     36 H11         0.4064   -4.8273   -0.0244 H         1 <0>         0.1312
     37 H12        -1.9199   -5.6266   -0.0064 H         1 <0>         0.1328
     38 H13        -3.7834   -4.0209    0.0188 H         1 <0>         0.1376
     39 H14        -3.3308   -1.6038    0.0257 H         1 <0>         0.1383
     40 H15         9.1933    6.5689   -0.0528 H         1 <0>         0.4429
     41 H16        10.8452    6.2636   -0.0700 H         1 <0>         0.4314
     42 N6         10.6425    3.6740   -0.0802 N.pl3     1 <0>        -0.7596
     43 H17        10.4043    2.6752   -0.0826 H         1 <0>         0.4602
@<TRIPOS>BOND
     1    1   42 1
     2    2    3 1
     3    2   26 1
     4    2   42 2
     5    3    8 ar
     6    3    4 ar
     7    4    5 ar
     8    4   27 1
     9    5    6 ar
    10    5   28 1
    11    6    7 ar
    12    6    9 1
    13    7    8 ar
    14    7   29 1
    15    8   30 1
    16    9   10 2
    17   10   11 1
    18   11   16 ar
    19   11   12 ar
    20   12   13 ar
    21   12   31 1
    22   13   14 ar
    23   13   18 1
    24   14   15 ar
    25   14   32 1
    26   15   16 ar
    27   15   33 1
    28   16   17 1
    29   17   34 1
    30   18   19 2
    31   19   20 1
    32   20   25 ar
    33   20   21 ar
    34   21   22 ar
    35   21   35 1
    36   22   23 ar
    37   22   36 1
    38   23   24 ar
    39   23   37 1
    40   24   25 ar
    41   24   38 1
    42   25   39 1
    43   26   40 1
    44   26   41 1
    45   42   43 1
@<TRIPOS>MOLECULE
ZINC06578340
   45    47     0     0     0
SMALL
USER_CHARGES
4-(2-hydroxy-5-styryl-phenyl)azobenzamidine
@<TRIPOS>ATOM
      1 C1         -5.2520   -5.0879   -0.0004 C.ar      1 <0>        -0.1116
      2 C2         -5.6973   -3.7777    0.0108 C.ar      1 <0>        -0.1187
      3 C3         -4.7913   -2.7378    0.0133 C.ar      1 <0>        -0.1025
      4 C4         -3.4206   -3.0100    0.0049 C.ar      1 <0>        -0.0693
      5 C5         -2.9785   -4.3354   -0.0119 C.ar      1 <0>        -0.1099
      6 C6         -3.8963   -5.3649   -0.0089 C.ar      1 <0>        -0.1197
      7 C7         -2.4462   -1.9043    0.0075 C.2       1 <0>        -0.0842
      8 C8         -1.1301   -2.1694   -0.0007 C.2       1 <0>        -0.1244
      9 C9         -0.1557   -1.0637   -0.0043 C.ar      1 <0>        -0.0664
     10 C10        -0.6023    0.2633    0.0067 C.ar      1 <0>        -0.0441
     11 C11         0.3043    1.3011    0.0045 C.ar      1 <0>        -0.1515
     12 C12         1.6668    1.0397   -0.0092 C.ar      1 <0>         0.1963
     13 C13         2.1278   -0.2870   -0.0208 C.ar      1 <0>        -0.0068
     14 C14         1.2104   -1.3387   -0.0127 C.ar      1 <0>        -0.0499
     15 N1          3.4668   -0.5465   -0.0339 N.2       1 <0>        -0.1420
     16 N2          3.8873   -1.7660   -0.0445 N.2       1 <0>        -0.2623
     17 C15         5.2285   -2.0260   -0.0575 C.ar      1 <0>         0.1391
     18 C16         6.1460   -0.9705   -0.0652 C.ar      1 <0>        -0.1174
     19 C17         7.4967   -1.2336   -0.0726 C.ar      1 <0>        -0.0503
     20 C18         7.9513   -2.5539   -0.0846 C.ar      1 <0>        -0.1563
     21 C19         7.0362   -3.6085   -0.0826 C.ar      1 <0>        -0.0572
     22 C20         5.6851   -3.3479   -0.0691 C.ar      1 <0>        -0.0717
     23 C21         9.4041   -2.8355   -0.0988 C.cat     1 <0>         0.6000
     24 N3         10.3078   -1.7949   -0.1005 N.pl3     1 <0>        -0.7811
     25 O1          2.5543    2.0661   -0.0119 O.3       1 <0>        -0.4830
     26 H1         -5.9662   -5.8980   -0.0023 H         1 <0>         0.1252
     27 H2         -6.7570   -3.5690    0.0174 H         1 <0>         0.1269
     28 H3         -5.1403   -1.7158    0.0221 H         1 <0>         0.1262
     29 H4         -1.9208   -4.5532   -0.0234 H         1 <0>         0.1240
     30 H5         -3.5560   -6.3899   -0.0173 H         1 <0>         0.1251
     31 H6         -2.7908   -0.8807    0.0159 H         1 <0>         0.1253
     32 H7         -0.7854   -3.1929   -0.0092 H         1 <0>         0.1281
     33 H8         -1.6614    0.4743    0.0175 H         1 <0>         0.1441
     34 H9         -0.0472    2.3221    0.0137 H         1 <0>         0.1504
     35 H10         1.5577   -2.3612   -0.0167 H         1 <0>         0.1483
     36 H11         5.7946    0.0507   -0.0605 H         1 <0>         0.1580
     37 H12         8.2055   -0.4188   -0.0737 H         1 <0>         0.1406
     38 H13         7.3890   -4.6292   -0.0916 H         1 <0>         0.1437
     39 H14         4.9775   -4.1638   -0.0669 H         1 <0>         0.1586
     40 H15        10.7612   -4.3532   -0.1191 H         1 <0>         0.4443
     41 H16         9.9916   -0.8779   -0.0926 H         1 <0>         0.4428
     42 H17        11.2600   -1.9794   -0.1098 H         1 <0>         0.4313
     43 H18         2.8196    2.3590    0.8707 H         1 <0>         0.4021
     44 N4          9.7711   -4.1080   -0.1091 N.pl3     1 <0>        -0.7600
     45 H19         9.0590   -4.8477   -0.1072 H         1 <0>         0.4601
@<TRIPOS>BOND
     1    1    6 ar
     2    1    2 ar
     3    1   26 1
     4    2    3 ar
     5    2   27 1
     6    3    4 ar
     7    3   28 1
     8    4    5 ar
     9    4    7 1
    10    5    6 ar
    11    5   29 1
    12    6   30 1
    13    7    8 2
    14    7   31 1
    15    8    9 1
    16    8   32 1
    17    9   14 ar
    18    9   10 ar
    19   10   11 ar
    20   10   33 1
    21   11   12 ar
    22   11   34 1
    23   12   13 ar
    24   12   25 1
    25   13   14 ar
    26   13   15 1
    27   14   35 1
    28   15   16 2
    29   16   17 1
    30   17   22 ar
    31   17   18 ar
    32   18   19 ar
    33   18   36 1
    34   19   20 ar
    35   19   37 1
    36   20   21 ar
    37   20   23 1
    38   21   22 ar
    39   21   38 1
    40   22   39 1
    41   23   24 1
    42   23   44 2
    43   24   41 1
    44   24   42 1
    45   25   43 1
    46   40   44 1
    47   44   45 1
@<TRIPOS>MOLECULE
ZINC05519276
   51    54     0     0     0
SMALL
USER_CHARGES
4-(4-amidinophenyl)azo-3-hydroxy-N-phenyl-naphthalene-2-carboxamide
@<TRIPOS>ATOM
      1 H1         -3.3697   -0.3412    0.0320 H         1 <0>         0.4437
      2 C1         -1.4320   -0.9674    0.0191 C.cat     1 <0>         0.6000
      3 C2         -0.0358   -0.4779    0.0084 C.ar      1 <0>        -0.1610
      4 C3          0.2224    0.8946    0.0045 C.ar      1 <0>        -0.0545
      5 C4          1.5158    1.3495   -0.0054 C.ar      1 <0>        -0.1228
      6 C5          2.5771    0.4381   -0.0112 C.ar      1 <0>         0.1427
      7 C6          2.3171   -0.9365   -0.0069 C.ar      1 <0>        -0.0738
      8 C7          1.0228   -1.3887    0.0025 C.ar      1 <0>        -0.0501
      9 N1          3.8656    0.8898   -0.0202 N.2       1 <0>        -0.2481
     10 N2          4.1047    2.1573   -0.0242 N.2       1 <0>        -0.1578
     11 C8          5.3859    2.6065   -0.0331 C.ar      1 <0>        -0.0059
     12 C9          5.6713    4.0418   -0.0438 C.ar      1 <0>         0.0390
     13 C10         4.6386    4.9859   -0.0461 C.ar      1 <0>        -0.1150
     14 C11         4.9393    6.3163   -0.0571 C.ar      1 <0>        -0.0736
     15 C12         6.2623    6.7505   -0.0660 C.ar      1 <0>        -0.1197
     16 C13         7.2921    5.8596   -0.0508 C.ar      1 <0>        -0.0756
     17 C14         7.0189    4.4797   -0.0464 C.ar      1 <0>        -0.0876
     18 C15         8.0578    3.5364   -0.0516 C.ar      1 <0>         0.0223
     19 C16         7.7790    2.1802   -0.0472 C.ar      1 <0>        -0.1884
     20 C17         6.4536    1.7070   -0.0380 C.ar      1 <0>         0.2472
     21 O1          6.2129    0.3740   -0.0344 O.3       1 <0>        -0.4453
     22 C18         8.8930    1.2124   -0.0528 C.2       1 <0>         0.5593
     23 O2          8.6613    0.0187   -0.0494 O.2       1 <0>        -0.4940
     24 N3         10.1671    1.6515   -0.0617 N.am      1 <0>        -0.6691
     25 C19        11.2222    0.7382    0.0310 C.ar      1 <0>         0.1368
     26 C20        12.3810    1.0805    0.7161 C.ar      1 <0>        -0.1422
     27 C21        13.4183    0.1739    0.8114 C.ar      1 <0>        -0.1003
     28 C22        13.3094   -1.0690    0.2149 C.ar      1 <0>        -0.1289
     29 C23        12.1595   -1.4106   -0.4732 C.ar      1 <0>        -0.1020
     30 C24        11.1159   -0.5110   -0.5665 C.ar      1 <0>        -0.1187
     31 N4         -1.6875   -2.3218    0.0229 N.pl3     1 <0>        -0.7815
     32 H2         -0.5972    1.5979    0.0049 H         1 <0>         0.1372
     33 H3          1.7152    2.4109   -0.0088 H         1 <0>         0.1550
     34 H4          3.1356   -1.6412   -0.0114 H         1 <0>         0.1591
     35 H5          0.8218   -2.4499    0.0060 H         1 <0>         0.1443
     36 H6          3.6081    4.6627   -0.0389 H         1 <0>         0.1382
     37 H7          4.1403    7.0429   -0.0586 H         1 <0>         0.1355
     38 H8          6.4748    7.8094   -0.0744 H         1 <0>         0.1366
     39 H9          8.3135    6.2106   -0.0575 H         1 <0>         0.1417
     40 H10         9.0844    3.8714   -0.0587 H         1 <0>         0.1469
     41 H11         6.1377   -0.0146   -0.9168 H         1 <0>         0.4051
     42 H12        10.3524    2.6010   -0.1322 H         1 <0>         0.4083
     43 H13        12.4686    2.0530    1.1778 H         1 <0>         0.1259
     44 H14        14.3177    0.4376    1.3480 H         1 <0>         0.1289
     45 H15        14.1240   -1.7744    0.2868 H         1 <0>         0.1260
     46 H16        12.0774   -2.3822   -0.9376 H         1 <0>         0.1272
     47 H17        10.2180   -0.7785   -1.1041 H         1 <0>         0.1377
     48 H18        -0.9519   -2.9540    0.0185 H         1 <0>         0.4429
     49 H19        -2.6029   -2.6426    0.0299 H         1 <0>         0.4309
     50 N5         -2.3909   -0.0535    0.0246 N.pl3     1 <0>        -0.7617
     51 H20        -2.1492    0.9444    0.0214 H         1 <0>         0.4595
@<TRIPOS>BOND
     1    1   50 1
     2    2    3 1
     3    2   31 1
     4    2   50 2
     5    3    8 ar
     6    3    4 ar
     7    4    5 ar
     8    4   32 1
     9    5    6 ar
    10    5   33 1
    11    6    7 ar
    12    6    9 1
    13    7    8 ar
    14    7   34 1
    15    8   35 1
    16    9   10 2
    17   10   11 1
    18   11   20 ar
    19   11   12 ar
    20   12   17 ar
    21   12   13 ar
    22   13   14 ar
    23   13   36 1
    24   14   15 ar
    25   14   37 1
    26   15   16 ar
    27   15   38 1
    28   16   17 ar
    29   16   39 1
    30   17   18 ar
    31   18   19 ar
    32   18   40 1
    33   19   20 ar
    34   19   22 1
    35   20   21 1
    36   21   41 1
    37   22   23 2
    38   22   24 am
    39   24   25 1
    40   24   42 1
    41   25   30 ar
    42   25   26 ar
    43   26   27 ar
    44   26   43 1
    45   27   28 ar
    46   27   44 1
    47   28   29 ar
    48   28   45 1
    49   29   30 ar
    50   29   46 1
    51   30   47 1
    52   31   48 1
    53   31   49 1
    54   50   51 1
@<TRIPOS>MOLECULE
ZINC01626277
   61    65     0     0     0
SMALL
USER_CHARGES
1-[2-(3,5-diphenylpyrazol-1-yl)-4-methyl-thiazol-5-yl]-4-methyl-5-phenyl-penta-2,4-dien-1-one
@<TRIPOS>ATOM
      1 C1          1.9075    7.3286    1.1411 C.3       1 <0>        -0.0926
      2 C2          1.6738    5.8528    0.9445 C.2       1 <0>         0.1674
      3 C3          0.3909    5.3434    0.7864 C.2       1 <0>        -0.3186
      4 S1          0.7508    3.6032    0.5958 S.3       1 <0>         0.1898
      5 C4          2.4774    3.7107    0.7457 C.2       1 <0>         0.3126
      6 N1          2.6712    5.0084    0.9173 N.2       1 <0>        -0.5161
      7 N2          3.4181    2.6924    0.6928 N.pl3     1 <0>        -0.2872
      8 C5          3.1536    1.3496    0.7101 C.2       1 <0>         0.1270
      9 C6          4.3477    0.6957    0.6365 C.2       1 <0>        -0.2019
     10 C7          5.3655    1.6645    0.5784 C.2       1 <0>         0.1355
     11 N3          4.8069    2.8563    0.6155 N.2       1 <0>        -0.2376
     12 C8          6.8213    1.3902    0.4911 C.ar      1 <0>        -0.0271
     13 C9          7.2851    0.0765    0.4660 C.ar      1 <0>        -0.0892
     14 C10         8.6398   -0.1728    0.3798 C.ar      1 <0>        -0.1212
     15 C11         9.5373    0.8786    0.3296 C.ar      1 <0>        -0.1043
     16 C12         9.0827    2.1847    0.3590 C.ar      1 <0>        -0.1212
     17 C13         7.7298    2.4455    0.4397 C.ar      1 <0>        -0.0848
     18 C14         1.8161    0.7224    0.7879 C.ar      1 <0>        -0.0512
     19 C15         1.5215   -0.3981    0.0104 C.ar      1 <0>        -0.0797
     20 C16         0.2724   -0.9790    0.0883 C.ar      1 <0>        -0.1112
     21 C17        -0.6870   -0.4525    0.9346 C.ar      1 <0>        -0.0994
     22 C18        -0.4014    0.6589    1.7075 C.ar      1 <0>        -0.1045
     23 C19         0.8440    1.2488    1.6392 C.ar      1 <0>        -0.1078
     24 C20        -0.8987    6.0402    0.7731 C.2       1 <0>         0.4758
     25 O1         -0.9392    7.2510    0.9158 O.2       1 <0>        -0.4528
     26 C21        -2.0992    5.3067    0.5943 C.2       1 <0>        -0.2476
     27 C22        -3.2932    5.9519    0.5819 C.2       1 <0>         0.0069
     28 C23        -4.4881    5.2219    0.4040 C.2       1 <0>        -0.1225
     29 C24        -5.6784    5.8650    0.3916 C.2       1 <0>        -0.0584
     30 C25        -6.9303    5.0943    0.3592 C.ar      1 <0>        -0.0730
     31 C26        -8.0334    5.5742   -0.3555 C.ar      1 <0>        -0.1002
     32 C27        -9.2013    4.8423   -0.3864 C.ar      1 <0>        -0.1222
     33 C28        -9.2886    3.6420    0.2975 C.ar      1 <0>        -0.1106
     34 C29        -8.2039    3.1633    1.0119 C.ar      1 <0>        -0.1239
     35 C30        -7.0266    3.8798    1.0474 C.ar      1 <0>        -0.1044
     36 C31        -4.4381    3.7261    0.2277 C.3       1 <0>        -0.1260
     37 H1          2.0401    7.8078    0.1711 H         1 <0>         0.0851
     38 H2          1.0489    7.7679    1.6490 H         1 <0>         0.0973
     39 H3          2.8024    7.4775    1.7452 H         1 <0>         0.0785
     40 H4          4.4872   -0.3752    0.6255 H         1 <0>         0.1711
     41 H5          6.5855   -0.7451    0.5101 H         1 <0>         0.1293
     42 H6          9.0001   -1.1906    0.3562 H         1 <0>         0.1295
     43 H7         10.5968    0.6790    0.2667 H         1 <0>         0.1265
     44 H8          9.7877    3.0018    0.3191 H         1 <0>         0.1283
     45 H9          7.3759    3.4656    0.4627 H         1 <0>         0.1308
     46 H10         2.2697   -0.8102   -0.6504 H         1 <0>         0.1342
     47 H11         0.0446   -1.8492   -0.5095 H         1 <0>         0.1342
     48 H12        -1.6633   -0.9108    0.9920 H         1 <0>         0.1316
     49 H13        -1.1548    1.0654    2.3660 H         1 <0>         0.1333
     50 H14         1.0657    2.1163    2.2430 H         1 <0>         0.1264
     51 H15        -2.0633    4.2348    0.4679 H         1 <0>         0.1314
     52 H16        -3.3291    7.0239    0.7083 H         1 <0>         0.1355
     53 H17        -5.7091    6.9445    0.4057 H         1 <0>         0.1308
     54 H18        -7.9685    6.5131   -0.8853 H         1 <0>         0.1259
     55 H19       -10.0520    5.2087   -0.9418 H         1 <0>         0.1253
     56 H20       -10.2079    3.0757    0.2733 H         1 <0>         0.1236
     57 H21        -8.2799    2.2257    1.5426 H         1 <0>         0.1251
     58 H22        -6.1810    3.5047    1.6047 H         1 <0>         0.1318
     59 H23        -4.5187    3.2426    1.2012 H         1 <0>         0.0736
     60 H24        -5.2655    3.4070   -0.4061 H         1 <0>         0.0756
     61 H25        -3.4938    3.4467   -0.2396 H         1 <0>         0.0678
@<TRIPOS>BOND
     1    1    2 1
     2    1   37 1
     3    1   38 1
     4    1   39 1
     5    2    6 1
     6    2    3 2
     7    3    4 1
     8    3   24 1
     9    4    5 1
    10    5    6 2
    11    5    7 1
    12    7   11 1
    13    7    8 1
    14    8    9 2
    15    8   18 1
    16    9   10 1
    17    9   40 1
    18   10   11 2
    19   10   12 1
    20   12   17 ar
    21   12   13 ar
    22   13   14 ar
    23   13   41 1
    24   14   15 ar
    25   14   42 1
    26   15   16 ar
    27   15   43 1
    28   16   17 ar
    29   16   44 1
    30   17   45 1
    31   18   23 ar
    32   18   19 ar
    33   19   20 ar
    34   19   46 1
    35   20   21 ar
    36   20   47 1
    37   21   22 ar
    38   21   48 1
    39   22   23 ar
    40   22   49 1
    41   23   50 1
    42   24   25 2
    43   24   26 1
    44   26   27 2
    45   26   51 1
    46   27   28 1
    47   27   52 1
    48   28   29 2
    49   28   36 1
    50   29   30 1
    51   29   53 1
    52   30   35 ar
    53   30   31 ar
    54   31   32 ar
    55   31   54 1
    56   32   33 ar
    57   32   55 1
    58   33   34 ar
    59   33   56 1
    60   34   35 ar
    61   34   57 1
    62   35   58 1
    63   36   59 1
    64   36   60 1
    65   36   61 1
@<TRIPOS>MOLECULE
ZINC16957594
   56    60     0     0     0
SMALL
USER_CHARGES
(E)-1-[2-(3,5-diphenylpyrazol-1-yl)-4-methyl-thiazol-5-yl]-3-(4-nitrophenyl)prop-2-en-1-one
@<TRIPOS>ATOM
      1 C1          1.8324    8.0078   -0.1805 C.3       1 <0>        -0.0952
      2 C2          1.7452    6.5068   -0.0788 C.2       1 <0>         0.1666
      3 C3          0.5184    5.8647    0.0433 C.2       1 <0>        -0.2885
      4 S1          1.0475    4.1592    0.1180 S.3       1 <0>         0.1699
      5 C4          2.7551    4.4453   -0.0130 C.2       1 <0>         0.3244
      6 N1          2.8205    5.7647   -0.0966 N.2       1 <0>        -0.5023
      7 N2          3.7912    3.5231   -0.0216 N.pl3     1 <0>        -0.2982
      8 C5          4.0174    2.5566    0.9208 C.2       1 <0>         0.1410
      9 C6          5.1267    1.8625    0.5380 C.2       1 <0>        -0.2099
     10 C7          5.5914    2.4241   -0.6647 C.2       1 <0>         0.1406
     11 N3          4.7934    3.4182   -0.9944 N.2       1 <0>        -0.2454
     12 C8          6.7793    1.9734   -1.4314 C.ar      1 <0>        -0.0275
     13 C9          7.5474    0.9071   -0.9680 C.ar      1 <0>        -0.0886
     14 C10         8.6481    0.4887   -1.6879 C.ar      1 <0>        -0.1207
     15 C11         8.9960    1.1331   -2.8614 C.ar      1 <0>        -0.1038
     16 C12         8.2402    2.1955   -3.3233 C.ar      1 <0>        -0.1212
     17 C13         7.1341    2.6186   -2.6144 C.ar      1 <0>        -0.0853
     18 C14         3.2032    2.3066    2.1303 C.ar      1 <0>        -0.0494
     19 C15         3.2295    1.0549    2.7462 C.ar      1 <0>        -0.0807
     20 C16         2.4682    0.8283    3.8743 C.ar      1 <0>        -0.1133
     21 C17         1.6796    1.8389    4.3947 C.ar      1 <0>        -0.0996
     22 C18         1.6488    3.0822    3.7885 C.ar      1 <0>        -0.1101
     23 C19         2.4058    3.3217    2.6601 C.ar      1 <0>        -0.1087
     24 C20        -0.8325    6.4291    0.0962 C.2       1 <0>         0.4753
     25 O1         -0.9920    7.6359    0.0296 O.2       1 <0>        -0.4309
     26 C21        -1.9918    5.5431    0.2290 C.2       1 <0>        -0.2066
     27 C22        -3.2355    6.0626    0.2776 C.2       1 <0>        -0.0218
     28 C23        -4.4001    5.1727    0.4110 C.ar      1 <0>        -0.0259
     29 C24        -4.2216    3.7874    0.4819 C.ar      1 <0>        -0.1029
     30 C25        -5.3174    2.9606    0.6122 C.ar      1 <0>        -0.0530
     31 C26        -6.5920    3.4977    0.6622 C.ar      1 <0>        -0.0357
     32 C27        -6.7773    4.8672    0.5869 C.ar      1 <0>        -0.0540
     33 C28        -5.6913    5.7076    0.4618 C.ar      1 <0>        -0.0921
     34 N4         -7.7632    2.6027    0.7964 N.pl3     1 <0>         0.0240
     35 O2         -8.8864    3.0719    0.8403 O.2       1 <0>        -0.1536
     36 O3         -7.6039    1.3970    0.8630 O.3       1 <0>        -0.1541
     37 H1          1.9211    8.4351    0.8183 H         1 <0>         0.0885
     38 H2          2.7062    8.2817   -0.7718 H         1 <0>         0.0826
     39 H3          0.9331    8.3922   -0.6617 H         1 <0>         0.0984
     40 H4          5.5697    1.0301    1.0646 H         1 <0>         0.1704
     41 H5          7.2792    0.4061   -0.0496 H         1 <0>         0.1295
     42 H6          9.2417   -0.3403   -1.3318 H         1 <0>         0.1298
     43 H7          9.8607    0.8053   -3.4192 H         1 <0>         0.1268
     44 H8          8.5163    2.6951   -4.2401 H         1 <0>         0.1282
     45 H9          6.5445    3.4479   -2.9762 H         1 <0>         0.1297
     46 H10         3.8450    0.2653    2.3411 H         1 <0>         0.1348
     47 H11         2.4913   -0.1387    4.3547 H         1 <0>         0.1344
     48 H12         1.0852    1.6564    5.2777 H         1 <0>         0.1308
     49 H13         1.0312    3.8670    4.1996 H         1 <0>         0.1296
     50 H14         2.3815    4.2928    2.1882 H         1 <0>         0.1112
     51 H15        -1.8505    4.4740    0.2879 H         1 <0>         0.1358
     52 H16        -3.3768    7.1317    0.2187 H         1 <0>         0.1504
     53 H17        -3.2279    3.3665    0.4389 H         1 <0>         0.1513
     54 H18        -5.1810    1.8909    0.6712 H         1 <0>         0.1592
     55 H19        -7.7750    5.2788    0.6266 H         1 <0>         0.1600
     56 H20        -5.8375    6.7760    0.4028 H         1 <0>         0.1559
@<TRIPOS>BOND
     1    1    2 1
     2    1   37 1
     3    1   38 1
     4    1   39 1
     5    2    6 1
     6    2    3 2
     7    3    4 1
     8    3   24 1
     9    4    5 1
    10    5    6 2
    11    5    7 1
    12    7   11 1
    13    7    8 1
    14    8    9 2
    15    8   18 1
    16    9   10 1
    17    9   40 1
    18   10   11 2
    19   10   12 1
    20   12   17 ar
    21   12   13 ar
    22   13   14 ar
    23   13   41 1
    24   14   15 ar
    25   14   42 1
    26   15   16 ar
    27   15   43 1
    28   16   17 ar
    29   16   44 1
    30   17   45 1
    31   18   23 ar
    32   18   19 ar
    33   19   20 ar
    34   19   46 1
    35   20   21 ar
    36   20   47 1
    37   21   22 ar
    38   21   48 1
    39   22   23 ar
    40   22   49 1
    41   23   50 1
    42   24   25 2
    43   24   26 1
    44   26   27 2
    45   26   51 1
    46   27   28 1
    47   27   52 1
    48   28   33 ar
    49   28   29 ar
    50   29   30 ar
    51   29   53 1
    52   30   31 ar
    53   30   54 1
    54   31   32 ar
    55   31   34 1
    56   32   33 ar
    57   32   55 1
    58   33   56 1
    59   34   35 2
    60   34   36 1
@<TRIPOS>MOLECULE
ZINC16957596
   54    58     0     0     0
SMALL
USER_CHARGES
(E)-1-[2-(3,5-diphenylpyrazol-1-yl)-4-methyl-thiazol-5-yl]-3-phenyl-prop-2-en-1-one
@<TRIPOS>ATOM
      1 C1          1.8325    8.0078   -0.1820 C.3       1 <0>        -0.0936
      2 C2          1.7452    6.5067   -0.0802 C.2       1 <0>         0.1593
      3 C3          0.5183    5.8647    0.0407 C.2       1 <0>        -0.2795
      4 S1          1.0469    4.1588    0.1084 S.3       1 <0>         0.1715
      5 C4          2.7551    4.4454   -0.0132 C.2       1 <0>         0.3160
      6 N1          2.8202    5.7643   -0.1023 N.2       1 <0>        -0.5010
      7 N2          3.7912    3.5231   -0.0211 N.pl3     1 <0>        -0.2961
      8 C5          4.0169    2.5568    0.9217 C.2       1 <0>         0.1416
      9 C6          5.1262    1.8624    0.5394 C.2       1 <0>        -0.2116
     10 C7          5.5911    2.4232   -0.6637 C.2       1 <0>         0.1385
     11 N3          4.7932    3.4172   -0.9940 N.2       1 <0>        -0.2456
     12 C8          6.7790    1.9719   -1.4300 C.ar      1 <0>        -0.0261
     13 C9          7.5469    0.9058   -0.9659 C.ar      1 <0>        -0.0891
     14 C10         8.6476    0.4868   -1.6854 C.ar      1 <0>        -0.1209
     15 C11         8.9957    1.1305   -2.8593 C.ar      1 <0>        -0.1047
     16 C12         8.2400    2.1927   -3.3219 C.ar      1 <0>        -0.1212
     17 C13         7.1339    2.6163   -2.6134 C.ar      1 <0>        -0.0857
     18 C14         3.2024    2.3074    2.1310 C.ar      1 <0>        -0.0490
     19 C15         2.4006    3.3210    2.6570 C.ar      1 <0>        -0.1078
     20 C16         1.6433    3.0820    3.7853 C.ar      1 <0>        -0.1096
     21 C17         1.6780    1.8407    4.3951 C.ar      1 <0>        -0.1000
     22 C18         2.4713    0.8316    3.8788 C.ar      1 <0>        -0.1141
     23 C19         3.2330    1.0577    2.7508 C.ar      1 <0>        -0.0814
     24 C20        -0.8326    6.4290    0.0921 C.2       1 <0>         0.4762
     25 O1         -0.9921    7.6358    0.0248 O.2       1 <0>        -0.4397
     26 C21        -1.9921    5.5431    0.2244 C.2       1 <0>        -0.2401
     27 C22        -3.2358    6.0626    0.2717 C.2       1 <0>         0.0037
     28 C23        -4.4005    5.1727    0.4046 C.ar      1 <0>        -0.0884
     29 C24        -4.2220    3.7874    0.4763 C.ar      1 <0>        -0.0964
     30 C25        -5.3179    2.9606    0.6060 C.ar      1 <0>        -0.1229
     31 C26        -6.5926    3.4976    0.6537 C.ar      1 <0>        -0.1018
     32 C27        -6.7778    4.8672    0.5781 C.ar      1 <0>        -0.1234
     33 C28        -5.6918    5.7076    0.4540 C.ar      1 <0>        -0.0891
     34 H1          1.7869    8.3042   -1.2299 H         1 <0>         0.0877
     35 H2          1.0003    8.4577    0.3594 H         1 <0>         0.0982
     36 H3          2.7735    8.3471    0.2510 H         1 <0>         0.0806
     37 H4          5.5691    1.0303    1.0666 H         1 <0>         0.1698
     38 H5          7.2786    0.4055   -0.0471 H         1 <0>         0.1294
     39 H6          9.2412   -0.3420   -1.3287 H         1 <0>         0.1295
     40 H7          9.8604    0.8022   -3.4168 H         1 <0>         0.1264
     41 H8          8.5162    2.6917   -4.2390 H         1 <0>         0.1280
     42 H9          6.5444    3.4455   -2.9756 H         1 <0>         0.1297
     43 H10         2.3724    4.2904    2.1816 H         1 <0>         0.1119
     44 H11         1.0186    3.8643    4.1906 H         1 <0>         0.1299
     45 H12         1.0836    1.6587    5.2783 H         1 <0>         0.1305
     46 H13         2.4940   -0.1352    4.3595 H         1 <0>         0.1337
     47 H14         3.8518    0.2692    2.3487 H         1 <0>         0.1343
     48 H15        -1.8508    4.4740    0.2840 H         1 <0>         0.1319
     49 H16        -3.3771    7.1317    0.2121 H         1 <0>         0.1400
     50 H17        -3.2283    3.3666    0.4342 H         1 <0>         0.1272
     51 H18        -5.1815    1.8909    0.6655 H         1 <0>         0.1278
     52 H19        -7.4473    2.8446    0.7509 H         1 <0>         0.1265
     53 H20        -7.7757    5.2786    0.6161 H         1 <0>         0.1285
     54 H21        -5.8378    6.7760    0.3955 H         1 <0>         0.1301
@<TRIPOS>BOND
     1    1    2 1
     2    1   34 1
     3    1   35 1
     4    1   36 1
     5    2    6 1
     6    2    3 2
     7    3    4 1
     8    3   24 1
     9    4    5 1
    10    5    6 2
    11    5    7 1
    12    7   11 1
    13    7    8 1
    14    8    9 2
    15    8   18 1
    16    9   10 1
    17    9   37 1
    18   10   11 2
    19   10   12 1
    20   12   17 ar
    21   12   13 ar
    22   13   14 ar
    23   13   38 1
    24   14   15 ar
    25   14   39 1
    26   15   16 ar
    27   15   40 1
    28   16   17 ar
    29   16   41 1
    30   17   42 1
    31   18   23 ar
    32   18   19 ar
    33   19   20 ar
    34   19   43 1
    35   20   21 ar
    36   20   44 1
    37   21   22 ar
    38   21   45 1
    39   22   23 ar
    40   22   46 1
    41   23   47 1
    42   24   25 2
    43   24   26 1
    44   26   27 2
    45   26   48 1
    46   27   28 1
    47   27   49 1
    48   28   33 ar
    49   28   29 ar
    50   29   30 ar
    51   29   50 1
    52   30   31 ar
    53   30   51 1
    54   31   32 ar
    55   31   52 1
    56   32   33 ar
    57   32   53 1
    58   33   54 1
@<TRIPOS>MOLECULE
ZINC01713901
   28    30     0     0     0
SMALL
USER_CHARGES
2,6-dimethyl-3H-pyrrolo[3,2-f]quinolin-6-ium
@<TRIPOS>ATOM
      1 C1         -1.2580    2.1946    0.0202 C.3       1 <0>        -0.1070
      2 C2         -0.0162    1.3409    0.0094 C.2       1 <0>         0.1144
      3 C3          0.0021   -0.0041    0.0020 C.2       1 <0>        -0.1904
      4 C4          1.3549   -0.4166   -0.0131 C.ar      1 <0>        -0.0683
      5 C5          2.0223   -1.7147   -0.0269 C.ar      1 <0>        -0.0301
      6 C6          1.3011   -2.9149   -0.0265 C.ar      1 <0>         0.0265
      7 C7          2.0025   -4.0906   -0.0392 C.ar      1 <0>        -0.1561
      8 C8          3.3930   -4.0659   -0.0520 C.ar      1 <0>         0.1623
      9 N1          4.0628   -2.9376   -0.0523 N.ar      1 <0>        -0.3447
     10 C9          3.4370   -1.7573   -0.0399 C.ar      1 <0>         0.1467
     11 C10         4.1637   -0.5499   -0.0399 C.ar      1 <0>        -0.1686
     12 C11         3.5325    0.6492   -0.0278 C.ar      1 <0>         0.0070
     13 C12         2.1356    0.7457   -0.0143 C.ar      1 <0>         0.0541
     14 N2          1.2662    1.8131   -0.0003 N.pl3     1 <0>        -0.5495
     15 H1          1.5223    2.7487    0.0023 H         1 <0>         0.4303
     16 C13         5.5273   -2.9729   -0.0661 C.3       1 <0>         0.0103
     17 H2         -1.5523    2.3948    1.0504 H         1 <0>         0.0916
     18 H3         -1.0558    3.1366   -0.4895 H         1 <0>         0.0795
     19 H4         -2.0641    1.6698   -0.4925 H         1 <0>         0.0975
     20 H5         -0.8615   -0.6527    0.0068 H         1 <0>         0.1606
     21 H6          0.2212   -2.9132   -0.0158 H         1 <0>         0.1730
     22 H7          1.4776   -5.0345   -0.0389 H         1 <0>         0.1838
     23 H8          3.9356   -4.9996   -0.0623 H         1 <0>         0.2049
     24 H9          5.2432   -0.5807   -0.0500 H         1 <0>         0.1582
     25 H10         4.1221    1.5540   -0.0289 H         1 <0>         0.1504
     26 H11         5.9001   -2.9874    0.9580 H         1 <0>         0.1196
     27 H12         5.8643   -3.8684   -0.5881 H         1 <0>         0.1236
     28 H13         5.9072   -2.0890   -0.5786 H         1 <0>         0.1203
@<TRIPOS>BOND
     1    1    2 1
     2    1   17 1
     3    1   18 1
     4    1   19 1
     5    2   14 1
     6    2    3 2
     7    3    4 1
     8    3   20 1
     9    4   13 ar
    10    4    5 ar
    11    5   10 ar
    12    5    6 ar
    13    6    7 ar
    14    6   21 1
    15    7    8 ar
    16    7   22 1
    17    8    9 ar
    18    8   23 1
    19    9   10 ar
    20    9   16 1
    21   10   11 ar
    22   11   12 ar
    23   11   24 1
    24   12   13 ar
    25   12   25 1
    26   13   14 1
    27   14   15 1
    28   16   26 1
    29   16   27 1
    30   16   28 1
@<TRIPOS>MOLECULE
ZINC01713905
   34    37     0     0     0
SMALL
USER_CHARGES
4,7-dimethylpyrido[2,3-c]carbazol-4-ium
@<TRIPOS>ATOM
      1 C1          3.5878    0.7927   -0.0279 C.3       1 <0>         0.0669
      2 N1          2.1231    0.7660   -0.0141 N.pl3     1 <0>        -0.4762
      3 C2          1.3548   -0.3818   -0.0129 C.ar      1 <0>         0.1383
      4 C3          1.6843   -1.7340   -0.0242 C.ar      1 <0>        -0.1278
      5 C4          0.6888   -2.6865   -0.0202 C.ar      1 <0>        -0.0680
      6 C5         -0.6470   -2.3123   -0.0050 C.ar      1 <0>        -0.1285
      7 C6         -0.9947   -0.9799    0.0059 C.ar      1 <0>        -0.0672
      8 C7          0.0021   -0.0041    0.0020 C.ar      1 <0>        -0.1029
      9 C8         -0.0178    1.4649    0.0101 C.ar      1 <0>        -0.0779
     10 C9          1.3128    1.8862   -0.0003 C.ar      1 <0>         0.1319
     11 C10         1.6060    3.2570    0.0049 C.ar      1 <0>        -0.0219
     12 C11         0.6297    4.1972    0.0200 C.ar      1 <0>        -0.1360
     13 C12        -0.7304    3.8344    0.0311 C.ar      1 <0>         0.1238
     14 C13        -1.0787    2.4615    0.0309 C.ar      1 <0>        -0.0168
     15 C14        -2.4332    2.0987    0.0378 C.ar      1 <0>         0.0206
     16 C15        -3.3686    3.0968    0.0533 C.ar      1 <0>        -0.1514
     17 C16        -2.9612    4.4277    0.0571 C.ar      1 <0>         0.1662
     18 N2         -1.6928    4.7611    0.0463 N.ar      1 <0>        -0.3379
     19 C17        -1.3236    6.1788    0.0516 C.3       1 <0>         0.0090
     20 H1          3.9412    0.8052   -1.0590 H         1 <0>         0.0833
     21 H2          3.9398    1.6861    0.4877 H         1 <0>         0.0906
     22 H3          3.9721   -0.0935    0.4771 H         1 <0>         0.0954
     23 H4          2.7209   -2.0368   -0.0364 H         1 <0>         0.1337
     24 H5          0.9509   -3.7342   -0.0294 H         1 <0>         0.1411
     25 H6         -1.4175   -3.0691   -0.0020 H         1 <0>         0.1385
     26 H7         -2.0354   -0.6914    0.0170 H         1 <0>         0.1281
     27 H8          2.6388    3.5728   -0.0029 H         1 <0>         0.1538
     28 H9          0.9001    5.2428    0.0239 H         1 <0>         0.1616
     29 H10        -2.7297    1.0602    0.0345 H         1 <0>         0.1708
     30 H11        -4.4206    2.8527    0.0628 H         1 <0>         0.1854
     31 H12        -3.7094    5.2064    0.0697 H         1 <0>         0.2068
     32 H13        -1.2421    6.5369   -0.9746 H         1 <0>         0.1210
     33 H14        -2.0882    6.7515    0.5766 H         1 <0>         0.1250
     34 H15        -0.3657    6.3030    0.5569 H         1 <0>         0.1207
@<TRIPOS>BOND
     1    1    2 1
     2    1   20 1
     3    1   21 1
     4    1   22 1
     5    2   10 1
     6    2    3 1
     7    3    8 ar
     8    3    4 ar
     9    4    5 ar
    10    4   23 1
    11    5    6 ar
    12    5   24 1
    13    6    7 ar
    14    6   25 1
    15    7    8 ar
    16    7   26 1
    17    8    9 1
    18    9   14 ar
    19    9   10 ar
    20   10   11 ar
    21   11   12 ar
    22   11   27 1
    23   12   13 ar
    24   12   28 1
    25   13   18 ar
    26   13   14 ar
    27   14   15 ar
    28   15   16 ar
    29   15   29 1
    30   16   17 ar
    31   16   30 1
    32   17   18 ar
    33   17   31 1
    34   18   19 1
    35   19   32 1
    36   19   33 1
    37   19   34 1
@<TRIPOS>MOLECULE
ZINC13491249
   37    38     0     0     0
SMALL
USER_CHARGES
N-[(2E)-2-(6-methoxyindan-1-ylidene)ethyl]propanamide
@<TRIPOS>ATOM
      1 C1          9.8308   -3.1084   -2.6082 C.3       1 <0>        -0.1387
      2 C2          8.7496   -2.0260   -2.5914 C.3       1 <0>        -0.1444
      3 C3          7.8292   -2.2535   -1.4200 C.2       1 <0>         0.5097
      4 O1          8.0193   -3.1893   -0.6722 O.2       1 <0>        -0.5392
      5 N1          6.7948   -1.4172   -1.2034 N.am      1 <0>        -0.7307
      6 C4          5.9000   -1.6384   -0.0647 C.3       1 <0>         0.1510
      7 C5          4.8350   -0.5722   -0.0481 C.2       1 <0>        -0.1606
      8 C6          3.5545   -0.9147   -0.0379 C.2       1 <0>        -0.0567
      9 C7          3.0125   -2.3236   -0.0406 C.3       1 <0>        -0.0946
     10 C8          1.4856   -2.1712   -0.0248 C.3       1 <0>        -0.0778
     11 C9          1.2045   -0.6876   -0.0136 C.ar      1 <0>        -0.1173
     12 C10         2.4054    0.0166   -0.0214 C.ar      1 <0>        -0.0351
     13 C11         2.3829    1.4159   -0.0132 C.ar      1 <0>        -0.1295
     14 C12         1.1748    2.0893    0.0021 C.ar      1 <0>         0.1249
     15 C13        -0.0167    1.3773    0.0096 C.ar      1 <0>        -0.1966
     16 C14         0.0021   -0.0041    0.0020 C.ar      1 <0>        -0.0699
     17 O2          1.1544    3.4482    0.0091 O.3       1 <0>        -0.3174
     18 C15        -0.1284    4.0777    0.0244 C.3       1 <0>         0.0268
     19 H1         10.4966   -2.9438   -3.4554 H         1 <0>         0.0622
     20 H2         10.4037   -3.0641   -1.6819 H         1 <0>         0.0618
     21 H3          9.3625   -4.0884   -2.6991 H         1 <0>         0.0617
     22 H4          8.1767   -2.0703   -3.5176 H         1 <0>         0.0934
     23 H5          9.2180   -1.0460   -2.5004 H         1 <0>         0.0936
     24 H6          6.6427   -0.6687   -1.8014 H         1 <0>         0.4025
     25 H7          6.4729   -1.5940    0.8616 H         1 <0>         0.0789
     26 H8          5.4316   -2.6184   -0.1556 H         1 <0>         0.0753
     27 H9          5.1151    0.4708   -0.0445 H         1 <0>         0.1242
     28 H10         3.3304   -2.8488   -0.9414 H         1 <0>         0.0868
     29 H11         3.3492   -2.8595    0.8468 H         1 <0>         0.0878
     30 H12         1.0725   -2.6369    0.8700 H         1 <0>         0.0824
     31 H13         1.0551   -2.6267   -0.9167 H         1 <0>         0.0818
     32 H14         3.3097    1.9704   -0.0191 H         1 <0>         0.1298
     33 H15        -0.9596    1.9038    0.0169 H         1 <0>         0.1322
     34 H16        -0.9277   -0.5535    0.0080 H         1 <0>         0.1271
     35 H17        -0.0019    5.1603    0.0287 H         1 <0>         0.1020
     36 H18        -0.6893    3.7810   -0.8619 H         1 <0>         0.0564
     37 H19        -0.6726    3.7719    0.9179 H         1 <0>         0.0565
@<TRIPOS>BOND
     1    1    2 1
     2    1   19 1
     3    1   20 1
     4    1   21 1
     5    2    3 1
     6    2   22 1
     7    2   23 1
     8    3    4 2
     9    3    5 am
    10    5    6 1
    11    5   24 1
    12    6    7 1
    13    6   25 1
    14    6   26 1
    15    7    8 2
    16    7   27 1
    17    8   12 1
    18    8    9 1
    19    9   10 1
    20    9   28 1
    21    9   29 1
    22   10   11 1
    23   10   30 1
    24   10   31 1
    25   11   16 ar
    26   11   12 ar
    27   12   13 ar
    28   13   14 ar
    29   13   32 1
    30   14   15 ar
    31   14   17 1
    32   15   16 ar
    33   15   33 1
    34   16   34 1
    35   17   18 1
    36   18   35 1
    37   18   36 1
    38   18   37 1
@<TRIPOS>MOLECULE
ZINC13491250
   37    38     0     0     0
SMALL
USER_CHARGES
N-[(2Z)-2-(6-methoxyindan-1-ylidene)ethyl]propanamide
@<TRIPOS>ATOM
      1 C1         -5.3960    0.4066    1.6875 C.3       1 <0>        -0.1387
      2 C2         -4.3998   -0.0674    2.7476 C.3       1 <0>        -0.1438
      3 C3         -3.2746    0.9286    2.8606 C.2       1 <0>         0.5086
      4 O1         -3.2699    1.9200    2.1620 O.2       1 <0>        -0.5373
      5 N1         -2.2735    0.7178    3.7380 N.am      1 <0>        -0.7302
      6 C4         -1.1796    1.6861    3.8478 C.3       1 <0>         0.1291
      7 C5         -0.1984    1.2192    4.8920 C.2       1 <0>        -0.1579
      8 C6          0.3019    2.0827    5.7645 C.2       1 <0>        -0.0637
      9 C7          1.1374    1.7389    6.9739 C.3       1 <0>        -0.0884
     10 C8          1.4592    3.0833    7.6403 C.3       1 <0>        -0.0775
     11 C9          0.7937    4.1468    6.7999 C.ar      1 <0>        -0.1193
     12 C10         0.1344    3.5519    5.7277 C.ar      1 <0>        -0.0373
     13 C11        -0.5557    4.3550    4.8127 C.ar      1 <0>        -0.1454
     14 C12        -0.5790    5.7283    4.9760 C.ar      1 <0>         0.1275
     15 C13         0.0821    6.3111    6.0483 C.ar      1 <0>        -0.1976
     16 C14         0.7635    5.5211    6.9539 C.ar      1 <0>        -0.0697
     17 O2         -1.2489    6.5072    4.0861 O.3       1 <0>        -0.3148
     18 C15        -1.2307    7.9174    4.3159 C.3       1 <0>         0.0266
     19 H1         -4.8897    0.4934    0.7262 H         1 <0>         0.0618
     20 H2         -6.2099   -0.3139    1.6058 H         1 <0>         0.0620
     21 H3         -5.7982    1.3779    1.9754 H         1 <0>         0.0618
     22 H4         -4.9061   -0.1542    3.7090 H         1 <0>         0.0932
     23 H5         -3.9977   -1.0388    2.4598 H         1 <0>         0.0933
     24 H6         -2.2773   -0.0752    4.2967 H         1 <0>         0.4012
     25 H7         -0.6733    1.7729    2.8865 H         1 <0>         0.0779
     26 H8         -1.5818    2.6574    4.1357 H         1 <0>         0.0939
     27 H9          0.0971    0.1811    4.9295 H         1 <0>         0.1290
     28 H10         0.5718    1.1034    7.6553 H         1 <0>         0.0877
     29 H11         2.0577    1.2412    6.6681 H         1 <0>         0.0856
     30 H12         2.5369    3.2448    7.6630 H         1 <0>         0.0817
     31 H13         1.0573    3.1014    8.6534 H         1 <0>         0.0814
     32 H14        -1.0699    3.9021    3.9779 H         1 <0>         0.1461
     33 H15         0.0634    7.3835    6.1752 H         1 <0>         0.1321
     34 H16         1.2760    5.9793    7.7868 H         1 <0>         0.1267
     35 H17        -1.8012    8.4202    3.5350 H         1 <0>         0.1022
     36 H18        -1.6760    8.1331    5.2872 H         1 <0>         0.0560
     37 H19        -0.2011    8.2748    4.3009 H         1 <0>         0.0563
@<TRIPOS>BOND
     1    1    2 1
     2    1   19 1
     3    1   20 1
     4    1   21 1
     5    2    3 1
     6    2   22 1
     7    2   23 1
     8    3    4 2
     9    3    5 am
    10    5    6 1
    11    5   24 1
    12    6    7 1
    13    6   25 1
    14    6   26 1
    15    7    8 2
    16    7   27 1
    17    8   12 1
    18    8    9 1
    19    9   10 1
    20    9   28 1
    21    9   29 1
    22   10   11 1
    23   10   30 1
    24   10   31 1
    25   11   16 ar
    26   11   12 ar
    27   12   13 ar
    28   13   14 ar
    29   13   32 1
    30   14   15 ar
    31   14   17 1
    32   15   16 ar
    33   15   33 1
    34   16   34 1
    35   17   18 1
    36   18   35 1
    37   18   36 1
    38   18   37 1
@<TRIPOS>MOLECULE
ZINC00006787
   29    30     0     0     0
SMALL
USER_CHARGES

@<TRIPOS>ATOM
      1 C1         -0.0169    1.3936    0.0097 C.ar      1 <0>        -0.0880
      2 C2          1.1682    2.0965    0.0022 C.ar      1 <0>        -0.1444
      3 C3          2.3804    1.4185   -0.0131 C.ar      1 <0>         0.1088
      4 C4          2.4043    0.0297   -0.0212 C.ar      1 <0>        -0.1437
      5 C5          1.2244   -0.6820   -0.0142 C.ar      1 <0>        -0.0943
      6 C6          0.0021   -0.0041    0.0020 C.ar      1 <0>        -0.0701
      7 C7         -1.2624   -0.7604    0.0105 C.2       1 <0>        -0.0946
      8 C8         -1.2417   -2.1029    0.0031 C.2       1 <0>        -0.1125
      9 C9         -2.5067   -2.8595    0.0116 C.ar      1 <0>        -0.0208
     10 C10        -3.7282   -2.1821    0.0216 C.ar      1 <0>        -0.1505
     11 C11        -4.9138   -2.8974    0.0296 C.ar      1 <0>         0.1270
     12 C12        -4.8898   -4.2848    0.0277 C.ar      1 <0>        -0.1731
     13 C13        -3.6788   -4.9623    0.0183 C.ar      1 <0>         0.1263
     14 C14        -2.4878   -4.2561    0.0039 C.ar      1 <0>        -0.1438
     15 O1         -3.6617   -6.3213    0.0174 O.3       1 <0>        -0.4960
     16 O2         -6.1029   -2.2395    0.0398 O.3       1 <0>        -0.4960
     17 O3          3.5463    2.1158   -0.0204 O.3       1 <0>        -0.4996
     18 H1         -0.9588    1.9217    0.0260 H         1 <0>         0.1307
     19 H2          1.1546    3.1764    0.0077 H         1 <0>         0.1317
     20 H3          3.3492   -0.4932   -0.0334 H         1 <0>         0.1314
     21 H4          1.2440   -1.7618   -0.0209 H         1 <0>         0.1307
     22 H5         -2.2059   -0.2349    0.0227 H         1 <0>         0.1259
     23 H6         -0.2983   -2.6284   -0.0091 H         1 <0>         0.1276
     24 H7         -3.7479   -1.1023    0.0234 H         1 <0>         0.1351
     25 H8         -5.8166   -4.8392    0.0340 H         1 <0>         0.1362
     26 H9         -1.5459   -4.7843   -0.0083 H         1 <0>         0.1350
     27 H10        -3.6634   -6.7141   -0.8663 H         1 <0>         0.3942
     28 H11        -6.4539   -2.0477   -0.8406 H         1 <0>         0.3942
     29 H12         3.8923    2.3129    0.8608 H         1 <0>         0.3928
@<TRIPOS>BOND
     1    1    6 ar
     2    1    2 ar
     3    1   18 1
     4    2    3 ar
     5    2   19 1
     6    3    4 ar
     7    3   17 1
     8    4    5 ar
     9    4   20 1
    10    5    6 ar
    11    5   21 1
    12    6    7 1
    13    7    8 2
    14    7   22 1
    15    8    9 1
    16    8   23 1
    17    9   14 ar
    18    9   10 ar
    19   10   11 ar
    20   10   24 1
    21   11   12 ar
    22   11   16 1
    23   12   13 ar
    24   12   25 1
    25   13   14 ar
    26   13   15 1
    27   14   26 1
    28   15   27 1
    29   16   28 1
    30   17   29 1
@<TRIPOS>MOLECULE
ZINC02516056
   33    34     0     0     0
SMALL
USER_CHARGES

@<TRIPOS>ATOM
      1 C1         -0.0184    1.5028    0.0103 C.3       1 <0>        -0.1751
      2 C2          0.0021   -0.0041    0.0020 C.2       1 <0>         0.5091
      3 O1          1.0605   -0.5961   -0.0113 O.2       1 <0>        -0.5443
      4 N1         -1.1558   -0.6938    0.0094 N.am      1 <0>        -0.7329
      5 C3         -1.1360   -2.1586    0.0013 C.3       1 <0>         0.1234
      6 C4         -2.5713   -2.6882    0.0122 C.3       1 <0>        -0.0646
      7 C5         -2.5509   -4.1950    0.0039 C.2       1 <0>        -0.1197
      8 C6         -2.5444   -5.0596   -1.1786 C.ar      1 <0>        -0.0618
      9 C7         -2.5538   -4.8197   -2.5546 C.ar      1 <0>        -0.1044
     10 C8         -2.5433   -5.8848   -3.4326 C.ar      1 <0>         0.1043
     11 C9         -2.5235   -7.1914   -2.9510 C.ar      1 <0>        -0.1675
     12 C10        -2.5140   -7.4395   -1.5966 C.ar      1 <0>        -0.0883
     13 C11        -2.5244   -6.3801   -0.6955 C.ar      1 <0>         0.0816
     14 N2         -2.5192   -6.3087    0.6820 N.pl3     1 <0>        -0.5767
     15 H1         -2.5058   -7.0726    1.2797 H         1 <0>         0.4199
     16 C12        -2.5293   -4.9995    1.0794 C.2       1 <0>         0.0694
     17 I1         -2.5174   -4.3465    3.0700 I         1 <0>         0.0309
     18 O2         -2.5529   -5.6574   -4.7733 O.3       1 <0>        -0.3172
     19 C13        -2.5411   -6.8041   -5.6260 C.3       1 <0>         0.0272
     20 H2          1.0042    1.8801    0.0026 H         1 <0>         0.0924
     21 H3         -0.5455    1.8639   -0.8728 H         1 <0>         0.0884
     22 H4         -0.5286    1.8543    0.9071 H         1 <0>         0.0883
     23 H5         -2.0023   -0.2203    0.0200 H         1 <0>         0.4017
     24 H6         -0.6258   -2.5101   -0.8955 H         1 <0>         0.0709
     25 H7         -0.6088   -2.5197    0.8844 H         1 <0>         0.0688
     26 H8         -3.0815   -2.3367    0.9090 H         1 <0>         0.0819
     27 H9         -3.0985   -2.3271   -0.8709 H         1 <0>         0.0867
     28 H10        -2.5696   -3.8069   -2.9293 H         1 <0>         0.1334
     29 H11        -2.5158   -8.0177   -3.6463 H         1 <0>         0.1355
     30 H12        -2.4990   -8.4567   -1.2341 H         1 <0>         0.1280
     31 H13        -2.5505   -6.4825   -6.6674 H         1 <0>         0.1006
     32 H14        -1.6420   -7.3899   -5.4347 H         1 <0>         0.0551
     33 H15        -3.4218   -7.4144   -5.4262 H         1 <0>         0.0550
@<TRIPOS>BOND
     1    1    2 1
     2    1   20 1
     3    1   21 1
     4    1   22 1
     5    2    3 2
     6    2    4 am
     7    4    5 1
     8    4   23 1
     9    5    6 1
    10    5   24 1
    11    5   25 1
    12    6    7 1
    13    6   26 1
    14    6   27 1
    15    7   16 2
    16    7    8 1
    17    8   13 ar
    18    8    9 ar
    19    9   10 ar
    20    9   28 1
    21   10   11 ar
    22   10   18 1
    23   11   12 ar
    24   11   29 1
    25   12   13 ar
    26   12   30 1
    27   13   14 1
    28   14   15 1
    29   14   16 1
    30   16   17 1
    31   18   19 1
    32   19   31 1
    33   19   32 1
    34   19   33 1
@<TRIPOS>MOLECULE
ZINC01514066
   35    36     0     0     0
SMALL
USER_CHARGES
N-[2-(5-methoxy-6-nitro-1H-indol-3-yl)ethyl]acetamide
@<TRIPOS>ATOM
      1 C1         -0.9970    1.7576   -3.6299 C.3       1 <0>        -0.1757
      2 C2         -0.2681    1.2584   -2.4090 C.2       1 <0>         0.5088
      3 O1          0.7262    0.5752   -2.5335 O.2       1 <0>        -0.5440
      4 N1         -0.7213    1.5711   -1.1789 N.am      1 <0>        -0.7356
      5 C3         -0.0127    1.0858    0.0080 C.3       1 <0>         0.1205
      6 C4         -0.7288    1.5792    1.2668 C.3       1 <0>        -0.0530
      7 C5          0.0000    1.0800    2.4877 C.2       1 <0>        -0.1880
      8 C6         -0.2891   -0.0243    3.1941 C.2       1 <0>         0.1049
      9 N2          0.5907   -0.1572    4.2332 N.pl3     1 <0>        -0.5849
     10 H1          0.5835   -0.8793    4.8808 H         1 <0>         0.4257
     11 C7          1.4860    0.8917    4.2259 C.ar      1 <0>         0.0591
     12 C8          1.1542    1.7114    3.1321 C.ar      1 <0>        -0.0141
     13 C9          1.8987    2.8638    2.8724 C.ar      1 <0>        -0.1728
     14 C10         2.9587    3.1908    3.6945 C.ar      1 <0>         0.1656
     15 C11         3.2844    2.3776    4.7766 C.ar      1 <0>        -0.0560
     16 C12         2.5570    1.2386    5.0422 C.ar      1 <0>        -0.0171
     17 N3          4.4228    2.7407    5.6503 N.pl3     1 <0>         0.0369
     18 O2          4.7126    2.0334    6.5985 O.2       1 <0>        -0.1827
     19 O3          5.0697    3.7469    5.4209 O.3       1 <0>        -0.1298
     20 O4          3.6874    4.3119    3.4465 O.3       1 <0>        -0.2839
     21 C13         3.2995    5.1019    2.3206 C.3       1 <0>         0.0204
     22 H2         -1.0118    2.8475   -3.6239 H         1 <0>         0.0886
     23 H3         -0.4868    1.4061   -4.5267 H         1 <0>         0.0931
     24 H4         -2.0196    1.3803   -3.6222 H         1 <0>         0.0888
     25 H5         -1.5165    2.1175   -1.0793 H         1 <0>         0.4019
     26 H6          0.0021   -0.0041    0.0020 H         1 <0>         0.0689
     27 H7          1.0099    1.4631    0.0003 H         1 <0>         0.0676
     28 H8         -0.7436    2.6691    1.2728 H         1 <0>         0.0793
     29 H9         -1.7514    1.2020    1.2746 H         1 <0>         0.0823
     30 H10        -1.0954   -0.7080    2.9732 H         1 <0>         0.1833
     31 H11         1.6470    3.4955    2.0333 H         1 <0>         0.1504
     32 H12         2.8184    0.6150    5.8843 H         1 <0>         0.1596
     33 H13         2.2728    5.4431    2.4526 H         1 <0>         0.0603
     34 H14         3.9610    5.9641    2.2366 H         1 <0>         0.1112
     35 H15         3.3689    4.5009    1.4139 H         1 <0>         0.0607
@<TRIPOS>BOND
     1    1    2 1
     2    1   22 1
     3    1   23 1
     4    1   24 1
     5    2    3 2
     6    2    4 am
     7    4    5 1
     8    4   25 1
     9    5    6 1
    10    5   26 1
    11    5   27 1
    12    6    7 1
    13    6   28 1
    14    6   29 1
    15    7   12 1
    16    7    8 2
    17    8    9 1
    18    8   30 1
    19    9   10 1
    20    9   11 1
    21   11   16 ar
    22   11   12 ar
    23   12   13 ar
    24   13   14 ar
    25   13   31 1
    26   14   15 ar
    27   14   20 1
    28   15   16 ar
    29   15   17 1
    30   16   32 1
    31   17   18 2
    32   17   19 1
    33   20   21 1
    34   21   33 1
    35   21   34 1
    36   21   35 1
@<TRIPOS>MOLECULE
ZINC13473194
   36    37     0     0     0
SMALL
USER_CHARGES
N-[2-(2-iodo-5-methoxy-1-methyl-indol-3-yl)ethyl]acetamide
@<TRIPOS>ATOM
      1 C1          0.1619    0.9601   -4.8946 C.3       1 <0>        -0.1716
      2 C2         -0.5435    1.4461   -3.6547 C.2       1 <0>         0.5092
      3 O1         -1.5399    2.1304   -3.7528 O.2       1 <0>        -0.5458
      4 N1         -0.0670    1.1202   -2.4368 N.am      1 <0>        -0.7314
      5 C3         -0.7527    1.5927   -1.2315 C.3       1 <0>         0.1232
      6 C4         -0.0127    1.0858    0.0080 C.3       1 <0>        -0.0630
      7 C5         -0.7181    1.5718    1.2479 C.2       1 <0>        -0.1230
      8 C6         -1.7926    0.8820    1.9657 C.ar      1 <0>        -0.0617
      9 C7         -2.4636   -0.3282    1.7758 C.ar      1 <0>        -0.1037
     10 C8         -3.4579   -0.7024    2.6573 C.ar      1 <0>         0.1032
     11 C9         -3.7911    0.1208    3.7300 C.ar      1 <0>        -0.1680
     12 C10        -3.1363    1.3160    3.9268 C.ar      1 <0>        -0.0874
     13 C11        -2.1315    1.7110    3.0499 C.ar      1 <0>         0.0824
     14 N2         -1.3147    2.8205    2.9838 N.pl3     1 <0>        -0.4685
     15 C12        -0.4765    2.7168    1.9074 C.2       1 <0>         0.0695
     16 I1          0.9665    4.1356    1.3655 I         1 <0>         0.0290
     17 C13        -1.3370    3.9399    3.9287 C.3       1 <0>         0.0701
     18 O2         -4.1149   -1.8793    2.4772 O.3       1 <0>        -0.3173
     19 C14        -5.1327   -2.2059    3.4257 C.3       1 <0>         0.0275
     20 H1          1.0292    0.3646   -4.6094 H         1 <0>         0.0758
     21 H2         -0.5206    0.3484   -5.4847 H         1 <0>         0.0950
     22 H3          0.4872    1.8156   -5.4865 H         1 <0>         0.0949
     23 H4          0.7300    0.5728   -2.3584 H         1 <0>         0.4014
     24 H5         -1.7753    1.2154   -1.2238 H         1 <0>         0.0708
     25 H6         -0.7675    2.6825   -1.2255 H         1 <0>         0.0685
     26 H7          0.0021   -0.0041    0.0020 H         1 <0>         0.0861
     27 H8          1.0099    1.4631    0.0003 H         1 <0>         0.0812
     28 H9         -2.2058   -0.9676    0.9445 H         1 <0>         0.1331
     29 H10        -4.5708   -0.1808    4.4138 H         1 <0>         0.1349
     30 H11        -3.4025    1.9465    4.7622 H         1 <0>         0.1261
     31 H12        -0.6452    3.7388    4.7466 H         1 <0>         0.0760
     32 H13        -1.0378    4.8541    3.4161 H         1 <0>         0.0849
     33 H14        -2.3448    4.0596    4.3264 H         1 <0>         0.0885
     34 H15        -4.6953   -2.2642    4.4224 H         1 <0>         0.0547
     35 H16        -5.9033   -1.4351    3.4116 H         1 <0>         0.0548
     36 H17        -5.5758   -3.1675    3.1666 H         1 <0>         0.1004
@<TRIPOS>BOND
     1    1    2 1
     2    1   20 1
     3    1   21 1
     4    1   22 1
     5    2    3 2
     6    2    4 am
     7    4    5 1
     8    4   23 1
     9    5    6 1
    10    5   24 1
    11    5   25 1
    12    6    7 1
    13    6   26 1
    14    6   27 1
    15    7   15 2
    16    7    8 1
    17    8   13 ar
    18    8    9 ar
    19    9   10 ar
    20    9   28 1
    21   10   11 ar
    22   10   18 1
    23   11   12 ar
    24   11   29 1
    25   12   13 ar
    26   12   30 1
    27   13   14 1
    28   14   15 1
    29   14   17 1
    30   15   16 1
    31   17   31 1
    32   17   32 1
    33   17   33 1
    34   18   19 1
    35   19   34 1
    36   19   35 1
    37   19   36 1
@<TRIPOS>MOLECULE
ZINC13473198
   38    39     0     0     0
SMALL
USER_CHARGES
N-[2-(2-iodo-5-methoxy-1-methyl-4-nitro-indol-3-yl)ethyl]acetamide
@<TRIPOS>ATOM
      1 C1         -0.9970    1.7576   -3.6299 C.3       1 <0>        -0.1707
      2 C2         -0.2681    1.2584   -2.4090 C.2       1 <0>         0.5121
      3 O1          0.7262    0.5752   -2.5335 O.2       1 <0>        -0.5452
      4 N1         -0.7213    1.5711   -1.1789 N.am      1 <0>        -0.7289
      5 C3         -0.0127    1.0858    0.0080 C.3       1 <0>         0.1236
      6 C4         -0.7288    1.5792    1.2668 C.3       1 <0>        -0.0734
      7 C5          0.0000    1.0800    2.4877 C.2       1 <0>        -0.1254
      8 C6          1.0882    1.7622    3.1923 C.ar      1 <0>        -0.0364
      9 C7          1.4480    0.9211    4.2607 C.ar      1 <0>         0.0902
     10 C8          2.4694    1.3063    5.1220 C.ar      1 <0>        -0.0401
     11 C9          3.1208    2.5039    4.9256 C.ar      1 <0>        -0.1705
     12 C10         2.7670    3.3386    3.8691 C.ar      1 <0>         0.1671
     13 C11         1.7552    2.9743    3.0030 C.ar      1 <0>        -0.0227
     14 N2          1.3806    3.8628    1.8797 N.pl3     1 <0>         0.0315
     15 O2          0.5220    4.7125    2.0355 O.2       1 <0>        -0.1411
     16 O3          1.9311    3.7441    0.7997 O.3       1 <0>        -0.1313
     17 O4          3.4204    4.5176    3.6895 O.3       1 <0>        -0.3107
     18 C12         4.4565    4.8337    4.6215 C.3       1 <0>         0.0247
     19 N3          0.6300   -0.1878    4.1980 N.pl3     1 <0>        -0.4576
     20 C13        -0.2290   -0.0720    3.1393 C.2       1 <0>         0.0843
     21 I1         -1.6824   -1.4849    2.6097 I         1 <0>         0.0526
     22 C14         0.6704   -1.3176    5.1297 C.3       1 <0>         0.0661
     23 H1         -1.8587    2.3499   -3.3218 H         1 <0>         0.0760
     24 H2         -0.3259    2.3756   -4.2264 H         1 <0>         0.0964
     25 H3         -1.3337    0.9085   -4.2246 H         1 <0>         0.0943
     26 H4         -1.5165    2.1175   -1.0793 H         1 <0>         0.4018
     27 H5          0.0021   -0.0041    0.0020 H         1 <0>         0.0694
     28 H6          1.0099    1.4631    0.0003 H         1 <0>         0.0750
     29 H7         -0.7436    2.6691    1.2728 H         1 <0>         0.0831
     30 H8         -1.7514    1.2020    1.2746 H         1 <0>         0.0903
     31 H9          2.7517    0.6666    5.9451 H         1 <0>         0.1466
     32 H10         3.9137    2.7980    5.5974 H         1 <0>         0.1587
     33 H11         4.0386    4.8807    5.6271 H         1 <0>         0.0646
     34 H12         5.2267    4.0634    4.5837 H         1 <0>         0.0648
     35 H13         4.8944    5.7983    4.3646 H         1 <0>         0.1113
     36 H14        -0.0056   -1.1258    5.9629 H         1 <0>         0.0838
     37 H15         0.3614   -2.2261    4.6128 H         1 <0>         0.0912
     38 H16         1.6856   -1.4415    5.5067 H         1 <0>         0.0945
@<TRIPOS>BOND
     1    1    2 1
     2    1   23 1
     3    1   24 1
     4    1   25 1
     5    2    3 2
     6    2    4 am
     7    4    5 1
     8    4   26 1
     9    5    6 1
    10    5   27 1
    11    5   28 1
    12    6    7 1
    13    6   29 1
    14    6   30 1
    15    7   20 2
    16    7    8 1
    17    8   13 ar
    18    8    9 ar
    19    9   10 ar
    20    9   19 1
    21   10   11 ar
    22   10   31 1
    23   11   12 ar
    24   11   32 1
    25   12   13 ar
    26   12   17 1
    27   13   14 1
    28   14   15 2
    29   14   16 1
    30   17   18 1
    31   18   33 1
    32   18   34 1
    33   18   35 1
    34   19   20 1
    35   19   22 1
    36   20   21 1
    37   22   36 1
    38   22   37 1
    39   22   38 1
@<TRIPOS>MOLECULE
ZINC00021169
   39    40     0     0     0
SMALL
USER_CHARGES
N-[2-(6-methoxyindan-1-yl)ethyl]propanamide
@<TRIPOS>ATOM
      1 C1         -1.3394  -10.5514    3.4115 C.3       1 <0>        -0.1386
      2 C2         -0.9229   -9.0802    3.3542 C.3       1 <0>        -0.1450
      3 C3         -1.7308   -8.3702    2.2987 C.2       1 <0>         0.5091
      4 O1         -2.5583   -8.9807    1.6556 O.2       1 <0>        -0.5392
      5 N1         -1.5339   -7.0568    2.0694 N.am      1 <0>        -0.7351
      6 C4         -2.3193   -6.3665    1.0433 C.3       1 <0>         0.1173
      7 C5         -1.9028   -4.8954    0.9860 C.3       1 <0>        -0.1232
      8 C6         -2.6297   -4.2042   -0.1693 C.3       1 <0>        -0.0437
      9 H1         -2.4248   -4.7205   -1.1072 H         1 <0>         0.0935
     10 C7         -4.1490   -4.1660    0.1001 C.3       1 <0>        -0.1182
     11 C8         -4.5625   -2.8162   -0.5237 C.3       1 <0>        -0.0790
     12 C9         -3.3184   -1.9555   -0.4665 C.ar      1 <0>        -0.1316
     13 C10        -2.2074   -2.7535   -0.2628 C.ar      1 <0>        -0.0534
     14 C11        -0.9510   -2.1794   -0.1824 C.ar      1 <0>        -0.1377
     15 C12        -0.8043   -0.8054   -0.2949 C.ar      1 <0>         0.1268
     16 C13        -1.9201   -0.0071   -0.4992 C.ar      1 <0>        -0.2059
     17 C14        -3.1716   -0.5833   -0.5842 C.ar      1 <0>        -0.0675
     18 O2          0.4299   -0.2427   -0.2110 O.3       1 <0>        -0.3178
     19 C15         0.5054    1.1782   -0.3421 C.3       1 <0>         0.0273
     20 H2         -2.3990  -10.6197    3.6578 H         1 <0>         0.0616
     21 H3         -1.1608  -11.0175    2.4425 H         1 <0>         0.0616
     22 H4         -0.7550  -11.0649    4.1750 H         1 <0>         0.0620
     23 H5          0.1367   -9.0119    3.1079 H         1 <0>         0.0931
     24 H6         -1.1015   -8.6141    4.3232 H         1 <0>         0.0930
     25 H7         -0.8722   -6.5685    2.5838 H         1 <0>         0.4011
     26 H8         -3.3789   -6.4348    1.2896 H         1 <0>         0.0701
     27 H9         -2.1407   -6.8326    0.0743 H         1 <0>         0.0681
     28 H10        -0.8262   -4.8284    0.8298 H         1 <0>         0.0731
     29 H11        -2.1650   -4.4068    1.9244 H         1 <0>         0.0737
     30 H12        -4.3529   -4.1766    1.1708 H         1 <0>         0.0758
     31 H13        -4.6520   -4.9940   -0.3994 H         1 <0>         0.0806
     32 H14        -5.3644   -2.3609    0.0574 H         1 <0>         0.0745
     33 H15        -4.8781   -2.9566   -1.5575 H         1 <0>         0.0795
     34 H16        -0.0828   -2.8029   -0.0277 H         1 <0>         0.1278
     35 H17        -1.8098    1.0633   -0.5919 H         1 <0>         0.1297
     36 H18        -4.0401    0.0386   -0.7436 H         1 <0>         0.1235
     37 H19         1.5444    1.4963   -0.2562 H         1 <0>         0.1013
     38 H20         0.1140    1.4747   -1.3152 H         1 <0>         0.0560
     39 H21        -0.0845    1.6476    0.4452 H         1 <0>         0.0559
@<TRIPOS>BOND
     1    1    2 1
     2    1   20 1
     3    1   21 1
     4    1   22 1
     5    2    3 1
     6    2   23 1
     7    2   24 1
     8    3    4 2
     9    3    5 am
    10    5    6 1
    11    5   25 1
    12    6    7 1
    13    6   26 1
    14    6   27 1
    15    7    8 1
    16    7   28 1
    17    7   29 1
    18    8    9 1
    19    8   13 1
    20    8   10 1
    21   10   11 1
    22   10   30 1
    23   10   31 1
    24   11   12 1
    25   11   32 1
    26   11   33 1
    27   12   17 ar
    28   12   13 ar
    29   13   14 ar
    30   14   15 ar
    31   14   34 1
    32   15   16 ar
    33   15   18 1
    34   16   17 ar
    35   16   35 1
    36   17   36 1
    37   18   19 1
    38   19   37 1
    39   19   38 1
    40   19   39 1
@<TRIPOS>MOLECULE
ZINC03825731
   39    40     0     0     0
SMALL
USER_CHARGES
N-[2-(6-methoxyindan-1-yl)ethyl]propanamide
@<TRIPOS>ATOM
      1 C1          1.5612   -2.8950    4.0659 C.3       1 <0>        -0.1386
      2 C2          0.9434   -2.6893    2.6814 C.3       1 <0>        -0.1450
      3 C3         -0.3707   -3.4228    2.6036 C.2       1 <0>         0.5091
      4 O1         -0.7735   -4.0486    3.5613 O.2       1 <0>        -0.5392
      5 N1         -1.0984   -3.3835    1.4699 N.am      1 <0>        -0.7351
      6 C4         -2.3759   -4.0966    1.3943 C.3       1 <0>         0.1173
      7 C5         -2.9937   -3.8909    0.0097 C.3       1 <0>        -0.1233
      8 C6         -4.3844   -4.5276   -0.0279 C.3       1 <0>        -0.0436
      9 H1         -5.0110   -4.1130    0.7617 H         1 <0>         0.0934
     10 C7         -4.2761   -6.0598    0.1232 C.3       1 <0>        -0.1182
     11 C8         -5.4264   -6.5635   -0.7741 C.3       1 <0>        -0.0787
     12 C9         -5.6256   -5.4777   -1.8100 C.ar      1 <0>        -0.1317
     13 C10        -5.0275   -4.3051   -1.3801 C.ar      1 <0>        -0.0536
     14 C11        -5.0822   -3.1735   -2.1721 C.ar      1 <0>        -0.1375
     15 C12        -5.7370   -3.2077   -3.3936 C.ar      1 <0>         0.1269
     16 C13        -6.3371   -4.3826   -3.8218 C.ar      1 <0>        -0.2061
     17 C14        -6.2798   -5.5122   -3.0303 C.ar      1 <0>        -0.0676
     18 O2         -5.7904   -2.0932   -4.1695 O.3       1 <0>        -0.3178
     19 C15        -6.4816   -2.2027   -5.4155 C.3       1 <0>         0.0273
     20 H2          2.5117   -2.3644    4.1221 H         1 <0>         0.0620
     21 H3          0.8837   -2.5084    4.8272 H         1 <0>         0.0616
     22 H4          1.7284   -3.9588    4.2347 H         1 <0>         0.0616
     23 H5          0.7762   -1.6255    2.5125 H         1 <0>         0.0931
     24 H6          1.6209   -3.0759    1.9201 H         1 <0>         0.0930
     25 H7         -0.7762   -2.8831    0.7039 H         1 <0>         0.4011
     26 H8         -2.2087   -5.1604    1.5631 H         1 <0>         0.0700
     27 H9         -3.0534   -3.7100    2.1556 H         1 <0>         0.0681
     28 H10        -3.0770   -2.8237   -0.1960 H         1 <0>         0.0731
     29 H11        -2.3597   -4.3578   -0.7440 H         1 <0>         0.0738
     30 H12        -3.3139   -6.4182   -0.2427 H         1 <0>         0.0755
     31 H13        -4.4301   -6.3587    1.1601 H         1 <0>         0.0806
     32 H14        -5.1473   -7.5001   -1.2567 H         1 <0>         0.0747
     33 H15        -6.3345   -6.6962   -0.1859 H         1 <0>         0.0795
     34 H16        -4.6147   -2.2594   -1.8370 H         1 <0>         0.1277
     35 H17        -6.8480   -4.4138   -4.7728 H         1 <0>         0.1297
     36 H18        -6.7468   -6.4270   -3.3642 H         1 <0>         0.1235
     37 H19        -6.4494   -1.2446   -5.9342 H         1 <0>         0.1013
     38 H20        -6.0034   -2.9651   -6.0304 H         1 <0>         0.0559
     39 H21        -7.5191   -2.4819   -5.2321 H         1 <0>         0.0560
@<TRIPOS>BOND
     1    1    2 1
     2    1   20 1
     3    1   21 1
     4    1   22 1
     5    2    3 1
     6    2   23 1
     7    2   24 1
     8    3    4 2
     9    3    5 am
    10    5    6 1
    11    5   25 1
    12    6    7 1
    13    6   26 1
    14    6   27 1
    15    7    8 1
    16    7   28 1
    17    7   29 1
    18    8    9 1
    19    8   13 1
    20    8   10 1
    21   10   11 1
    22   10   30 1
    23   10   31 1
    24   11   12 1
    25   11   32 1
    26   11   33 1
    27   12   17 ar
    28   12   13 ar
    29   13   14 ar
    30   14   15 ar
    31   14   34 1
    32   15   16 ar
    33   15   18 1
    34   16   17 ar
    35   16   35 1
    36   17   36 1
    37   18   19 1
    38   19   37 1
    39   19   38 1
    40   19   39 1
@<TRIPOS>MOLECULE
ZINC27211934
   50    53     0     0     0
SMALL
USER_CHARGES
(2-diethylaminoethylamino)-hydroxy-BLAHone
@<TRIPOS>ATOM
      1 C1          0.8539   -0.5991   -3.8409 C.3       1 <0>        -0.1929
      2 C2         -0.1374   -0.2109   -2.7420 C.3       1 <0>        -0.0137
      3 N1          0.0029    1.2197   -2.4391 N.4       1 <0>        -0.3982
      4 C3         -0.4056    2.0430   -3.5851 C.3       1 <0>        -0.0155
      5 C4          0.1901    3.4452   -3.4438 C.3       1 <0>        -0.1907
      6 C5         -0.7572    1.5798   -1.2347 C.3       1 <0>        -0.0233
      7 C6         -0.0079    1.0907    0.0064 C.3       1 <0>         0.0845
      8 N2         -0.7013    1.5556    1.2103 N.pl3     1 <0>        -0.7128
      9 C7         -0.2045    1.2336    2.4650 C.2       1 <0>         0.3515
     10 C8          0.9533    0.4616    2.5983 C.2       1 <0>        -0.2289
     11 C9          1.4792    0.1285    3.8296 C.2       1 <0>         0.1060
     12 C10         0.8432    0.5552    5.0003 C.2       1 <0>         0.0063
     13 C11        -0.3102    1.3160    4.8531 C.2       1 <0>         0.0942
     14 C12        -0.8550    1.6698    3.6258 C.2       1 <0>        -0.2030
     15 C13        -2.0806    2.4798    3.6476 C.2       1 <0>         0.4370
     16 O1         -2.6304    2.8403    2.6224 O.3       1 <0>        -0.3905
     17 C14        -2.6122    2.8341    4.9863 C.ar      1 <0>        -0.1676
     18 C15        -3.7759    3.6011    5.0847 C.ar      1 <0>        -0.1226
     19 C16        -4.2765    3.9352    6.3279 C.ar      1 <0>         0.1813
     20 C17        -3.6247    3.5104    7.4814 C.ar      1 <0>        -0.1070
     21 C18        -2.4768    2.7531    7.3964 C.ar      1 <0>        -0.0934
     22 C19        -1.9568    2.4069    6.1542 C.ar      1 <0>         0.1837
     23 N3         -0.7977    1.6437    6.0766 N.pl3     1 <0>        -0.4041
     24 C20         0.0655    1.0797    6.9721 C.2       1 <0>         0.2678
     25 N4          1.0228    0.4446    6.3407 N.2       1 <0>        -0.4184
     26 O2         -5.4088    4.6815    6.4248 O.3       1 <0>        -0.4944
     27 H1          0.7489   -1.6703   -4.0677 H         1 <0>         0.1118
     28 H2          1.8792   -0.3956   -3.4983 H         1 <0>         0.0839
     29 H3          0.6463   -0.0104   -4.7466 H         1 <0>         0.0838
     30 H4         -1.1627   -0.4144   -3.0846 H         1 <0>         0.1312
     31 H5          0.0702   -0.7996   -1.8363 H         1 <0>         0.1303
     32 H6         -0.0423    1.5823   -4.5156 H         1 <0>         0.1408
     33 H7         -1.5030    2.1121   -3.6143 H         1 <0>         0.1301
     34 H8         -0.1158    4.0617   -4.3019 H         1 <0>         0.1123
     35 H9          1.2875    3.3761   -3.4146 H         1 <0>         0.0845
     36 H10        -0.1732    3.9058   -2.5133 H         1 <0>         0.0755
     37 H11        -0.8720    2.6727   -1.1867 H         1 <0>         0.1400
     38 H12        -1.7502    1.1082   -1.2731 H         1 <0>         0.1392
     39 H13         0.0263   -0.0088    0.0045 H         1 <0>         0.1021
     40 H14         1.0172    1.4894   -0.0033 H         1 <0>         0.1011
     41 H15        -1.6159    2.1600    1.1194 H         1 <0>         0.4415
     42 H16         1.4565    0.1184    1.7065 H         1 <0>         0.1548
     43 H17         2.3789   -0.4660    3.8897 H         1 <0>         0.1681
     44 H18        -4.2832    3.9318    4.1905 H         1 <0>         0.1512
     45 H19        -4.0215    3.7757    8.4502 H         1 <0>         0.1669
     46 H20        -1.9789    2.4277    8.2978 H         1 <0>         0.1633
     47 H21        -0.0273    1.1473    8.0459 H         1 <0>         0.2393
     48 H22        -5.8086    4.9483    7.4142 H         1 <0>         0.4647
     49 H23        -3.5470    3.4462    2.6737 H         1 <0>         0.5058
     50 H24         1.0660    1.4205   -2.2405 H         1 <0>         0.4427
@<TRIPOS>BOND
     1    1    2 1
     2    1   27 1
     3    1   28 1
     4    1   29 1
     5    2    3 1
     6    2   30 1
     7    2   31 1
     8    3    4 1
     9    3    6 1
    10    3   50 1
    11    4    5 1
    12    4   32 1
    13    4   33 1
    14    5   34 1
    15    5   35 1
    16    5   36 1
    17    6    7 1
    18    6   37 1
    19    6   38 1
    20    7    8 1
    21    7   39 1
    22    7   40 1
    23    8    9 2
    24    8   41 1
    25    9   14 1
    26    9   10 1
    27   10   11 2
    28   10   42 1
    29   11   12 1
    30   11   43 1
    31   12   25 1
    32   12   13 2
    33   13   23 1
    34   13   14 1
    35   14   15 2
    36   15   16 1
    37   15   17 1
    38   16   49 1
    39   17   22 ar
    40   17   18 ar
    41   18   19 ar
    42   18   44 1
    43   19   20 ar
    44   19   26 1
    45   20   21 ar
    46   20   45 1
    47   21   22 ar
    48   21   46 1
    49   22   23 1
    50   23   24 1
    51   24   25 2
    52   24   47 1
    53   26   48 1
@<TRIPOS>MOLECULE
ZINC27211934
   51    54     0     0     0
SMALL
USER_CHARGES
(2-diethylaminoethylamino)-hydroxy-BLAHone
@<TRIPOS>ATOM
      1 C1          0.8539   -0.5991   -3.8409 C.3       1 <0>        -0.1948
      2 C2         -0.1374   -0.2109   -2.7420 C.3       1 <0>        -0.0136
      3 N1          0.0029    1.2197   -2.4391 N.4       1 <0>        -0.3983
      4 C3         -0.4056    2.0430   -3.5851 C.3       1 <0>        -0.0169
      5 C4          0.1901    3.4452   -3.4438 C.3       1 <0>        -0.1908
      6 C5         -0.7572    1.5798   -1.2347 C.3       1 <0>        -0.0251
      7 C6         -0.0079    1.0907    0.0064 C.3       1 <0>         0.0722
      8 N2         -0.7013    1.5556    1.2103 N.pl3     1 <0>        -0.6887
      9 C7         -0.2045    1.2336    2.4650 C.2       1 <0>         0.3738
     10 C8          0.9533    0.4616    2.5983 C.2       1 <0>        -0.1860
     11 C9          1.4792    0.1285    3.8296 C.2       1 <0>         0.0794
     12 C10         0.8432    0.5552    5.0003 C.2       1 <0>         0.0055
     13 C11        -0.3102    1.3160    4.8531 C.2       1 <0>         0.1360
     14 C12        -0.8550    1.6698    3.6258 C.2       1 <0>        -0.2185
     15 C13        -2.0806    2.4798    3.6476 C.2       1 <0>         0.4676
     16 O1         -2.6304    2.8403    2.6224 O.3       1 <0>        -0.3756
     17 C14        -2.6122    2.8341    4.9863 C.ar      1 <0>        -0.1489
     18 C15        -3.7759    3.6011    5.0847 C.ar      1 <0>        -0.1111
     19 C16        -4.2765    3.9352    6.3279 C.ar      1 <0>         0.2114
     20 C17        -3.6247    3.5104    7.4814 C.ar      1 <0>        -0.1066
     21 C18        -2.4768    2.7531    7.3964 C.ar      1 <0>        -0.0719
     22 C19        -1.9568    2.4069    6.1542 C.ar      1 <0>         0.1358
     23 N3         -0.7977    1.6437    6.0766 N.pl3     1 <0>        -0.3691
     24 C20         0.0655    1.0797    6.9721 C.cat     1 <0>         0.3972
     25 N4          1.0228    0.4446    6.3407 N.pl3     1 <0>        -0.4613
     26 O2         -5.4088    4.6815    6.4248 O.3       1 <0>        -0.4824
     27 H1          0.7489   -1.6703   -4.0677 H         1 <0>         0.1142
     28 H2          1.8792   -0.3956   -3.4983 H         1 <0>         0.0843
     29 H3          0.6463   -0.0104   -4.7466 H         1 <0>         0.0864
     30 H4         -1.1627   -0.4144   -3.0846 H         1 <0>         0.1334
     31 H5          0.0702   -0.7996   -1.8363 H         1 <0>         0.1278
     32 H6         -0.0423    1.5823   -4.5156 H         1 <0>         0.1444
     33 H7         -1.5030    2.1121   -3.6143 H         1 <0>         0.1321
     34 H8         -0.1158    4.0617   -4.3019 H         1 <0>         0.1155
     35 H9          1.2875    3.3761   -3.4146 H         1 <0>         0.0854
     36 H10        -0.1732    3.9058   -2.5133 H         1 <0>         0.0735
     37 H11        -0.8720    2.6727   -1.1867 H         1 <0>         0.1427
     38 H12        -1.7502    1.1082   -1.2731 H         1 <0>         0.1425
     39 H13         0.0263   -0.0088    0.0045 H         1 <0>         0.1127
     40 H14         1.0172    1.4894   -0.0033 H         1 <0>         0.1117
     41 H15        -1.6159    2.1600    1.1194 H         1 <0>         0.4510
     42 H16         1.4565    0.1184    1.7065 H         1 <0>         0.1736
     43 H17         2.3789   -0.4660    3.8897 H         1 <0>         0.1857
     44 H18        -4.2832    3.9318    4.1905 H         1 <0>         0.1628
     45 H19        -4.0215    3.7757    8.4502 H         1 <0>         0.1781
     46 H20        -1.9789    2.4277    8.2978 H         1 <0>         0.1696
     47 H21        -0.0273    1.1473    8.0459 H         1 <0>         0.2838
     48 H22        -5.8086    4.9483    7.4142 H         1 <0>         0.4779
     49 H23        -3.5470    3.4462    2.6737 H         1 <0>         0.5234
     50 H24         1.0660    1.4205   -2.2405 H         1 <0>         0.4427
     51 H25         1.8808   -0.1190    6.7360 H         1 <0>         0.5257
@<TRIPOS>BOND
     1    1    2 1
     2    1   27 1
     3    1   28 1
     4    1   29 1
     5    2    3 1
     6    2   30 1
     7    2   31 1
     8    3    4 1
     9    3    6 1
    10    3   50 1
    11    4    5 1
    12    4   32 1
    13    4   33 1
    14    5   34 1
    15    5   35 1
    16    5   36 1
    17    6    7 1
    18    6   37 1
    19    6   38 1
    20    7    8 1
    21    7   39 1
    22    7   40 1
    23    8    9 2
    24    8   41 1
    25    9   14 1
    26    9   10 1
    27   10   11 2
    28   10   42 1
    29   11   12 1
    30   11   43 1
    31   12   25 1
    32   12   13 2
    33   13   23 1
    34   13   14 1
    35   14   15 2
    36   15   16 1
    37   15   17 1
    38   16   49 1
    39   17   22 ar
    40   17   18 ar
    41   18   19 ar
    42   18   44 1
    43   19   20 ar
    44   19   26 1
    45   20   21 ar
    46   20   45 1
    47   21   22 ar
    48   21   46 1
    49   22   23 1
    50   23   24 1
    51   24   25 2
    52   24   47 1
    53   25   51 1
    54   26   48 1
@<TRIPOS>MOLECULE
ZINC00155677
   20    21     0     0     0
SMALL
USER_CHARGES

@<TRIPOS>ATOM
      1 C1         -0.0164    1.3568    0.0095 C.ar      1 <0>        -0.1053
      2 C2          1.1688    2.0898    0.0021 C.ar      1 <0>        -0.1201
      3 C3          2.3787    1.4660   -0.0127 C.ar      1 <0>        -0.0940
      4 C4          2.4380    0.0631   -0.0208 C.ar      1 <0>        -0.0853
      5 C5          1.2331   -0.6830   -0.0133 C.ar      1 <0>        -0.0246
      6 C6          0.0021   -0.0041    0.0020 C.ar      1 <0>        -0.1114
      7 C7          1.2897   -2.0863   -0.0208 C.ar      1 <0>        -0.1434
      8 C8          2.5128   -2.7180   -0.0354 C.ar      1 <0>         0.1254
      9 C9          3.6986   -1.9799   -0.0427 C.ar      1 <0>        -0.1712
     10 C10         3.6742   -0.6150   -0.0357 C.ar      1 <0>         0.1382
     11 O1          4.8365    0.0873   -0.0429 O.3       1 <0>        -0.4914
     12 O2          2.5671   -4.0757   -0.0422 O.3       1 <0>        -0.4970
     13 H1         -0.9632    1.8761    0.0259 H         1 <0>         0.1269
     14 H2          1.1267    3.1690    0.0079 H         1 <0>         0.1263
     15 H3          3.2889    2.0474   -0.0187 H         1 <0>         0.1320
     16 H4         -0.9241   -0.5595    0.0078 H         1 <0>         0.1312
     17 H5          0.3789   -2.6666   -0.0149 H         1 <0>         0.1374
     18 H6          4.6473   -2.4959   -0.0538 H         1 <0>         0.1372
     19 H7          5.1814    0.2862    0.8383 H         1 <0>         0.3949
     20 H8          2.5744   -4.4646   -0.9275 H         1 <0>         0.3944
@<TRIPOS>BOND
     1    1    6 ar
     2    1    2 ar
     3    1   13 1
     4    2    3 ar
     5    2   14 1
     6    3    4 ar
     7    3   15 1
     8    4   10 ar
     9    4    5 ar
    10    5    6 ar
    11    5    7 ar
    12    6   16 1
    13    7    8 ar
    14    7   17 1
    15    8    9 ar
    16    8   12 1
    17    9   10 ar
    18    9   18 1
    19   10   11 1
    20   11   19 1
    21   12   20 1
@<TRIPOS>MOLECULE
ZINC00155677
   20    21     0     0     0
SMALL
USER_CHARGES

@<TRIPOS>ATOM
      1 C1         -0.0183    1.5001    0.0103 C.3       1 <0>        -0.0785
      2 C2          1.3856    2.0395   -0.0002 C.2       1 <0>        -0.0869
      3 C3          2.4360    1.3294    0.4079 C.2       1 <0>        -0.1664
      4 C4          2.3275   -0.0131    0.8236 C.2       1 <0>         0.0156
      5 C5          1.1551   -0.7005    0.5884 C.2       1 <0>        -0.2181
      6 C6          0.0021   -0.0041    0.0020 C.2       1 <0>         0.0330
      7 C7         -1.0155   -0.7309   -0.5146 C.2       1 <0>        -0.2499
      8 C8         -1.0068   -2.1301   -0.5263 C.2       1 <0>         0.3953
      9 O1         -2.0003   -2.7166   -0.9075 O.2       1 <0>        -0.4560
     10 C9          0.1854   -2.9379   -0.0857 C.3       1 <0>        -0.2129
     11 C10         0.9837   -2.1234    0.9177 C.2       1 <0>         0.4118
     12 O2          1.4504   -2.6149    1.9243 O.2       1 <0>        -0.4332
     13 H1         -0.5326    1.8492    0.9057 H         1 <0>         0.1205
     14 H2         -0.5495    1.8588   -0.8713 H         1 <0>         0.1113
     15 H3          1.5492    3.0465   -0.3546 H         1 <0>         0.1324
     16 H4          3.4079    1.8002    0.4206 H         1 <0>         0.1324
     17 H5          3.1542   -0.4987    1.3208 H         1 <0>         0.1408
     18 H6         -1.8652   -0.2123   -0.9335 H         1 <0>         0.1441
     19 H7         -0.1524   -3.8632    0.3810 H         1 <0>         0.1236
     20 H8          0.8100   -3.1683   -0.9488 H         1 <0>         0.1410
@<TRIPOS>BOND
     1    1    6 1
     2    1    2 1
     3    1   13 1
     4    1   14 1
     5    2    3 2
     6    2   15 1
     7    3    4 1
     8    3   16 1
     9    4    5 2
    10    4   17 1
    11    5   11 1
    12    5    6 1
    13    6    7 2
    14    7    8 1
    15    7   18 1
    16    8    9 2
    17    8   10 1
    18   10   11 1
    19   10   19 1
    20   10   20 1
    21   11   12 2
@<TRIPOS>MOLECULE
ZINC00488399
   31    32     0     0     0
SMALL
USER_CHARGES
N-[2-(5-nitro-1H-indol-3-yl)ethyl]acetamide
@<TRIPOS>ATOM
      1 C1          8.9762    1.2310   -2.6713 C.3       1 <0>        -0.1755
      2 C2          7.4906    1.4835   -2.6570 C.2       1 <0>         0.5094
      3 O1          6.8682    1.5005   -3.6978 O.2       1 <0>        -0.5444
      4 N1          6.8535    1.6904   -1.4874 N.am      1 <0>        -0.7353
      5 C3          5.4092    1.9358   -1.4735 C.3       1 <0>         0.1213
      6 C4          4.9401    2.1374   -0.0312 C.3       1 <0>        -0.0588
      7 C5          3.4545    2.3899   -0.0168 C.2       1 <0>        -0.1522
      8 C6          2.8482    3.5874   -0.0045 C.2       1 <0>         0.0693
      9 N2          1.4898    3.4226    0.0068 N.pl3     1 <0>        -0.5820
     10 H1          0.8411    4.1437    0.0167 H         1 <0>         0.4259
     11 C7          1.1810    2.0808    0.0020 C.ar      1 <0>         0.1361
     12 C8          2.3981    1.3749   -0.0130 C.ar      1 <0>        -0.1081
     13 C9          2.3937   -0.0209   -0.0205 C.ar      1 <0>         0.0074
     14 C10         1.2053   -0.6956   -0.0132 C.ar      1 <0>        -0.0658
     15 C11         0.0021   -0.0041    0.0020 C.ar      1 <0>        -0.0493
     16 C12        -0.0166    1.3737    0.0096 C.ar      1 <0>        -0.1176
     17 N3          1.2013   -2.1758   -0.0211 N.pl3     1 <0>         0.0332
     18 O2          0.1449   -2.7820   -0.0143 O.2       1 <0>        -0.1619
     19 O3          2.2544   -2.7876   -0.0344 O.3       1 <0>        -0.1665
     20 H2          9.1985    0.3370   -2.0886 H         1 <0>         0.0895
     21 H3          9.3104    1.0874   -3.6988 H         1 <0>         0.0931
     22 H4          9.4942    2.0860   -2.2369 H         1 <0>         0.0885
     23 H5          7.3512    1.6768   -0.6550 H         1 <0>         0.4023
     24 H6          4.8912    1.0808   -1.9079 H         1 <0>         0.0683
     25 H7          5.1869    2.8297   -2.0561 H         1 <0>         0.0689
     26 H8          5.4582    2.9924    0.4032 H         1 <0>         0.0839
     27 H9          5.1624    1.2435    0.5515 H         1 <0>         0.0824
     28 H10         3.3571    4.5400   -0.0040 H         1 <0>         0.1822
     29 H11         3.3261   -0.5658   -0.0323 H         1 <0>         0.1531
     30 H12        -0.9290   -0.5513    0.0083 H         1 <0>         0.1569
     31 H13        -0.9581    1.9027    0.0169 H         1 <0>         0.1459
@<TRIPOS>BOND
     1    1    2 1
     2    1   20 1
     3    1   21 1
     4    1   22 1
     5    2    3 2
     6    2    4 am
     7    4    5 1
     8    4   23 1
     9    5    6 1
    10    5   24 1
    11    5   25 1
    12    6    7 1
    13    6   26 1
    14    6   27 1
    15    7   12 1
    16    7    8 2
    17    8    9 1
    18    8   28 1
    19    9   10 1
    20    9   11 1
    21   11   16 ar
    22   11   12 ar
    23   12   13 ar
    24   13   14 ar
    25   13   29 1
    26   14   15 ar
    27   14   17 1
    28   15   16 ar
    29   15   30 1
    30   16   31 1
    31   17   18 2
    32   17   19 1
@<TRIPOS>MOLECULE
ZINC30430198
   32    33     0     0     0
SMALL
USER_CHARGES
N-[2-(1-naphthyl)ethyl]methanesulfonamide
@<TRIPOS>ATOM
      1 C1         -2.2240    1.8415    1.6115 C.3       1 <0>        -0.6846
      2 S1         -1.4630    2.2692    0.0213 S.o2      1 <0>         2.6156
      3 O1         -1.1089    3.6452    0.0025 O.2       1 <0>        -0.9592
      4 O2         -2.2064    1.6978   -1.0464 O.2       1 <0>        -0.9554
      5 N1         -0.0178    1.4608    0.0101 N.pl3     1 <0>        -1.1263
      6 C2          0.0021   -0.0041    0.0020 C.3       1 <0>         0.1171
      7 C3          1.3986   -0.4930   -0.3873 C.3       1 <0>        -0.0866
      8 C4          1.4190   -1.9999   -0.3956 C.ar      1 <0>        -0.0744
      9 C5          1.8413   -2.6845    0.7026 C.ar      1 <0>        -0.1108
     10 C6          1.8671   -4.0775    0.7135 C.ar      1 <0>        -0.1161
     11 C7          1.4704   -4.7944   -0.3735 C.ar      1 <0>        -0.1050
     12 C8          1.0278   -4.1227   -1.5255 C.ar      1 <0>        -0.0516
     13 C9          0.9968   -2.7056   -1.5348 C.ar      1 <0>        -0.0456
     14 C10         0.5580   -2.0337   -2.6886 C.ar      1 <0>        -0.1101
     15 C11         0.1623   -2.7505   -3.7757 C.ar      1 <0>        -0.1128
     16 C12         0.1887   -4.1440   -3.7650 C.ar      1 <0>        -0.1146
     17 C13         0.6109   -4.8285   -2.6672 C.ar      1 <0>        -0.1071
     18 H1         -2.4935    0.7750    1.6140 H         1 <0>         0.1265
     19 H2         -3.1291    2.4488    1.7599 H         1 <0>         0.1299
     20 H3         -1.5109    2.0414    2.4248 H         1 <0>         0.1282
     21 H4          0.9136    2.0226    0.1742 H         1 <0>         0.4420
     22 H5         -0.2518   -0.3798    1.0042 H         1 <0>         0.0622
     23 H6         -0.7331   -0.3768   -0.7264 H         1 <0>         0.0867
     24 H7          1.6524   -0.1173   -1.3895 H         1 <0>         0.0876
     25 H8          2.1339   -0.1203    0.3411 H         1 <0>         0.0839
     26 H9          2.1614   -2.1396    1.5785 H         1 <0>         0.1235
     27 H10         2.2066   -4.5963    1.5979 H         1 <0>         0.1240
     28 H11         1.4955   -5.8739   -0.3505 H         1 <0>         0.1271
     29 H12         0.5314   -0.9543   -2.7112 H         1 <0>         0.1302
     30 H13        -0.1777   -2.2318   -4.6598 H         1 <0>         0.1245
     31 H14        -0.1311   -4.6888   -4.6410 H         1 <0>         0.1238
     32 H15         0.6253   -5.9084   -2.6731 H         1 <0>         0.1272
@<TRIPOS>BOND
     1    1    2 1
     2    1   18 1
     3    1   19 1
     4    1   20 1
     5    2    3 2
     6    2    4 2
     7    2    5 1
     8    5    6 1
     9    5   21 1
    10    6    7 1
    11    6   22 1
    12    6   23 1
    13    7    8 1
    14    7   24 1
    15    7   25 1
    16    8   13 ar
    17    8    9 ar
    18    9   10 ar
    19    9   26 1
    20   10   11 ar
    21   10   27 1
    22   11   12 ar
    23   11   28 1
    24   12   17 ar
    25   12   13 ar
    26   13   14 ar
    27   14   15 ar
    28   14   29 1
    29   15   16 ar
    30   15   30 1
    31   16   17 ar
    32   16   31 1
    33   17   32 1
@<TRIPOS>MOLECULE
ZINC00057060
   33    34     0     0     0
SMALL
USER_CHARGES

@<TRIPOS>ATOM
      1 C1         -0.0184    1.5028    0.0103 C.3       1 <0>        -0.1753
      2 C2          0.0021   -0.0041    0.0020 C.2       1 <0>         0.5080
      3 O1          1.0605   -0.5961   -0.0113 O.2       1 <0>        -0.5457
      4 N1         -1.1558   -0.6938    0.0094 N.am      1 <0>        -0.7345
      5 C3         -1.1360   -2.1586    0.0013 C.3       1 <0>         0.1215
      6 C4         -2.5713   -2.6882    0.0122 C.3       1 <0>        -0.0516
      7 C5         -2.5509   -4.1950    0.0039 C.2       1 <0>        -0.1794
      8 C6         -2.6385   -4.9886   -1.0753 C.2       1 <0>         0.0724
      9 N2         -2.5847   -6.3015   -0.6946 N.pl3     1 <0>        -0.5943
     10 H1         -2.6290   -7.0593   -1.2986 H         1 <0>         0.4174
     11 C7         -2.4577   -6.3869    0.6759 C.ar      1 <0>         0.0645
     12 C8         -2.4252   -5.0710    1.1714 C.ar      1 <0>        -0.0603
     13 C9         -2.2964   -4.8447    2.5432 C.ar      1 <0>        -0.1120
     14 C10        -2.1981   -5.9187    3.4055 C.ar      1 <0>         0.1023
     15 C11        -2.2271   -7.2201    2.9116 C.ar      1 <0>        -0.1777
     16 C12        -2.3616   -7.4550    1.5612 C.ar      1 <0>        -0.0891
     17 O2         -2.0719   -5.7044    4.7424 O.3       1 <0>        -0.3189
     18 C13        -1.9750   -6.8594    5.5783 C.3       1 <0>         0.0281
     19 H2          1.0042    1.8801    0.0026 H         1 <0>         0.0921
     20 H3         -0.5455    1.8639   -0.8728 H         1 <0>         0.0879
     21 H4         -0.5286    1.8543    0.9071 H         1 <0>         0.0882
     22 H5         -2.0023   -0.2203    0.0200 H         1 <0>         0.4011
     23 H6         -0.6258   -2.5101   -0.8955 H         1 <0>         0.0668
     24 H7         -0.6088   -2.5197    0.8844 H         1 <0>         0.0689
     25 H8         -3.0815   -2.3367    0.9090 H         1 <0>         0.0774
     26 H9         -3.0985   -2.3271   -0.8709 H         1 <0>         0.0766
     27 H10        -2.7373   -4.6419   -2.0933 H         1 <0>         0.1719
     28 H11        -2.2733   -3.8356    2.9275 H         1 <0>         0.1295
     29 H12        -2.1492   -8.0532    3.5943 H         1 <0>         0.1322
     30 H13        -2.3815   -8.4686    1.1887 H         1 <0>         0.1243
     31 H14        -1.8789   -6.5481    6.6184 H         1 <0>         0.0994
     32 H15        -2.8719   -7.4679    5.4625 H         1 <0>         0.0541
     33 H16        -1.1004   -7.4432    5.2914 H         1 <0>         0.0542
@<TRIPOS>BOND
     1    1    2 1
     2    1   19 1
     3    1   20 1
     4    1   21 1
     5    2    3 2
     6    2    4 am
     7    4    5 1
     8    4   22 1
     9    5    6 1
    10    5   23 1
    11    5   24 1
    12    6    7 1
    13    6   25 1
    14    6   26 1
    15    7   12 1
    16    7    8 2
    17    8    9 1
    18    8   27 1
    19    9   10 1
    20    9   11 1
    21   11   16 ar
    22   11   12 ar
    23   12   13 ar
    24   13   14 ar
    25   13   28 1
    26   14   15 ar
    27   14   17 1
    28   15   16 ar
    29   15   29 1
    30   16   30 1
    31   17   18 1
    32   18   31 1
    33   18   32 1
    34   18   33 1
@<TRIPOS>MOLECULE
ZINC00057060
   33    34     0     0     0
SMALL
USER_CHARGES

@<TRIPOS>ATOM
      1 C1         -0.2014    1.4875    0.0186 C.3       1 <0>        -0.1912
      2 C2         -0.0853   -0.0150    0.0084 C.2       1 <0>         0.3417
      3 N1          0.1188   -0.6538    1.1107 N.2       1 <0>        -0.5604
      4 C3          0.1213    0.0676    2.3858 C.3       1 <0>         0.0638
      5 C4         -1.0457   -0.4172    3.2483 C.3       1 <0>        -0.0342
      6 C5         -1.0432    0.3249    4.5599 C.2       1 <0>        -0.1776
      7 C6         -0.4818   -0.0855    5.7082 C.2       1 <0>         0.0699
      8 N2         -0.6813    0.8505    6.6858 N.pl3     1 <0>        -0.5952
      9 H1         -0.3672    0.7767    7.6006 H         1 <0>         0.4169
     10 C7         -1.3952    1.9148    6.1765 C.ar      1 <0>         0.0648
     11 C8         -1.6473    1.6336    4.8216 C.ar      1 <0>        -0.0617
     12 C9         -2.3565    2.5473    4.0393 C.ar      1 <0>        -0.1129
     13 C10        -2.8036    3.7256    4.6034 C.ar      1 <0>         0.1011
     14 C11        -2.5496    4.0025    5.9440 C.ar      1 <0>        -0.1787
     15 C12        -1.8576    3.1052    6.7268 C.ar      1 <0>        -0.0888
     16 O1         -3.4945    4.6194    3.8464 O.3       1 <0>        -0.3197
     17 C13        -3.9280    5.8183    4.4921 C.3       1 <0>         0.0282
     18 O2         -0.1949   -0.6921   -1.1535 O.3       1 <0>        -0.4711
     19 H2          0.6882    1.9176    0.4787 H         1 <0>         0.0880
     20 H3         -0.2935    1.8518   -1.0046 H         1 <0>         0.0790
     21 H4         -1.0830    1.7799    0.5891 H         1 <0>         0.0902
     22 H5          1.0603   -0.1189    2.9070 H         1 <0>         0.0820
     23 H6          0.0155    1.1362    2.1988 H         1 <0>         0.0483
     24 H7         -1.9847   -0.2307    2.7272 H         1 <0>         0.0678
     25 H8         -0.9399   -1.4859    3.4353 H         1 <0>         0.0794
     26 H9          0.0484   -1.0170    5.8408 H         1 <0>         0.1728
     27 H10        -2.5539    2.3338    2.9992 H         1 <0>         0.1269
     28 H11        -2.9033    4.9272    6.3756 H         1 <0>         0.1318
     29 H12        -1.6649    3.3308    7.7653 H         1 <0>         0.1240
     30 H13        -4.5878    5.5657    5.3222 H         1 <0>         0.0542
     31 H14        -3.0616    6.3616    4.8691 H         1 <0>         0.0540
     32 H15        -4.4653    6.4419    3.7776 H         1 <0>         0.0992
     33 H16        -0.3468   -0.1285   -1.9244 H         1 <0>         0.4075
@<TRIPOS>BOND
     1    1    2 1
     2    1   19 1
     3    1   20 1
     4    1   21 1
     5    2    3 2
     6    2   18 1
     7    3    4 1
     8    4    5 1
     9    4   22 1
    10    4   23 1
    11    5    6 1
    12    5   24 1
    13    5   25 1
    14    6   11 1
    15    6    7 2
    16    7    8 1
    17    7   26 1
    18    8    9 1
    19    8   10 1
    20   10   15 ar
    21   10   11 ar
    22   11   12 ar
    23   12   13 ar
    24   12   27 1
    25   13   14 ar
    26   13   16 1
    27   14   15 ar
    28   14   28 1
    29   15   29 1
    30   16   17 1
    31   17   30 1
    32   17   31 1
    33   17   32 1
    34   18   33 1
@<TRIPOS>MOLECULE
ZINC16957627
   54    58     0     0     0
SMALL
USER_CHARGES
(E)-3-(3,4-dichlorophenyl)-1-[2-(3,5-diphenylpyrazol-1-yl)-4-methyl-thiazol-5-yl]prop-2-en-1-one
@<TRIPOS>ATOM
      1 C1          1.8322    8.0077   -0.1826 C.3       1 <0>        -0.0942
      2 C2          1.7450    6.5067   -0.0799 C.2       1 <0>         0.1627
      3 C3          0.5184    5.8647    0.0420 C.2       1 <0>        -0.2840
      4 S1          1.0474    4.1593    0.1175 S.3       1 <0>         0.1716
      5 C4          2.7551    4.4454   -0.0128 C.2       1 <0>         0.3199
      6 N1          2.8205    5.7646   -0.0965 N.2       1 <0>        -0.5018
      7 N2          3.7912    3.5231   -0.0211 N.pl3     1 <0>        -0.2970
      8 C5          4.0168    2.5563    0.9212 C.2       1 <0>         0.1415
      9 C6          5.1263    1.8623    0.5389 C.2       1 <0>        -0.2110
     10 C7          5.5918    2.4243   -0.6634 C.2       1 <0>         0.1393
     11 N3          4.7940    3.4185   -0.9933 N.2       1 <0>        -0.2454
     12 C8          6.7804    1.9739   -1.4293 C.ar      1 <0>        -0.0265
     13 C9          7.5483    0.9077   -0.9656 C.ar      1 <0>        -0.0889
     14 C10         8.6496    0.4896   -1.6847 C.ar      1 <0>        -0.1208
     15 C11         8.9979    1.1340   -2.8581 C.ar      1 <0>        -0.1044
     16 C12         8.2423    2.1964   -3.3203 C.ar      1 <0>        -0.1212
     17 C13         7.1359    2.6194   -2.6119 C.ar      1 <0>        -0.0856
     18 C14         3.2019    2.3060    2.1301 C.ar      1 <0>        -0.0494
     19 C15         3.2269    1.0538    2.7450 C.ar      1 <0>        -0.0810
     20 C16         2.4645    0.8267    3.8723 C.ar      1 <0>        -0.1137
     21 C17         1.6761    1.8374    4.3929 C.ar      1 <0>        -0.0995
     22 C18         1.6465    3.0812    3.7877 C.ar      1 <0>        -0.1097
     23 C19         2.4046    3.3211    2.6601 C.ar      1 <0>        -0.1081
     24 C20        -0.8326    6.4291    0.0944 C.2       1 <0>         0.4767
     25 O1         -0.9921    7.6360    0.0272 O.2       1 <0>        -0.4355
     26 C21        -1.9917    5.5434    0.2275 C.2       1 <0>        -0.2256
     27 C22        -3.2357    6.0631    0.2757 C.2       1 <0>        -0.0046
     28 C23        -4.4000    5.1735    0.4094 C.ar      1 <0>        -0.0658
     29 C24        -5.6915    5.7091    0.4598 C.ar      1 <0>        -0.0736
     30 C25        -6.7779    4.8702    0.5851 C.ar      1 <0>        -0.0995
     31 C26        -6.5938    3.4991    0.6613 C.ar      1 <0>        -0.0196
     32 C27        -5.3172    2.9607    0.6121 C.ar      1 <0>        -0.0338
     33 C28        -4.2211    3.7883    0.4810 C.ar      1 <0>        -0.0806
     34 Cl1        -5.0979    1.2413    0.7077 Cl        1 <0>        -0.0393
     35 Cl2        -7.9682    2.4505    0.8196 Cl        1 <0>        -0.0388
     36 H1          1.9203    8.4357    0.8160 H         1 <0>         0.0877
     37 H2          2.7064    8.2812   -0.7735 H         1 <0>         0.0817
     38 H3          0.9332    8.3917   -0.6645 H         1 <0>         0.0984
     39 H4          5.5690    1.0298    1.0656 H         1 <0>         0.1700
     40 H5          7.2798    0.4067   -0.0472 H         1 <0>         0.1295
     41 H6          9.2431   -0.3393   -1.3284 H         1 <0>         0.1296
     42 H7          9.8629    0.8062   -3.4155 H         1 <0>         0.1265
     43 H8          8.5187    2.6960   -4.2370 H         1 <0>         0.1280
     44 H9          6.5466    3.4490   -2.9737 H         1 <0>         0.1297
     45 H10         3.8423    0.2641    2.3398 H         1 <0>         0.1344
     46 H11         2.4867   -0.1406    4.3520 H         1 <0>         0.1339
     47 H12         1.0809    1.6546    5.2753 H         1 <0>         0.1306
     48 H13         1.0290    3.8660    4.1989 H         1 <0>         0.1298
     49 H14         2.3807    4.2924    2.1886 H         1 <0>         0.1116
     50 H15        -1.8504    4.4744    0.2869 H         1 <0>         0.1330
     51 H16        -3.3770    7.1322    0.2162 H         1 <0>         0.1476
     52 H17        -5.8370    6.7776    0.4002 H         1 <0>         0.1481
     53 H18        -7.7752    5.2828    0.6244 H         1 <0>         0.1500
     54 H19        -3.2272    3.3678    0.4382 H         1 <0>         0.1472
@<TRIPOS>BOND
     1    1    2 1
     2    1   36 1
     3    1   37 1
     4    1   38 1
     5    2    6 1
     6    2    3 2
     7    3    4 1
     8    3   24 1
     9    4    5 1
    10    5    6 2
    11    5    7 1
    12    7   11 1
    13    7    8 1
    14    8    9 2
    15    8   18 1
    16    9   10 1
    17    9   39 1
    18   10   11 2
    19   10   12 1
    20   12   17 ar
    21   12   13 ar
    22   13   14 ar
    23   13   40 1
    24   14   15 ar
    25   14   41 1
    26   15   16 ar
    27   15   42 1
    28   16   17 ar
    29   16   43 1
    30   17   44 1
    31   18   23 ar
    32   18   19 ar
    33   19   20 ar
    34   19   45 1
    35   20   21 ar
    36   20   46 1
    37   21   22 ar
    38   21   47 1
    39   22   23 ar
    40   22   48 1
    41   23   49 1
    42   24   25 2
    43   24   26 1
    44   26   27 2
    45   26   50 1
    46   27   28 1
    47   27   51 1
    48   28   33 ar
    49   28   29 ar
    50   29   30 ar
    51   29   52 1
    52   30   31 ar
    53   30   53 1
    54   31   32 ar
    55   31   35 1
    56   32   33 ar
    57   32   34 1
    58   33   54 1
@<TRIPOS>MOLECULE
ZINC01423886
   32    33     0     0     0
SMALL
USER_CHARGES
5,8-dimethoxy-1,4-dimethyl-quinolin-2-one
@<TRIPOS>ATOM
      1 C1         -6.1996    1.1996    4.0252 C.3       1 <0>        -0.1138
      2 C2         -4.7648    1.6102    3.8159 C.2       1 <0>         0.0280
      3 C3         -4.0978    2.3099    4.7686 C.2       1 <0>        -0.2298
      4 C4         -2.7555    2.6887    4.5627 C.2       1 <0>         0.5330
      5 O1         -2.1752    3.3168    5.4316 O.2       1 <0>        -0.5403
      6 N1         -2.0994    2.3748    3.4318 N.am      1 <0>        -0.5165
      7 C5         -2.7197    1.6596    2.4268 C.ar      1 <0>         0.2028
      8 C6         -4.0611    1.2631    2.5824 C.ar      1 <0>        -0.1256
      9 C7         -4.6990    0.5402    1.5616 C.ar      1 <0>         0.1596
     10 C8         -4.0030    0.2290    0.4091 C.ar      1 <0>        -0.2074
     11 C9         -2.6832    0.6259    0.2571 C.ar      1 <0>        -0.1170
     12 C10        -2.0407    1.3383    1.2529 C.ar      1 <0>         0.0512
     13 O2         -0.7451    1.7204    1.0892 O.3       1 <0>        -0.3108
     14 C11        -0.1098    1.3515   -0.1365 C.3       1 <0>         0.0213
     15 O3         -5.9915    0.1489    1.7062 O.3       1 <0>        -0.3014
     16 C12        -6.5725   -0.5834    0.6253 C.3       1 <0>         0.0207
     17 C13        -0.7048    2.7919    3.2665 C.3       1 <0>         0.0727
     18 H1         -6.2763    0.1131    3.9837 H         1 <0>         0.0863
     19 H2         -6.5396    1.5509    4.9994 H         1 <0>         0.0718
     20 H3         -6.8206    1.6379    3.2440 H         1 <0>         0.0863
     21 H4         -4.5972    2.5773    5.6881 H         1 <0>         0.1553
     22 H5         -4.4901   -0.3272   -0.3782 H         1 <0>         0.1389
     23 H6         -2.1513    0.3762   -0.6491 H         1 <0>         0.1404
     24 H7         -0.1095    0.2658   -0.2332 H         1 <0>         0.0561
     25 H8          0.9172    1.7167   -0.1378 H         1 <0>         0.1028
     26 H9         -0.6526    1.7906   -0.9736 H         1 <0>         0.0561
     27 H10        -7.6049   -0.8335    0.8694 H         1 <0>         0.1049
     28 H11        -6.5500    0.0246   -0.2790 H         1 <0>         0.0589
     29 H12        -6.0057   -1.4998    0.4612 H         1 <0>         0.0589
     30 H13        -0.3809    3.3368    4.1532 H         1 <0>         0.0957
     31 H14        -0.0760    1.9119    3.1310 H         1 <0>         0.0804
     32 H15        -0.6197    3.4372    2.3922 H         1 <0>         0.0805
@<TRIPOS>BOND
     1    1    2 1
     2    1   18 1
     3    1   19 1
     4    1   20 1
     5    2    8 1
     6    2    3 2
     7    3    4 1
     8    3   21 1
     9    4    5 2
    10    4    6 am
    11    6    7 1
    12    6   17 1
    13    7   12 ar
    14    7    8 ar
    15    8    9 ar
    16    9   10 ar
    17    9   15 1
    18   10   11 ar
    19   10   22 1
    20   11   12 ar
    21   11   23 1
    22   12   13 1
    23   13   14 1
    24   14   24 1
    25   14   25 1
    26   14   26 1
    27   15   16 1
    28   16   27 1
    29   16   28 1
    30   16   29 1
    31   17   30 1
    32   17   31 1
    33   17   32 1
@<TRIPOS>MOLECULE
ZINC02567732
   37    38     0     0     0
SMALL
USER_CHARGES

@<TRIPOS>ATOM
      1 C1          1.1369    1.0633    0.0027 C.3       1 <0>        -0.1753
      2 C2          0.9375   -0.4305    0.0092 C.2       1 <0>         0.5081
      3 O1          1.8981   -1.1704    0.0314 O.2       1 <0>        -0.5462
      4 N1         -0.3085   -0.9441   -0.0098 N.am      1 <0>        -0.7341
      5 C3         -0.5023   -2.3962   -0.0035 C.3       1 <0>         0.1228
      6 C4         -1.9994   -2.7110   -0.0283 C.3       1 <0>        -0.0539
      7 C5         -2.1988   -4.2047   -0.0219 C.2       1 <0>        -0.1710
      8 C6         -2.3725   -4.9916   -1.0955 C.2       1 <0>         0.0665
      9 N2         -2.5215   -6.2930   -0.7012 N.pl3     1 <0>        -0.5933
     10 H1         -2.6601   -7.0442   -1.2990 H         1 <0>         0.4181
     11 C7         -2.4451   -6.3777    0.6731 C.ar      1 <0>         0.0870
     12 C8         -2.2334   -5.0740    1.1569 C.ar      1 <0>        -0.0802
     13 C9         -2.1084   -4.8504    2.5293 C.ar      1 <0>        -0.0692
     14 C10        -2.1904   -5.9167    3.4049 C.ar      1 <0>         0.1271
     15 C11        -2.3961   -7.2074    2.9214 C.ar      1 <0>        -0.1131
     16 C12        -2.5301   -7.4369    1.5704 C.ar      1 <0>        -0.1077
     17 N3         -2.0657   -5.6992    4.7841 N.am      1 <0>        -0.6471
     18 C13        -2.5245   -4.5555    5.3300 C.2       1 <0>         0.6452
     19 O2         -3.1318   -3.7562    4.6453 O.2       1 <0>        -0.5519
     20 O3         -2.3099   -4.2987    6.6343 O.3       1 <0>        -0.3633
     21 C14        -2.8241   -3.0676    7.1463 C.3       1 <0>         0.0533
     22 H2          2.2034    1.2875    0.0204 H         1 <0>         0.0922
     23 H3          0.6917    1.4853   -0.8983 H         1 <0>         0.0881
     24 H4          0.6597    1.4973    0.8813 H         1 <0>         0.0880
     25 H5         -1.0768   -0.3523   -0.0276 H         1 <0>         0.4014
     26 H6         -0.0251   -2.8303   -0.8822 H         1 <0>         0.0673
     27 H7         -0.0571   -2.8183    0.8975 H         1 <0>         0.0673
     28 H8         -2.4765   -2.2769    0.8503 H         1 <0>         0.0786
     29 H9         -2.4445   -2.2889   -0.9293 H         1 <0>         0.0771
     30 H10        -2.3921   -4.6479   -2.1192 H         1 <0>         0.1721
     31 H11        -1.9482   -3.8504    2.9045 H         1 <0>         0.1354
     32 H12        -2.4585   -8.0343    3.6133 H         1 <0>         0.1327
     33 H13        -2.6877   -8.4415    1.2064 H         1 <0>         0.1281
     34 H14        -1.6493   -6.3717    5.3455 H         1 <0>         0.4176
     35 H15        -2.5827   -2.9857    8.2060 H         1 <0>         0.1064
     36 H16        -2.3758   -2.2339    6.6059 H         1 <0>         0.0628
     37 H17        -3.9062   -3.0442    7.0173 H         1 <0>         0.0632
@<TRIPOS>BOND
     1    1    2 1
     2    1   22 1
     3    1   23 1
     4    1   24 1
     5    2    3 2
     6    2    4 am
     7    4    5 1
     8    4   25 1
     9    5    6 1
    10    5   26 1
    11    5   27 1
    12    6    7 1
    13    6   28 1
    14    6   29 1
    15    7   12 1
    16    7    8 2
    17    8    9 1
    18    8   30 1
    19    9   10 1
    20    9   11 1
    21   11   16 ar
    22   11   12 ar
    23   12   13 ar
    24   13   14 ar
    25   13   31 1
    26   14   15 ar
    27   14   17 1
    28   15   16 ar
    29   15   32 1
    30   16   33 1
    31   17   18 am
    32   17   34 1
    33   18   19 2
    34   18   20 1
    35   20   21 1
    36   21   35 1
    37   21   36 1
    38   21   37 1
@<TRIPOS>MOLECULE
ZINC01530862
   41    42     0     0     0
SMALL
USER_CHARGES

@<TRIPOS>ATOM
      1 C1         -0.0187    1.5258    0.0104 C.3       1 <0>        -0.1759
      2 C2          0.0021   -0.0041    0.0020 C.3       1 <0>         0.1445
      3 H1          0.5123   -0.3556   -0.8948 H         1 <0>         0.0874
      4 C3          0.7421   -0.5109    1.2415 C.3       1 <0>        -0.1246
      5 C4          0.8719   -2.0337    1.1708 C.3       1 <0>        -0.1545
      6 C5          1.6119   -2.5406    2.4104 C.3       1 <0>        -0.0094
      7 N1          1.7366   -4.0027    2.3425 N.4       1 <0>        -0.6384
      8 N2         -1.3723   -0.5112    0.0124 N.pl3     1 <0>        -0.7238
      9 C6         -2.0741   -0.6472   -1.1844 C.ar      1 <0>         0.2773
     10 C7         -1.4767   -0.3114   -2.3781 C.ar      1 <0>        -0.2334
     11 C8         -2.1675   -0.4420   -3.5847 C.ar      1 <0>         0.1905
     12 C9         -3.4621   -0.9103   -3.6065 C.ar      1 <0>        -0.2639
     13 C10        -4.0966   -1.2609   -2.4048 C.ar      1 <0>        -0.0191
     14 C11        -3.3997   -1.1359   -1.1780 C.ar      1 <0>         0.0499
     15 N3         -4.0010   -1.4743   -0.0342 N.ar      1 <0>        -0.4651
     16 C12        -5.2304   -1.9286   -0.0180 C.ar      1 <0>         0.1019
     17 C13        -5.9704   -2.0819   -1.1886 C.ar      1 <0>        -0.1495
     18 C14        -5.4200   -1.7427   -2.3915 C.ar      1 <0>        -0.0800
     19 O1         -1.5557   -0.1028   -4.7496 O.3       1 <0>        -0.3138
     20 C15        -2.3146   -0.2587   -5.9504 C.3       1 <0>         0.0250
     21 H2          1.0039    1.9031    0.0027 H         1 <0>         0.0693
     22 H3         -0.5459    1.8868   -0.8726 H         1 <0>         0.0680
     23 H4         -0.5289    1.8773    0.9072 H         1 <0>         0.0627
     24 H5          1.7350   -0.0630    1.2804 H         1 <0>         0.0923
     25 H6          0.1838   -0.2350    2.1361 H         1 <0>         0.0820
     26 H7         -0.1210   -2.4817    1.1320 H         1 <0>         0.0909
     27 H8          1.4302   -2.3096    0.2763 H         1 <0>         0.0898
     28 H9          2.6049   -2.0927    2.4492 H         1 <0>         0.1346
     29 H10         1.0536   -2.2647    3.3050 H         1 <0>         0.1339
     30 H11         0.8175   -4.4173    2.3065 H         1 <0>         0.4357
     31 H12         2.2534   -4.2581    1.5144 H         1 <0>         0.4355
     32 H13        -1.7940   -0.7522    0.8520 H         1 <0>         0.4097
     33 H14        -0.4618    0.0578   -2.3816 H         1 <0>         0.1367
     34 H15        -3.9875   -1.0072   -4.5450 H         1 <0>         0.1338
     35 H16        -5.6815   -2.1913    0.9274 H         1 <0>         0.1583
     36 H17        -6.9813   -2.4594   -1.1437 H         1 <0>         0.1391
     37 H18        -5.9791   -1.8543   -3.3088 H         1 <0>         0.1397
     38 H19        -2.6033   -1.3036   -6.0646 H         1 <0>         0.0592
     39 H20        -3.2092    0.3618   -5.8979 H         1 <0>         0.0602
     40 H21        -1.7102    0.0467   -6.8045 H         1 <0>         0.1047
     41 H22         2.2246   -4.3369    3.1599 H         1 <0>         0.4387
@<TRIPOS>BOND
     1    1    2 1
     2    1   21 1
     3    1   22 1
     4    1   23 1
     5    2    3 1
     6    2    4 1
     7    2    8 1
     8    4    5 1
     9    4   24 1
    10    4   25 1
    11    5    6 1
    12    5   26 1
    13    5   27 1
    14    6    7 1
    15    6   28 1
    16    6   29 1
    17    7   30 1
    18    7   31 1
    19    7   41 1
    20    8    9 1
    21    8   32 1
    22    9   14 ar
    23    9   10 ar
    24   10   11 ar
    25   10   33 1
    26   11   12 ar
    27   11   19 1
    28   12   13 ar
    29   12   34 1
    30   13   18 ar
    31   13   14 ar
    32   14   15 ar
    33   15   16 ar
    34   16   17 ar
    35   16   35 1
    36   17   18 ar
    37   17   36 1
    38   18   37 1
    39   19   20 1
    40   20   38 1
    41   20   39 1
    42   20   40 1
@<TRIPOS>MOLECULE
ZINC01530862
   42    43     0     0     0
SMALL
USER_CHARGES

@<TRIPOS>ATOM
      1 C1         -0.0187    1.5258    0.0104 C.3       1 <0>        -0.1803
      2 C2          0.0021   -0.0041    0.0020 C.3       1 <0>         0.1451
      3 H1          0.5293   -0.3651    0.8851 H         1 <0>         0.0981
      4 C3         -1.4333   -0.5336    0.0129 C.3       1 <0>        -0.1297
      5 C4         -1.4133   -2.0590    0.1302 C.3       1 <0>        -0.1536
      6 C5         -2.8486   -2.5886    0.1411 C.3       1 <0>        -0.0113
      7 N1         -2.8294   -4.0531    0.2538 N.4       1 <0>        -0.6390
      8 N2          0.6878   -0.4765   -1.2033 N.pl3     1 <0>        -0.7346
      9 C6          2.0771   -0.5908   -1.2153 C.ar      1 <0>         0.2396
     10 C7          2.8072   -0.2658   -0.0945 C.ar      1 <0>        -0.1720
     11 C8          4.1993   -0.3748   -0.0920 C.ar      1 <0>         0.2167
     12 C9          4.8724   -0.8104   -1.2113 C.ar      1 <0>        -0.2298
     13 C10         4.1542   -1.1492   -2.3685 C.ar      1 <0>         0.0003
     14 C11         2.7416   -1.0461   -2.3760 C.ar      1 <0>         0.0369
     15 N3          2.0568   -1.3732   -3.4752 N.ar      1 <0>        -0.4402
     16 C12         2.6642   -1.7970   -4.5567 C.ar      1 <0>         0.1900
     17 C13         4.0501   -1.9275   -4.6153 C.ar      1 <0>        -0.1546
     18 C14         4.8116   -1.5977   -3.5306 C.ar      1 <0>         0.0340
     19 O1          4.8972   -0.0470    1.0269 O.3       1 <0>        -0.2955
     20 C15         6.3188   -0.1797    0.9670 C.3       1 <0>         0.0152
     21 H2          1.0039    1.9031    0.0027 H         1 <0>         0.0698
     22 H3         -0.5459    1.8868   -0.8726 H         1 <0>         0.0670
     23 H4         -0.5289    1.8773    0.9072 H         1 <0>         0.0818
     24 H5         -1.9701   -0.1109    0.8621 H         1 <0>         0.1040
     25 H6         -1.9334   -0.2470   -0.9122 H         1 <0>         0.0850
     26 H7         -0.8764   -2.4817   -0.7190 H         1 <0>         0.0812
     27 H8         -0.9132   -2.3457    1.0553 H         1 <0>         0.0941
     28 H9         -3.3855   -2.1659    0.9903 H         1 <0>         0.1395
     29 H10        -3.3487   -2.3019   -0.7840 H         1 <0>         0.1348
     30 H11        -2.3325   -4.4444   -0.5324 H         1 <0>         0.4333
     31 H12        -2.3665   -4.3185    1.1101 H         1 <0>         0.4377
     32 H13         0.1751   -0.7099   -1.9930 H         1 <0>         0.3945
     33 H14         2.2973    0.0778    0.7933 H         1 <0>         0.1607
     34 H15         5.9494   -0.8908   -1.1990 H         1 <0>         0.1631
     35 H16         2.0749   -2.0519   -5.4251 H         1 <0>         0.2116
     36 H17         4.5223   -2.2801   -5.5203 H         1 <0>         0.1889
     37 H18         5.8871   -1.6920   -3.5583 H         1 <0>         0.1802
     38 H19         6.5782   -1.2165    0.7532 H         1 <0>         0.0694
     39 H20         6.7107    0.4629    0.1786 H         1 <0>         0.0704
     40 H21         6.7517    0.1134    1.9235 H         1 <0>         0.1198
     41 H22        -3.7760   -4.4024    0.2609 H         1 <0>         0.4436
     42 H23         1.0899   -1.2958   -3.4730 H         1 <0>         0.4343
@<TRIPOS>BOND
     1    1    2 1
     2    1   21 1
     3    1   22 1
     4    1   23 1
     5    2    3 1
     6    2    4 1
     7    2    8 1
     8    4    5 1
     9    4   24 1
    10    4   25 1
    11    5    6 1
    12    5   26 1
    13    5   27 1
    14    6    7 1
    15    6   28 1
    16    6   29 1
    17    7   30 1
    18    7   31 1
    19    7   41 1
    20    8    9 1
    21    8   32 1
    22    9   14 ar
    23    9   10 ar
    24   10   11 ar
    25   10   33 1
    26   11   12 ar
    27   11   19 1
    28   12   13 ar
    29   12   34 1
    30   13   18 ar
    31   13   14 ar
    32   14   15 ar
    33   15   16 ar
    34   15   42 1
    35   16   17 ar
    36   16   35 1
    37   17   18 ar
    38   17   36 1
    39   18   37 1
    40   19   20 1
    41   20   38 1
    42   20   39 1
    43   20   40 1
@<TRIPOS>MOLECULE
ZINC01530863
   41    42     0     0     0
SMALL
USER_CHARGES

@<TRIPOS>ATOM
      1 C1         -0.0187    1.5258    0.0104 C.3       1 <0>        -0.1760
      2 C2          0.0021   -0.0041    0.0020 C.3       1 <0>         0.1446
      3 H1          0.5123   -0.3556   -0.8948 H         1 <0>         0.0874
      4 C3         -1.4333   -0.5336    0.0129 C.3       1 <0>        -0.1245
      5 C4         -1.4157   -2.0577   -0.1212 C.3       1 <0>        -0.1546
      6 C5         -2.8510   -2.5872   -0.1103 C.3       1 <0>        -0.0093
      7 N1         -2.8341   -4.0505   -0.2391 N.4       1 <0>        -0.6385
      8 N2          0.7106   -0.4894    1.1889 N.pl3     1 <0>        -0.7238
      9 C6          2.0999   -0.6036    1.1732 C.ar      1 <0>         0.2771
     10 C7          2.8094   -0.2559    0.0460 C.ar      1 <0>        -0.2332
     11 C8          4.2012   -0.3655    0.0155 C.ar      1 <0>         0.1904
     12 C9          4.8946   -0.8237    1.1132 C.ar      1 <0>        -0.2638
     13 C10         4.1977   -1.1851    2.2765 C.ar      1 <0>        -0.0192
     14 C11         2.7864   -1.0713    2.3160 C.ar      1 <0>         0.0500
     15 N3          2.1226   -1.4101    3.4245 N.ar      1 <0>        -0.4650
     16 C12         2.7506   -1.8450    4.4898 C.ar      1 <0>         0.1018
     17 C13         4.1375   -1.9752    4.5207 C.ar      1 <0>        -0.1494
     18 C14         4.8761   -1.6579    3.4167 C.ar      1 <0>        -0.0801
     19 O1          4.8784   -0.0166   -1.1098 O.3       1 <0>        -0.3138
     20 C15         6.3007   -0.1511   -1.0790 C.3       1 <0>         0.0250
     21 H2          1.0039    1.9031    0.0027 H         1 <0>         0.0681
     22 H3         -0.5459    1.8868   -0.8726 H         1 <0>         0.0692
     23 H4         -0.5289    1.8773    0.9072 H         1 <0>         0.0627
     24 H5         -1.9156   -0.2570    0.9504 H         1 <0>         0.0820
     25 H6         -1.9862   -0.1019   -0.8214 H         1 <0>         0.0923
     26 H7         -0.9334   -2.3344   -1.0587 H         1 <0>         0.0898
     27 H8         -0.8628   -2.4894    0.7131 H         1 <0>         0.0909
     28 H9         -3.3333   -2.3105    0.8272 H         1 <0>         0.1339
     29 H10        -3.4039   -2.1555   -0.9446 H         1 <0>         0.1346
     30 H11        -2.3877   -4.3066   -1.1069 H         1 <0>         0.4355
     31 H12        -2.3223   -4.4502    0.5332 H         1 <0>         0.4357
     32 H13         0.2131   -0.7312    1.9857 H         1 <0>         0.4097
     33 H14         2.2834    0.1056   -0.8252 H         1 <0>         0.1368
     34 H15         5.9709   -0.9050    1.0790 H         1 <0>         0.1338
     35 H16         2.1780   -2.1089    5.3666 H         1 <0>         0.1583
     36 H17         4.6269   -2.3357    5.4134 H         1 <0>         0.1391
     37 H18         5.9518   -1.7533    3.4225 H         1 <0>         0.1397
     38 H19         6.7078    0.4760   -0.2859 H         1 <0>         0.0602
     39 H20         6.5632   -1.1920   -0.8900 H         1 <0>         0.0592
     40 H21         6.7159    0.1600   -2.0375 H         1 <0>         0.1047
     41 H22        -3.7807   -4.3997   -0.2319 H         1 <0>         0.4387
@<TRIPOS>BOND
     1    1    2 1
     2    1   21 1
     3    1   22 1
     4    1   23 1
     5    2    3 1
     6    2    4 1
     7    2    8 1
     8    4    5 1
     9    4   24 1
    10    4   25 1
    11    5    6 1
    12    5   26 1
    13    5   27 1
    14    6    7 1
    15    6   28 1
    16    6   29 1
    17    7   30 1
    18    7   31 1
    19    7   41 1
    20    8    9 1
    21    8   32 1
    22    9   14 ar
    23    9   10 ar
    24   10   11 ar
    25   10   33 1
    26   11   12 ar
    27   11   19 1
    28   12   13 ar
    29   12   34 1
    30   13   18 ar
    31   13   14 ar
    32   14   15 ar
    33   15   16 ar
    34   16   17 ar
    35   16   35 1
    36   17   18 ar
    37   17   36 1
    38   18   37 1
    39   19   20 1
    40   20   38 1
    41   20   39 1
    42   20   40 1
@<TRIPOS>MOLECULE
ZINC01530863
   42    43     0     0     0
SMALL
USER_CHARGES

@<TRIPOS>ATOM
      1 C1         -0.0187    1.5258    0.0104 C.3       1 <0>        -0.1804
      2 C2          0.0021   -0.0041    0.0020 C.3       1 <0>         0.1452
      3 H1          0.5293   -0.3651    0.8851 H         1 <0>         0.0981
      4 C3          0.7182   -0.4975   -1.2568 C.3       1 <0>        -0.1297
      5 C4          0.8493   -2.0210   -1.2049 C.3       1 <0>        -0.1535
      6 C5          1.5654   -2.5144   -2.4637 C.3       1 <0>        -0.0113
      7 N1          1.6912   -3.9772   -2.4140 N.4       1 <0>        -0.6390
      8 N2         -1.3723   -0.5112    0.0124 N.pl3     1 <0>        -0.7347
      9 C6         -2.0512   -0.6602    1.2209 C.ar      1 <0>         0.2394
     10 C7         -1.4350   -0.3264    2.4056 C.ar      1 <0>        -0.1718
     11 C8         -2.1023   -0.4708    3.6237 C.ar      1 <0>         0.2167
     12 C9         -3.3923   -0.9501    3.6661 C.ar      1 <0>        -0.2297
     13 C10        -4.0460   -1.2980    2.4739 C.ar      1 <0>         0.0003
     14 C11        -3.3767   -1.1489    1.2345 C.ar      1 <0>         0.0370
     15 N3         -3.9998   -1.4749    0.0988 N.ar      1 <0>        -0.4401
     16 C12        -5.2295   -1.9287    0.1012 C.ar      1 <0>         0.1900
     17 C13        -5.9473   -2.0938    1.2839 C.ar      1 <0>        -0.1545
     18 C14        -5.3651   -1.7916    2.4818 C.ar      1 <0>         0.0338
     19 O1         -1.4716   -0.1352    4.7796 O.3       1 <0>        -0.2955
     20 C15        -2.2070   -0.3054    5.9930 C.3       1 <0>         0.0152
     21 H2          1.0039    1.9031    0.0027 H         1 <0>         0.0818
     22 H3         -0.5459    1.8868   -0.8726 H         1 <0>         0.0670
     23 H4         -0.5289    1.8773    0.9072 H         1 <0>         0.0698
     24 H5          0.1430   -0.2121   -2.1375 H         1 <0>         0.0850
     25 H6          1.7103   -0.0491   -1.3098 H         1 <0>         0.1040
     26 H7          1.4245   -2.3064   -0.3242 H         1 <0>         0.0942
     27 H8         -0.1428   -2.4694   -1.1520 H         1 <0>         0.0812
     28 H9          0.9902   -2.2290   -3.3445 H         1 <0>         0.1348
     29 H10         2.5575   -2.0660   -2.5167 H         1 <0>         0.1395
     30 H11         2.2237   -4.2414   -1.5987 H         1 <0>         0.4377
     31 H12         0.7729   -4.3922   -2.3649 H         1 <0>         0.4332
     32 H13        -1.8100   -0.7432   -0.8215 H         1 <0>         0.3945
     33 H14        -0.4232    0.0512    2.3930 H         1 <0>         0.1608
     34 H15        -3.8994   -1.0583    4.6136 H         1 <0>         0.1631
     35 H16        -5.6987   -2.1809   -0.8382 H         1 <0>         0.2115
     36 H17        -6.9595   -2.4692    1.2542 H         1 <0>         0.1889
     37 H18        -5.9062   -1.9140    3.4084 H         1 <0>         0.1802
     38 H19        -3.1071    0.3085    5.9615 H         1 <0>         0.0704
     39 H20        -2.4857   -1.3532    6.1050 H         1 <0>         0.0694
     40 H21        -1.5892   -0.0014    6.8380 H         1 <0>         0.1198
     41 H22         2.1635   -4.3026   -3.2441 H         1 <0>         0.4436
     42 H23        -3.5327   -1.3734   -0.7452 H         1 <0>         0.4343
@<TRIPOS>BOND
     1    1    2 1
     2    1   21 1
     3    1   22 1
     4    1   23 1
     5    2    3 1
     6    2    4 1
     7    2    8 1
     8    4    5 1
     9    4   24 1
    10    4   25 1
    11    5    6 1
    12    5   26 1
    13    5   27 1
    14    6    7 1
    15    6   28 1
    16    6   29 1
    17    7   30 1
    18    7   31 1
    19    7   41 1
    20    8    9 1
    21    8   32 1
    22    9   14 ar
    23    9   10 ar
    24   10   11 ar
    25   10   33 1
    26   11   12 ar
    27   11   19 1
    28   12   13 ar
    29   12   34 1
    30   13   18 ar
    31   13   14 ar
    32   14   15 ar
    33   15   16 ar
    34   15   42 1
    35   16   17 ar
    36   16   35 1
    37   17   18 ar
    38   17   36 1
    39   18   37 1
    40   19   20 1
    41   20   38 1
    42   20   39 1
    43   20   40 1
@<TRIPOS>MOLECULE
ZINC13473197
   35    36     0     0     0
SMALL
USER_CHARGES
N-[2-(2-iodo-5-methoxy-4-nitro-1H-indol-3-yl)ethyl]acetamide
@<TRIPOS>ATOM
      1 C1         -7.8227   -2.2840   -2.5426 C.3       1 <0>        -0.1744
      2 C2         -6.3324   -2.5076   -2.5587 C.2       1 <0>         0.5120
      3 O1         -5.7433   -2.5915   -3.6155 O.2       1 <0>        -0.5437
      4 N1         -5.6544   -2.6144   -1.3988 N.am      1 <0>        -0.7304
      5 C3         -4.2057   -2.8318   -1.4146 C.3       1 <0>         0.1239
      6 C4         -3.6870   -2.9158    0.0224 C.3       1 <0>        -0.0750
      7 C5         -2.1968   -3.1395    0.0062 C.2       1 <0>        -0.1221
      8 C6         -1.1605   -2.1041    0.0018 C.ar      1 <0>        -0.0359
      9 C7          0.0702   -2.7848   -0.0136 C.ar      1 <0>         0.0904
     10 C8          1.2554   -2.0577   -0.0210 C.ar      1 <0>        -0.0405
     11 C9          1.2185   -0.6808   -0.0190 C.ar      1 <0>        -0.1697
     12 C10         0.0021   -0.0041    0.0020 C.ar      1 <0>         0.1683
     13 C11        -1.1859   -0.7079    0.0096 C.ar      1 <0>        -0.0236
     14 N2         -2.4786    0.0132    0.0253 N.pl3     1 <0>         0.0312
     15 O2         -3.0202    0.3152   -1.0230 O.2       1 <0>        -0.1308
     16 O3         -3.0005    0.3046    1.0865 O.3       1 <0>        -0.1407
     17 O4         -0.0164    1.3557    0.0095 O.3       1 <0>        -0.3104
     18 C12         1.2479    2.0217    0.0010 C.3       1 <0>         0.0244
     19 N3         -0.2124   -4.1350   -0.0181 N.pl3     1 <0>        -0.5639
     20 H1          0.4503   -4.8432   -0.0285 H         1 <0>         0.4289
     21 C13        -1.5672   -4.3260   -0.0062 C.2       1 <0>         0.0849
     22 I1         -2.5187   -6.1924   -0.0082 I         1 <0>         0.0552
     23 H2         -8.0447   -1.3529   -2.0211 H         1 <0>         0.0901
     24 H3         -8.1922   -2.2241   -3.5662 H         1 <0>         0.0926
     25 H4         -8.3089   -3.1132   -2.0286 H         1 <0>         0.0876
     26 H5         -6.1256   -2.5473   -0.5536 H         1 <0>         0.4021
     27 H6         -3.7194   -2.0026   -1.9285 H         1 <0>         0.0751
     28 H7         -3.9837   -3.7628   -1.9361 H         1 <0>         0.0698
     29 H8         -4.1733   -3.7450    0.5363 H         1 <0>         0.0912
     30 H9         -3.9090   -1.9848    0.5438 H         1 <0>         0.0838
     31 H10         2.2047   -2.5725   -0.0324 H         1 <0>         0.1489
     32 H11         2.1420   -0.1210   -0.0296 H         1 <0>         0.1593
     33 H12         1.8173    1.7317    0.8840 H         1 <0>         0.0650
     34 H13         1.8003    1.7412   -0.8958 H         1 <0>         0.0651
     35 H14         1.0905    3.1002    0.0083 H         1 <0>         0.1116
@<TRIPOS>BOND
     1    1    2 1
     2    1   23 1
     3    1   24 1
     4    1   25 1
     5    2    3 2
     6    2    4 am
     7    4    5 1
     8    4   26 1
     9    5    6 1
    10    5   27 1
    11    5   28 1
    12    6    7 1
    13    6   29 1
    14    6   30 1
    15    7   21 2
    16    7    8 1
    17    8   13 ar
    18    8    9 ar
    19    9   10 ar
    20    9   19 1
    21   10   11 ar
    22   10   31 1
    23   11   12 ar
    24   11   32 1
    25   12   13 ar
    26   12   17 1
    27   13   14 1
    28   14   15 2
    29   14   16 1
    30   17   18 1
    31   18   33 1
    32   18   34 1
    33   18   35 1
    34   19   20 1
    35   19   21 1
    36   21   22 1
@<TRIPOS>MOLECULE
ZINC13473199
   35    36     0     0     0
SMALL
USER_CHARGES
N-[2-(2-iodo-5-methoxy-6-nitro-1H-indol-3-yl)ethyl]acetamide
@<TRIPOS>ATOM
      1 C1          7.8841   -2.1006    2.5270 C.3       1 <0>        -0.1755
      2 C2          6.4005   -2.3648    2.5393 C.2       1 <0>         0.5098
      3 O1          5.8133   -2.4770    3.5945 O.2       1 <0>        -0.5425
      4 N1          5.7262   -2.4763    1.3777 N.am      1 <0>        -0.7340
      5 C3          4.2840   -2.7331    1.3896 C.3       1 <0>         0.1222
      6 C4          3.7685   -2.8144   -0.0486 C.3       1 <0>        -0.0657
      7 C5          2.2849   -3.0786   -0.0363 C.2       1 <0>        -0.1298
      8 C6          1.2209   -2.0718   -0.0207 C.ar      1 <0>        -0.0161
      9 C7          1.2083   -0.6751   -0.0188 C.ar      1 <0>        -0.1644
     10 C8          0.0021   -0.0041    0.0020 C.ar      1 <0>         0.1660
     11 C9         -1.1960   -0.7139    0.0096 C.ar      1 <0>        -0.0465
     12 C10        -1.1954   -2.0908    0.0022 C.ar      1 <0>        -0.0157
     13 C11         0.0093   -2.7856   -0.0130 C.ar      1 <0>         0.0748
     14 N2          0.3283   -4.1276   -0.0232 N.pl3     1 <0>        -0.5674
     15 H1         -0.3151   -4.8535   -0.0205 H         1 <0>         0.4279
     16 C12         1.6877   -4.2818   -0.0371 C.2       1 <0>         0.0930
     17 I1          2.6894   -6.1217   -0.0559 I         1 <0>         0.0524
     18 N3         -2.4822    0.0186    0.0254 N.pl3     1 <0>         0.0348
     19 O2         -3.5334   -0.5965    0.0321 O.2       1 <0>        -0.1784
     20 O3         -2.4893    1.2366    0.0316 O.3       1 <0>        -0.1253
     21 O4         -0.0164    1.3557    0.0095 O.3       1 <0>        -0.2822
     22 C13         1.2479    2.0217    0.0010 C.3       1 <0>         0.0193
     23 H2          8.0811   -1.1578    2.0166 H         1 <0>         0.0888
     24 H3          8.2514   -2.0427    3.5516 H         1 <0>         0.0934
     25 H4          8.3930   -2.9102    2.0038 H         1 <0>         0.0892
     26 H5          6.1959   -2.3866    0.5337 H         1 <0>         0.4024
     27 H6          3.7751   -1.9235    1.9128 H         1 <0>         0.0703
     28 H7          4.0870   -3.6759    1.9000 H         1 <0>         0.0705
     29 H8          4.2773   -3.6240   -0.5718 H         1 <0>         0.0868
     30 H9          3.9654   -1.8716   -0.5590 H         1 <0>         0.0888
     31 H10         2.1367   -0.1234   -0.0295 H         1 <0>         0.1541
     32 H11        -2.1305   -2.6313    0.0079 H         1 <0>         0.1632
     33 H12         1.8173    1.7317    0.8840 H         1 <0>         0.0617
     34 H13         1.8003    1.7412   -0.8958 H         1 <0>         0.0613
     35 H14         1.0905    3.1002    0.0083 H         1 <0>         0.1124
@<TRIPOS>BOND
     1    1    2 1
     2    1   23 1
     3    1   24 1
     4    1   25 1
     5    2    3 2
     6    2    4 am
     7    4    5 1
     8    4   26 1
     9    5    6 1
    10    5   27 1
    11    5   28 1
    12    6    7 1
    13    6   29 1
    14    6   30 1
    15    7   16 2
    16    7    8 1
    17    8   13 ar
    18    8    9 ar
    19    9   10 ar
    20    9   31 1
    21   10   11 ar
    22   10   21 1
    23   11   12 ar
    24   11   18 1
    25   12   13 ar
    26   12   32 1
    27   13   14 1
    28   14   15 1
    29   14   16 1
    30   16   17 1
    31   18   19 2
    32   18   20 1
    33   21   22 1
    34   22   33 1
    35   22   34 1
    36   22   35 1
@<TRIPOS>MOLECULE
ZINC13473200
   38    39     0     0     0
SMALL
USER_CHARGES
N-[2-(2-iodo-5-methoxy-1-methyl-6-nitro-indol-3-yl)ethyl]acetamide
@<TRIPOS>ATOM
      1 C1          0.1619    0.9601   -4.8946 C.3       1 <0>        -0.1754
      2 C2         -0.5435    1.4461   -3.6547 C.2       1 <0>         0.5098
      3 O1         -1.5399    2.1304   -3.7528 O.2       1 <0>        -0.5427
      4 N1         -0.0670    1.1202   -2.4368 N.am      1 <0>        -0.7340
      5 C3         -0.7527    1.5927   -1.2315 C.3       1 <0>         0.1227
      6 C4         -0.0127    1.0858    0.0080 C.3       1 <0>        -0.0640
      7 C5         -0.7181    1.5718    1.2479 C.2       1 <0>        -0.1335
      8 C6         -1.7926    0.8820    1.9657 C.ar      1 <0>        -0.0165
      9 C7         -2.4632   -0.3285    1.7763 C.ar      1 <0>        -0.1637
     10 C8         -3.4581   -0.7022    2.6573 C.ar      1 <0>         0.1646
     11 C9         -3.7913    0.1211    3.7299 C.ar      1 <0>        -0.0470
     12 C10        -3.1367    1.3164    3.9264 C.ar      1 <0>        -0.0149
     13 C11        -2.1319    1.7113    3.0496 C.ar      1 <0>         0.0746
     14 N2         -1.3152    2.8209    2.9833 N.pl3     1 <0>        -0.4599
     15 C12        -0.4765    2.7169    1.9074 C.2       1 <0>         0.0925
     16 I1          0.9673    4.1351    1.3661 I         1 <0>         0.0500
     17 C13        -1.3382    3.9407    3.9276 C.3       1 <0>         0.0626
     18 N3         -4.8597   -0.2925    4.6673 N.pl3     1 <0>         0.0353
     19 O2         -5.1561    0.4234    5.6071 O.2       1 <0>        -0.1798
     20 O3         -5.4425   -1.3487    4.4988 O.3       1 <0>        -0.1256
     21 O4         -4.1152   -1.8791    2.4772 O.3       1 <0>        -0.2825
     22 C14        -3.7240   -2.6758    1.3572 C.3       1 <0>         0.0196
     23 H1          0.1767   -0.1298   -4.9006 H         1 <0>         0.0888
     24 H2         -0.3653    1.3211   -5.7777 H         1 <0>         0.0933
     25 H3          1.1845    1.3373   -4.9023 H         1 <0>         0.0891
     26 H4          0.7300    0.5728   -2.3584 H         1 <0>         0.4023
     27 H5         -1.7753    1.2154   -1.2238 H         1 <0>         0.0701
     28 H6         -0.7675    2.6825   -1.2255 H         1 <0>         0.0700
     29 H7          0.0021   -0.0041    0.0020 H         1 <0>         0.0882
     30 H8          1.0099    1.4631    0.0003 H         1 <0>         0.0860
     31 H9         -2.2053   -0.9680    0.9450 H         1 <0>         0.1537
     32 H10        -3.4037    1.9475    4.7612 H         1 <0>         0.1610
     33 H11        -0.6467    3.7402    4.7460 H         1 <0>         0.0843
     34 H12        -1.0389    4.8548    3.4147 H         1 <0>         0.0914
     35 H13        -2.3462    4.0604    4.3248 H         1 <0>         0.0952
     36 H14        -3.8780   -2.1107    0.4379 H         1 <0>         0.0614
     37 H15        -2.6704   -2.9397    1.4493 H         1 <0>         0.0611
     38 H16        -4.3252   -3.5846    1.3301 H         1 <0>         0.1121
@<TRIPOS>BOND
     1    1    2 1
     2    1   23 1
     3    1   24 1
     4    1   25 1
     5    2    3 2
     6    2    4 am
     7    4    5 1
     8    4   26 1
     9    5    6 1
    10    5   27 1
    11    5   28 1
    12    6    7 1
    13    6   29 1
    14    6   30 1
    15    7   15 2
    16    7    8 1
    17    8   13 ar
    18    8    9 ar
    19    9   10 ar
    20    9   31 1
    21   10   11 ar
    22   10   21 1
    23   11   12 ar
    24   11   18 1
    25   12   13 ar
    26   12   32 1
    27   13   14 1
    28   14   15 1
    29   14   17 1
    30   15   16 1
    31   17   33 1
    32   17   34 1
    33   17   35 1
    34   18   19 2
    35   18   20 1
    36   21   22 1
    37   22   36 1
    38   22   37 1
    39   22   38 1
@<TRIPOS>MOLECULE
ZINC01530860
   50    51     0     0     0
SMALL
USER_CHARGES

@<TRIPOS>ATOM
      1 C1          0.0823    1.4510   -0.2163 C.3       1 <0>        -0.1903
      2 C2          0.0237   -0.0664   -0.0289 C.3       1 <0>        -0.0143
      3 N1         -1.3740   -0.4850    0.1418 N.4       1 <0>        -0.3869
      4 C3         -2.1159   -0.2330   -1.1009 C.3       1 <0>        -0.0160
      5 C4         -3.5996   -0.5332   -0.8788 C.3       1 <0>        -0.1889
      6 C5         -1.4206   -1.9189    0.4577 C.3       1 <0>        -0.0160
      7 C6         -0.7562   -2.1642    1.8139 C.3       1 <0>        -0.1531
      8 C7         -0.8047   -3.6576    2.1429 C.3       1 <0>        -0.1306
      9 C8         -0.1402   -3.9029    3.4991 C.3       1 <0>         0.1283
     10 H1         -0.6138   -3.2758    4.2544 H         1 <0>         0.1053
     11 C9         -0.2985   -5.3747    3.8858 C.3       1 <0>        -0.1803
     12 N2          1.2841   -3.5713    3.4121 N.pl3     1 <0>        -0.6786
     13 C10         1.9824   -3.2088    4.5537 C.ar      1 <0>         0.3547
     14 C11         1.3560   -3.1586    5.7895 C.ar      1 <0>        -0.2665
     15 C12         2.0821   -2.7926    6.9140 C.ar      1 <0>         0.2404
     16 N3          3.3577   -2.4886    6.8466 N.ar      1 <0>        -0.5038
     17 C13         4.0259   -2.5152    5.6879 C.ar      1 <0>         0.1857
     18 C14         3.3585   -2.8841    4.4953 C.ar      1 <0>        -0.1339
     19 C15         4.0649   -2.9157    3.2847 C.ar      1 <0>        -0.0505
     20 C16         5.3889   -2.5961    3.2686 C.ar      1 <0>        -0.1009
     21 C17         6.0512   -2.2380    4.4418 C.ar      1 <0>         0.0417
     22 C18         5.3910   -2.1860    5.6326 C.ar      1 <0>        -0.1402
     23 Cl1         7.7395   -1.8382    4.3823 Cl        1 <0>        -0.0018
     24 H2          1.1228    1.7753   -0.2311 H         1 <0>         0.1068
     25 H3         -0.3953    1.7194   -1.1586 H         1 <0>         0.0848
     26 H4         -0.4388    1.9392    0.6072 H         1 <0>         0.0802
     27 H5          0.4455   -0.5574   -0.9059 H         1 <0>         0.1304
     28 H6          0.5971   -0.3457    0.8550 H         1 <0>         0.1244
     29 H7         -1.9958    0.8109   -1.3904 H         1 <0>         0.1347
     30 H8         -1.7294   -0.8761   -1.8915 H         1 <0>         0.1309
     31 H9         -4.1656   -0.2421   -1.7637 H         1 <0>         0.1098
     32 H10        -3.7314   -1.6000   -0.6980 H         1 <0>         0.0800
     33 H11        -3.9590    0.0285   -0.0166 H         1 <0>         0.0802
     34 H12        -2.4588   -2.2488    0.4968 H         1 <0>         0.1375
     35 H13        -0.8905   -2.4782   -0.3132 H         1 <0>         0.1319
     36 H14         0.2820   -1.8343    1.7748 H         1 <0>         0.0832
     37 H15        -1.2864   -1.6049    2.5847 H         1 <0>         0.0927
     38 H16        -1.8428   -3.9875    2.1820 H         1 <0>         0.1078
     39 H17        -0.2745   -4.2169    1.3720 H         1 <0>         0.0895
     40 H18         0.1751   -6.0018    3.1304 H         1 <0>         0.0726
     41 H19         0.1749   -5.5495    4.8519 H         1 <0>         0.0711
     42 H20        -1.3582   -5.6215    3.9505 H         1 <0>         0.0881
     43 H21         1.7386   -3.6053    2.5558 H         1 <0>         0.4161
     44 H22         0.3076   -3.4029    5.8765 H         1 <0>         0.1793
     45 H23         1.5839   -2.7565    7.8715 H         1 <0>         0.2103
     46 H24         3.5620   -3.1923    2.3699 H         1 <0>         0.1509
     47 H25         5.9323   -2.6207    2.3356 H         1 <0>         0.1625
     48 H26         5.9179   -1.9061    6.5327 H         1 <0>         0.1693
     49 H27        -1.7925    0.0392    0.8955 H         1 <0>         0.4223
     50 H28         3.8273   -2.2380    7.6575 H         1 <0>         0.4488
@<TRIPOS>BOND
     1    1    2 1
     2    1   24 1
     3    1   25 1
     4    1   26 1
     5    2    3 1
     6    2   27 1
     7    2   28 1
     8    3    4 1
     9    3    6 1
    10    3   49 1
    11    4    5 1
    12    4   29 1
    13    4   30 1
    14    5   31 1
    15    5   32 1
    16    5   33 1
    17    6    7 1
    18    6   34 1
    19    6   35 1
    20    7    8 1
    21    7   36 1
    22    7   37 1
    23    8    9 1
    24    8   38 1
    25    8   39 1
    26    9   10 1
    27    9   11 1
    28    9   12 1
    29   11   40 1
    30   11   41 1
    31   11   42 1
    32   12   13 1
    33   12   43 1
    34   13   18 ar
    35   13   14 ar
    36   14   15 ar
    37   14   44 1
    38   15   16 ar
    39   15   45 1
    40   16   17 ar
    41   16   50 1
    42   17   22 ar
    43   17   18 ar
    44   18   19 ar
    45   19   20 ar
    46   19   46 1
    47   20   21 ar
    48   20   47 1
    49   21   22 ar
    50   21   23 1
    51   22   48 1
@<TRIPOS>MOLECULE
ZINC01530861
   50    51     0     0     0
SMALL
USER_CHARGES

@<TRIPOS>ATOM
      1 C1          0.0823    1.4510   -0.2163 C.3       1 <0>        -0.1898
      2 C2          0.0237   -0.0664   -0.0289 C.3       1 <0>        -0.0154
      3 N1         -1.3740   -0.4850    0.1418 N.4       1 <0>        -0.3864
      4 C3         -2.1159   -0.2330   -1.1009 C.3       1 <0>        -0.0167
      5 C4         -3.5996   -0.5332   -0.8788 C.3       1 <0>        -0.1881
      6 C5         -1.4206   -1.9189    0.4577 C.3       1 <0>        -0.0162
      7 C6         -0.7562   -2.1642    1.8139 C.3       1 <0>        -0.1531
      8 C7         -0.8047   -3.6576    2.1429 C.3       1 <0>        -0.1307
      9 C8         -0.1402   -3.9029    3.4991 C.3       1 <0>         0.1285
     10 H1          0.8696   -3.4928    3.4883 H         1 <0>         0.1049
     11 C9         -0.0770   -5.4071    3.7714 C.3       1 <0>        -0.1802
     12 N2         -0.9219   -3.2486    4.5513 N.pl3     1 <0>        -0.6784
     13 C10        -0.3101   -2.8735    5.7376 C.ar      1 <0>         0.3550
     14 C11         1.0409   -3.1017    5.9489 C.ar      1 <0>        -0.2671
     15 C12         1.6245   -2.7142    7.1468 C.ar      1 <0>         0.2403
     16 N3          0.9324   -2.1317    8.0984 N.ar      1 <0>        -0.5038
     17 C13        -0.3748   -1.8810    7.9634 C.ar      1 <0>         0.1856
     18 C14        -1.0437   -2.2401    6.7687 C.ar      1 <0>        -0.1339
     19 C15        -2.4124   -1.9700    6.6303 C.ar      1 <0>        -0.0501
     20 C16        -3.0847   -1.3591    7.6453 C.ar      1 <0>        -0.1009
     21 C17        -2.4283   -0.9984    8.8210 C.ar      1 <0>         0.0418
     22 C18        -1.1016   -1.2576    8.9919 C.ar      1 <0>        -0.1403
     23 Cl1        -3.3181   -0.2204   10.0925 Cl        1 <0>        -0.0018
     24 H2          1.1228    1.7753   -0.2311 H         1 <0>         0.1081
     25 H3         -0.3953    1.7194   -1.1586 H         1 <0>         0.0841
     26 H4         -0.4388    1.9392    0.6072 H         1 <0>         0.0786
     27 H5          0.4455   -0.5574   -0.9059 H         1 <0>         0.1320
     28 H6          0.5971   -0.3457    0.8550 H         1 <0>         0.1275
     29 H7         -1.9958    0.8109   -1.3904 H         1 <0>         0.1349
     30 H8         -1.7294   -0.8761   -1.8915 H         1 <0>         0.1320
     31 H9         -4.1656   -0.2421   -1.7637 H         1 <0>         0.1099
     32 H10        -3.7314   -1.6000   -0.6980 H         1 <0>         0.0794
     33 H11        -3.9590    0.0285   -0.0166 H         1 <0>         0.0786
     34 H12        -2.4588   -2.2488    0.4968 H         1 <0>         0.1346
     35 H13        -0.8905   -2.4782   -0.3132 H         1 <0>         0.1347
     36 H14         0.2820   -1.8343    1.7748 H         1 <0>         0.0929
     37 H15        -1.2864   -1.6049    2.5847 H         1 <0>         0.0830
     38 H16        -1.8428   -3.9875    2.1820 H         1 <0>         0.0897
     39 H17        -0.2745   -4.2169    1.3720 H         1 <0>         0.1076
     40 H18        -1.0868   -5.8172    3.7821 H         1 <0>         0.0727
     41 H19         0.5046   -5.8940    2.9885 H         1 <0>         0.0879
     42 H20         0.3964   -5.5819    4.7375 H         1 <0>         0.0711
     43 H21        -1.8674   -3.0779    4.4180 H         1 <0>         0.4164
     44 H22         1.6364   -3.5792    5.1848 H         1 <0>         0.1791
     45 H23         2.6777   -2.8972    7.3008 H         1 <0>         0.2102
     46 H24        -2.9309   -2.2445    5.7235 H         1 <0>         0.1511
     47 H25        -4.1391   -1.1514    7.5378 H         1 <0>         0.1626
     48 H26        -0.6074   -0.9726    9.9090 H         1 <0>         0.1693
     49 H27        -1.7925    0.0392    0.8955 H         1 <0>         0.4199
     50 H28         1.3801   -1.8771    8.9203 H         1 <0>         0.4488
@<TRIPOS>BOND
     1    1    2 1
     2    1   24 1
     3    1   25 1
     4    1   26 1
     5    2    3 1
     6    2   27 1
     7    2   28 1
     8    3    4 1
     9    3    6 1
    10    3   49 1
    11    4    5 1
    12    4   29 1
    13    4   30 1
    14    5   31 1
    15    5   32 1
    16    5   33 1
    17    6    7 1
    18    6   34 1
    19    6   35 1
    20    7    8 1
    21    7   36 1
    22    7   37 1
    23    8    9 1
    24    8   38 1
    25    8   39 1
    26    9   10 1
    27    9   11 1
    28    9   12 1
    29   11   40 1
    30   11   41 1
    31   11   42 1
    32   12   13 1
    33   12   43 1
    34   13   18 ar
    35   13   14 ar
    36   14   15 ar
    37   14   44 1
    38   15   16 ar
    39   15   45 1
    40   16   17 ar
    41   16   50 1
    42   17   22 ar
    43   17   18 ar
    44   18   19 ar
    45   19   20 ar
    46   19   46 1
    47   20   21 ar
    48   20   47 1
    49   21   22 ar
    50   21   23 1
    51   22   48 1
