@<TRIPOS>MOLECULE
ZINC13831232
   73    76     0     0     0
SMALL
USER_CHARGES

@<TRIPOS>ATOM
      1 C1         -2.8057    1.8891   -0.0210 C.3       1 <0>         0.0903
      2 N1         -2.5605    0.4471    0.0611 N.pl3     1 <0>        -0.6360
      3 C2         -2.6548   -0.2396    1.3517 C.3       1 <0>         0.0904
      4 C3         -2.2370   -0.2724   -1.0902 C.ar      1 <0>         0.2218
      5 C4         -2.0102   -1.6417   -1.0121 C.ar      1 <0>        -0.1978
      6 C5         -1.6906   -2.3543   -2.1481 C.ar      1 <0>        -0.0550
      7 C6         -1.5954   -1.7009   -3.3758 C.ar      1 <0>        -0.1153
      8 C7         -1.8237   -0.3278   -3.4520 C.ar      1 <0>        -0.0548
      9 C8         -2.1478    0.3802   -2.3144 C.ar      1 <0>        -0.1975
     10 C9         -1.2511   -2.4656   -4.5995 C.ar      1 <0>        -0.0131
     11 C10        -1.0278   -3.8393   -4.5261 C.ar      1 <0>        -0.1193
     12 C11        -0.7083   -4.5458   -5.6678 C.ar      1 <0>        -0.0986
     13 C12        -0.6091   -3.8929   -6.8832 C.ar      1 <0>        -0.1237
     14 C13        -0.8293   -2.5295   -6.9619 C.ar      1 <0>        -0.0931
     15 C14        -1.1555   -1.8140   -5.8277 C.ar      1 <0>        -0.1181
     16 C15        -0.2594   -4.6697   -8.1263 C.3       1 <0>         0.1279
     17 N2         -1.4868   -5.1660   -8.7535 N.am      1 <0>        -0.5443
     18 C16        -2.2246   -4.3335   -9.6027 C.ar      1 <0>         0.1543
     19 C17        -3.4688   -4.7434  -10.0689 C.ar      1 <0>        -0.1496
     20 C18        -4.2030   -3.9256  -10.9077 C.ar      1 <0>        -0.0990
     21 C19        -3.7068   -2.6962  -11.2889 C.ar      1 <0>        -0.1192
     22 C20        -2.4565   -2.2735  -10.8262 C.ar      1 <0>        -0.0621
     23 C21        -1.7176   -3.0990   -9.9739 C.ar      1 <0>        -0.1334
     24 C22        -1.9233   -0.9627  -11.2308 C.2       1 <0>         0.0021
     25 C23        -2.6409   -0.1661  -12.0498 C.2       1 <0>        -0.1974
     26 C24        -2.1111    1.1362  -12.4518 C.2       1 <0>         0.4960
     27 O1         -1.0235    1.5013  -12.0480 O.2       1 <0>        -0.5121
     28 O2         -2.8287    1.9327  -13.2707 O.3       1 <0>        -0.3505
     29 C25        -2.2501    3.1911  -13.6225 C.3       1 <0>         0.0340
     30 C26        -1.9055   -6.4242   -8.5127 C.2       1 <0>         0.5234
     31 O3         -2.9644   -6.8076   -8.9629 O.2       1 <0>        -0.5083
     32 C27        -1.0578   -7.3548   -7.6841 C.3       1 <0>        -0.1086
     33 C28         0.2177   -7.7040   -8.4535 C.3       1 <0>        -0.1188
     34 C29         1.0783   -8.6487   -7.6122 C.3       1 <0>        -0.1178
     35 C30         0.2931   -9.9287   -7.3188 C.3       1 <0>        -0.1233
     36 C31        -0.9825   -9.5795   -6.5494 C.3       1 <0>        -0.1200
     37 C32        -1.8430   -8.6347   -7.3907 C.3       1 <0>        -0.1006
     38 H1         -1.8687    2.4260    0.1269 H         1 <0>         0.0503
     39 H2         -3.2132    2.1331   -1.0021 H         1 <0>         0.0700
     40 H3         -3.5176    2.1812    0.7510 H         1 <0>         0.0682
     41 H4         -3.6760   -0.5892    1.5035 H         1 <0>         0.0502
     42 H5         -1.9743   -1.0910    1.3609 H         1 <0>         0.0700
     43 H6         -2.3844    0.4504    2.1510 H         1 <0>         0.0681
     44 H7         -2.0841   -2.1476   -0.0608 H         1 <0>         0.1250
     45 H8         -1.5138   -3.4180   -2.0869 H         1 <0>         0.1244
     46 H9         -1.7500    0.1804   -4.4022 H         1 <0>         0.1245
     47 H10        -2.3284    1.4434   -2.3736 H         1 <0>         0.1251
     48 H11        -1.1042   -4.3499   -3.5775 H         1 <0>         0.1260
     49 H12        -0.5350   -5.6103   -5.6121 H         1 <0>         0.1221
     50 H13        -0.7502   -2.0248   -7.9134 H         1 <0>         0.1238
     51 H14        -1.3315   -0.7503   -5.8910 H         1 <0>         0.1258
     52 H15         0.2683   -4.0199   -8.8244 H         1 <0>         0.0959
     53 H16         0.3791   -5.5122   -7.8606 H         1 <0>         0.1109
     54 H17        -3.8631   -5.7048   -9.7747 H         1 <0>         0.1848
     55 H18        -5.1685   -4.2507  -11.2662 H         1 <0>         0.1300
     56 H19        -4.2834   -2.0606  -11.9446 H         1 <0>         0.1288
     57 H20        -0.7532   -2.7773   -9.6095 H         1 <0>         0.1312
     58 H21        -0.9575   -0.6385  -10.8722 H         1 <0>         0.1374
     59 H22        -3.6066   -0.4903  -12.4084 H         1 <0>         0.1440
     60 H23        -2.0789    3.7774  -12.7197 H         1 <0>         0.0611
     61 H24        -1.3015    3.0248  -14.1330 H         1 <0>         0.0612
     62 H25        -2.9285    3.7309  -14.2832 H         1 <0>         0.1034
     63 H26        -0.7941   -6.8672   -6.7455 H         1 <0>         0.1005
     64 H27        -0.0461   -8.1915   -9.3920 H         1 <0>         0.0731
     65 H28         0.7771   -6.7921   -8.6624 H         1 <0>         0.0727
     66 H29         1.9870   -8.8975   -8.1603 H         1 <0>         0.0691
     67 H30         1.3420   -8.1612   -6.6737 H         1 <0>         0.0657
     68 H31         0.0293  -10.4163   -8.2574 H         1 <0>         0.0641
     69 H32         0.9061  -10.6018   -6.7195 H         1 <0>         0.0649
     70 H33        -1.5419  -10.4914   -6.3405 H         1 <0>         0.0681
     71 H34        -0.7187   -9.0919   -5.6109 H         1 <0>         0.0630
     72 H35        -2.7518   -8.3860   -6.8426 H         1 <0>         0.0695
     73 H36        -2.1068   -9.1223   -8.3292 H         1 <0>         0.0741
@<TRIPOS>BOND
     1    1    2 1
     2    1   38 1
     3    1   39 1
     4    1   40 1
     5    2    3 1
     6    2    4 1
     7    3   41 1
     8    3   42 1
     9    3   43 1
    10    4    9 ar
    11    4    5 ar
    12    5    6 ar
    13    5   44 1
    14    6    7 ar
    15    6   45 1
    16    7    8 ar
    17    7   10 1
    18    8    9 ar
    19    8   46 1
    20    9   47 1
    21   10   15 ar
    22   10   11 ar
    23   11   12 ar
    24   11   48 1
    25   12   13 ar
    26   12   49 1
    27   13   14 ar
    28   13   16 1
    29   14   15 ar
    30   14   50 1
    31   15   51 1
    32   16   17 1
    33   16   52 1
    34   16   53 1
    35   17   18 1
    36   17   30 am
    37   18   23 ar
    38   18   19 ar
    39   19   20 ar
    40   19   54 1
    41   20   21 ar
    42   20   55 1
    43   21   22 ar
    44   21   56 1
    45   22   23 ar
    46   22   24 1
    47   23   57 1
    48   24   25 2
    49   24   58 1
    50   25   26 1
    51   25   59 1
    52   26   27 2
    53   26   28 1
    54   28   29 1
    55   29   60 1
    56   29   61 1
    57   29   62 1
    58   30   31 2
    59   30   32 1
    60   32   37 1
    61   32   33 1
    62   32   63 1
    63   33   34 1
    64   33   64 1
    65   33   65 1
    66   34   35 1
    67   34   66 1
    68   34   67 1
    69   35   36 1
    70   35   68 1
    71   35   69 1
    72   36   37 1
    73   36   70 1
    74   36   71 1
    75   37   72 1
    76   37   73 1
@<TRIPOS>MOLECULE
ZINC03914808
   67    70     0     0     0
SMALL
USER_CHARGES

@<TRIPOS>ATOM
      1 C1         -0.2212    1.5072    0.1531 C.3       1 <0>        -0.1505
      2 C2          0.0016    0.0010    0.0027 C.3       1 <0>        -0.0879
      3 H1          0.5215   -0.1976   -0.9345 H         1 <0>         0.0686
      4 C3         -1.3498   -0.7165   -0.0018 C.3       1 <0>        -0.0882
      5 C4         -2.1447   -0.2991   -1.2407 C.3       1 <0>        -0.1820
      6 C5         -3.4757   -1.0058   -1.2451 C.2       1 <0>         0.4869
      7 O1         -3.7620   -1.7722   -0.3411 O.co2     1 <0>        -0.7002
      8 O2         -4.2663   -0.8111   -2.1526 O.co2     1 <0>        -0.7118
      9 C6          0.8459   -0.5090    1.1723 C.3       1 <0>        -0.0692
     10 H2          0.3732   -0.2502    2.1197 H         1 <0>         0.0671
     11 C7          1.0357   -2.0430    1.0685 C.3       1 <0>        -0.1205
     12 C8          2.5681   -2.2933    1.0317 C.3       1 <0>        -0.1149
     13 C9          3.1358   -1.0444    1.7148 C.3       1 <0>        -0.0768
     14 H3          2.9879   -1.1011    2.7932 H         1 <0>         0.0787
     15 C10         2.2516    0.0786    1.1050 C.3       1 <0>        -0.0553
     16 C11         2.4977    1.3405    1.9084 C.3       1 <0>        -0.1063
     17 C12         3.9687    1.7373    1.6975 C.3       1 <0>        -0.1179
     18 C13         4.9117    0.6122    2.1096 C.3       1 <0>        -0.0691
     19 H4          4.8124    0.4442    3.1820 H         1 <0>         0.0823
     20 C14         4.5826   -0.7160    1.3974 C.3       1 <0>        -0.0663
     21 H5          4.7037   -0.5876    0.3217 H         1 <0>         0.0887
     22 C15         5.5046   -1.8218    1.9133 C.3       1 <0>         0.1121
     23 H6          5.2668   -2.7581    1.4084 H         1 <0>         0.0541
     24 C16         6.9603   -1.4452    1.6304 C.3       1 <0>        -0.1495
     25 C17         7.2959   -0.1318    2.3400 C.3       1 <0>        -0.0655
     26 H7          8.3338    0.1349    2.1405 H         1 <0>         0.0601
     27 C18         6.3582    1.0021    1.8026 C.3       1 <0>        -0.0494
     28 C19         6.6940    2.3138    2.5159 C.3       1 <0>        -0.1069
     29 C20         6.5085    2.1339    4.0240 C.3       1 <0>        -0.1518
     30 C21         7.4413    1.0291    4.5246 C.3       1 <0>         0.1055
     31 H8          8.4752    1.3053    4.3178 H         1 <0>         0.0438
     32 C22         7.0925   -0.3015    3.8471 C.3       1 <0>        -0.1353
     33 O3          7.2661    0.8597    5.9326 O.3       1 <0>        -0.5693
     34 C23         6.5311    1.1775    0.2925 C.3       1 <0>        -0.1471
     35 O4          5.3182   -1.9791    3.3213 O.3       1 <0>        -0.5488
     36 C24         2.6458    0.3108   -0.3550 C.3       1 <0>        -0.1507
     37 H9          0.7426    2.0125    0.2156 H         1 <0>         0.0545
     38 H10        -0.7722    1.8810   -0.7099 H         1 <0>         0.0530
     39 H11        -0.7926    1.7011    1.0608 H         1 <0>         0.0492
     40 H12        -1.1888   -1.7944   -0.0195 H         1 <0>         0.0599
     41 H13        -1.9072   -0.4470    0.8953 H         1 <0>         0.0545
     42 H14        -2.3056    0.7788   -1.2230 H         1 <0>         0.0552
     43 H15        -1.5873   -0.5686   -2.1378 H         1 <0>         0.0511
     44 H16         0.5972   -2.5338    1.9374 H         1 <0>         0.0601
     45 H17         0.5736   -2.4162    0.1546 H         1 <0>         0.0698
     46 H18         2.8259   -3.1911    1.5935 H         1 <0>         0.0576
     47 H19         2.9226   -2.3654    0.0035 H         1 <0>         0.0608
     48 H20         1.8441    2.1382    1.5555 H         1 <0>         0.0670
     49 H21         2.3131    1.1490    2.9655 H         1 <0>         0.0593
     50 H22         4.1282    1.9688    0.6444 H         1 <0>         0.0658
     51 H23         4.1882    2.6230    2.2936 H         1 <0>         0.0574
     52 H24         7.6173   -2.2341    1.9968 H         1 <0>         0.0618
     53 H25         7.1021   -1.3244    0.5565 H         1 <0>         0.0736
     54 H26         7.7283    2.5869    2.3068 H         1 <0>         0.0575
     55 H27         6.0304    3.1017    2.1594 H         1 <0>         0.0687
     56 H28         6.7456    3.0680    4.5332 H         1 <0>         0.0573
     57 H29         5.4747    1.8587    4.2326 H         1 <0>         0.0768
     58 H30         6.0547   -0.5693    4.0456 H         1 <0>         0.1315
     59 H31         7.7479   -1.0907    4.2154 H         1 <0>         0.0565
     60 H32         7.4590    1.6528    6.4512 H         1 <0>         0.3709
     61 H33         5.8612    1.9612   -0.0613 H         1 <0>         0.0597
     62 H34         7.5623    1.4554    0.0747 H         1 <0>         0.0497
     63 H35         6.2929    0.2410   -0.2117 H         1 <0>         0.0602
     64 H36         5.8724   -2.6655    3.7172 H         1 <0>         0.3719
     65 H37         2.0126    1.0878   -0.7831 H         1 <0>         0.0613
     66 H38         3.6887    0.6238   -0.4044 H         1 <0>         0.0558
     67 H39         2.5169   -0.6139   -0.9176 H         1 <0>         0.0549
@<TRIPOS>BOND
     1    1    2 1
     2    1   37 1
     3    1   38 1
     4    1   39 1
     5    2    3 1
     6    2    4 1
     7    2    9 1
     8    4    5 1
     9    4   40 1
    10    4   41 1
    11    5    6 1
    12    5   42 1
    13    5   43 1
    14    6    7 2
    15    6    8 1
    16    9   10 1
    17    9   15 1
    18    9   11 1
    19   11   12 1
    20   11   44 1
    21   11   45 1
    22   12   13 1
    23   12   46 1
    24   12   47 1
    25   13   14 1
    26   13   20 1
    27   13   15 1
    28   15   16 1
    29   15   36 1
    30   16   17 1
    31   16   48 1
    32   16   49 1
    33   17   18 1
    34   17   50 1
    35   17   51 1
    36   18   19 1
    37   18   27 1
    38   18   20 1
    39   20   21 1
    40   20   22 1
    41   22   23 1
    42   22   24 1
    43   22   35 1
    44   24   25 1
    45   24   52 1
    46   24   53 1
    47   25   26 1
    48   25   32 1
    49   25   27 1
    50   27   28 1
    51   27   34 1
    52   28   29 1
    53   28   54 1
    54   28   55 1
    55   29   30 1
    56   29   56 1
    57   29   57 1
    58   30   31 1
    59   30   32 1
    60   30   33 1
    61   32   58 1
    62   32   59 1
    63   33   60 1
    64   34   61 1
    65   34   62 1
    66   34   63 1
    67   35   64 1
    68   36   65 1
    69   36   66 1
    70   36   67 1
@<TRIPOS>MOLECULE
ZINC01548806
   57    60     0     0     0
SMALL
USER_CHARGES

@<TRIPOS>ATOM
      1 C1         -1.2254    9.4926    1.2731 C.3       1 <0>        -0.1499
      2 C2         -1.4853    8.7109   -0.0163 C.3       1 <0>        -0.0165
      3 C3         -1.0413    9.5474   -1.2180 C.3       1 <0>        -0.1514
      4 C4         -0.7071    7.4208    0.0129 C.2       1 <0>         0.0139
      5 C5         -1.2152    6.1697   -0.0575 C.2       1 <0>        -0.1850
      6 C6         -0.0688    5.3296    0.0142 C.2       1 <0>         0.0708
      7 N1          0.9637    6.1305    0.1076 N.2       1 <0>        -0.3318
      8 O1          0.6239    7.2909    0.1079 O.3       1 <0>         0.1164
      9 C7         -0.0469    3.8463   -0.0169 C.ar      1 <0>        -0.0051
     10 C8         -0.5843    3.1610   -1.1059 C.ar      1 <0>        -0.0093
     11 C9         -0.5605    1.7798   -1.1293 C.ar      1 <0>        -0.1037
     12 C10        -0.0051    1.0770   -0.0755 C.ar      1 <0>        -0.0817
     13 C11         0.5243    1.7509    1.0099 C.ar      1 <0>        -0.1042
     14 C12         0.5116    3.1320    1.0424 C.ar      1 <0>        -0.0013
     15 Cl1         1.1832    3.9763    2.4025 Cl        1 <0>        -0.0392
     16 Cl2        -1.2813    4.0414   -2.4297 Cl        1 <0>        -0.0449
     17 C13        -2.6603    5.7600   -0.1802 C.3       1 <0>         0.1349
     18 O2         -3.2600    5.7351    1.1167 O.3       1 <0>        -0.3023
     19 C14        -4.5703    5.3828    1.1835 C.ar      1 <0>         0.1338
     20 C15        -5.2135    5.3389    2.4143 C.ar      1 <0>        -0.1371
     21 C16        -6.5423    4.9827    2.4879 C.ar      1 <0>        -0.0680
     22 C17        -7.2444    4.6649    1.3216 C.ar      1 <0>        -0.0608
     23 C18        -6.5931    4.7104    0.0845 C.ar      1 <0>         0.0074
     24 C19        -5.2638    5.0734    0.0211 C.ar      1 <0>        -0.1991
     25 Cl3        -7.4577    4.3172   -1.3686 Cl        1 <0>        -0.0611
     26 C20        -8.6656    4.2839    1.3950 C.2       1 <0>        -0.1446
     27 C21        -9.2888    4.2414    2.5837 C.2       1 <0>        -0.0643
     28 C22       -10.7107    3.8602    2.6572 C.ar      1 <0>        -0.0933
     29 C23       -11.4127    3.5424    1.4901 C.ar      1 <0>        -0.1088
     30 C24       -12.7443    3.1858    1.5576 C.ar      1 <0>        -0.1417
     31 C25       -13.3927    3.1392    2.7761 C.ar      1 <0>        -0.0675
     32 C26       -12.7042    3.4531    3.9505 C.ar      1 <0>        -0.1171
     33 C27       -11.3583    3.8100    3.8914 C.ar      1 <0>        -0.0640
     34 C28       -13.4001    3.4021    5.2529 C.2       1 <0>         0.4890
     35 O3        -12.8002    3.6753    6.2732 O.co2     1 <0>        -0.6308
     36 H1         -1.7884   10.4257    1.2520 H         1 <0>         0.0720
     37 H2         -1.5418    8.8967    2.1292 H         1 <0>         0.0641
     38 H3         -0.1611    9.7121    1.3566 H         1 <0>         0.0643
     39 H4         -2.5497    8.4914   -0.0998 H         1 <0>         0.1044
     40 H5         -1.2265    8.9905   -2.1366 H         1 <0>         0.0603
     41 H6         -1.6042   10.4805   -1.2391 H         1 <0>         0.0726
     42 H7          0.0231    9.7669   -1.1345 H         1 <0>         0.0655
     43 H8         -0.9761    1.2479   -1.9723 H         1 <0>         0.1481
     44 H9          0.0112   -0.0026   -0.0984 H         1 <0>         0.1492
     45 H10         0.9527    1.1965    1.8319 H         1 <0>         0.1476
     46 H11        -3.1884    6.4750   -0.8110 H         1 <0>         0.0790
     47 H12        -2.7199    4.7676   -0.6271 H         1 <0>         0.0810
     48 H13        -4.6708    5.5848    3.3151 H         1 <0>         0.1379
     49 H14        -7.0408    4.9487    3.4454 H         1 <0>         0.1448
     50 H15        -4.7607    5.1132   -0.9338 H         1 <0>         0.1356
     51 H16        -9.2063    4.0388    0.4928 H         1 <0>         0.1282
     52 H17        -8.7481    4.4866    3.4859 H         1 <0>         0.1210
     53 H18       -10.9118    3.5764    0.5338 H         1 <0>         0.1173
     54 H19       -13.2817    2.9417    0.6532 H         1 <0>         0.1183
     55 H20       -14.4348    2.8589    2.8212 H         1 <0>         0.1312
     56 H21       -10.8202    4.0497    4.7966 H         1 <0>         0.1293
     57 O4        -14.6998    3.0525    5.3088 O.co2     1 <0>        -0.7535
@<TRIPOS>BOND
     1    1    2 1
     2    1   36 1
     3    1   37 1
     4    1   38 1
     5    2    3 1
     6    2    4 1
     7    2   39 1
     8    3   40 1
     9    3   41 1
    10    3   42 1
    11    4    8 1
    12    4    5 2
    13    5    6 1
    14    5   17 1
    15    6    7 2
    16    6    9 1
    17    7    8 1
    18    9   14 ar
    19    9   10 ar
    20   10   11 ar
    21   10   16 1
    22   11   12 ar
    23   11   43 1
    24   12   13 ar
    25   12   44 1
    26   13   14 ar
    27   13   45 1
    28   14   15 1
    29   17   18 1
    30   17   46 1
    31   17   47 1
    32   18   19 1
    33   19   24 ar
    34   19   20 ar
    35   20   21 ar
    36   20   48 1
    37   21   22 ar
    38   21   49 1
    39   22   23 ar
    40   22   26 1
    41   23   24 ar
    42   23   25 1
    43   24   50 1
    44   26   27 2
    45   26   51 1
    46   27   28 1
    47   27   52 1
    48   28   33 ar
    49   28   29 ar
    50   29   30 ar
    51   29   53 1
    52   30   31 ar
    53   30   54 1
    54   31   32 ar
    55   31   55 1
    56   32   33 ar
    57   32   34 1
    58   33   56 1
    59   34   35 2
    60   34   57 1
@<TRIPOS>MOLECULE
ZINC14164617
   73    76     0     0     0
SMALL
USER_CHARGES
(4R)-4-[(3R,5S,6R,7R,8S,9S,10S,13R,14S,17R)-6-ethyl-3,7-dihydroxy-10,13-dimethyl-2,3,4,5,6,7,8,9,11,12,14,15,16,17-tetradecahydro-1H-cyclopenta[a]phenanthren-17-yl]pentanoic acid
@<TRIPOS>ATOM
      1 C1         -4.6337    0.1237    3.0095 C.3       1 <0>        -0.1578
      2 C2         -3.9435   -0.2629    1.6998 C.3       1 <0>        -0.1246
      3 C3         -2.5325    0.3279    1.6732 C.3       1 <0>        -0.1158
      4 H1         -2.5867    1.4044    1.8355 H         1 <0>         0.0806
      5 C4         -1.8888    0.0492    0.3135 C.3       1 <0>        -0.0564
      6 H2         -2.4875    0.5085   -0.4731 H         1 <0>         0.0608
      7 C5         -1.8161   -1.4619    0.0844 C.3       1 <0>        -0.1381
      8 C6         -1.1730   -1.7419   -1.2752 C.3       1 <0>         0.1057
      9 H3         -1.7728   -1.2844   -2.0620 H         1 <0>         0.0413
     10 C7          0.2389   -1.1531   -1.3026 C.3       1 <0>        -0.1522
     11 C8          0.1674    0.3600   -1.0731 C.3       1 <0>        -0.1063
     12 C9         -0.4755    0.6359    0.2878 C.3       1 <0>        -0.0492
     13 C10         0.3633   -0.0139    1.3891 C.3       1 <0>        -0.0664
     14 H4          0.3782   -1.0923    1.2307 H         1 <0>         0.0829
     15 C11         1.7976    0.4991    1.3239 C.3       1 <0>        -0.1192
     16 C12         2.6463   -0.0615    2.4776 C.3       1 <0>        -0.1056
     17 C13         1.9657    0.3366    3.7724 C.3       1 <0>        -0.0559
     18 C14         0.5866   -0.3760    3.8111 C.3       1 <0>        -0.0760
     19 H5          0.7009   -1.4397    3.6024 H         1 <0>         0.0798
     20 C15        -0.2808    0.2793    2.7530 C.3       1 <0>        -0.0672
     21 H6         -0.3151    1.3559    2.9201 H         1 <0>         0.0904
     22 C16        -1.6908   -0.3126    2.7789 C.3       1 <0>         0.1161
     23 H7         -2.1506   -0.1138    3.7470 H         1 <0>         0.0565
     24 O1         -1.6190   -1.7238    2.5663 O.3       1 <0>        -0.5474
     25 C17         0.1587   -0.1434    5.2643 C.3       1 <0>        -0.1141
     26 C18         1.4733   -0.3819    6.0562 C.3       1 <0>        -0.1208
     27 C19         2.6343   -0.1232    5.0637 C.3       1 <0>        -0.0692
     28 H8          3.1961   -1.0413    4.8920 H         1 <0>         0.0675
     29 C20         3.5576    0.9718    5.6017 C.3       1 <0>        -0.0867
     30 H9          2.9976    1.9013    5.7042 H         1 <0>         0.0702
     31 C21         4.7204    1.1814    4.6297 C.3       1 <0>        -0.1513
     32 C22         4.1041    0.5524    6.9678 C.3       1 <0>        -0.0939
     33 C23         4.9265    1.6978    7.5616 C.3       1 <0>        -0.1568
     34 C24         5.4648    1.2847    8.9072 C.2       1 <0>         0.4566
     35 O2          5.2162    0.1868    9.3463 O.co2     1 <0>        -0.6426
     36 C25         1.7653    1.8530    3.8062 C.3       1 <0>        -0.1521
     37 C26        -0.5452    2.1462    0.5228 C.3       1 <0>        -0.1495
     38 O3         -1.1047   -3.1533   -1.4882 O.3       1 <0>        -0.5682
     39 H10        -4.0607   -0.2659    3.8509 H         1 <0>         0.0567
     40 H11        -4.6931    1.2097    3.0820 H         1 <0>         0.0544
     41 H12        -5.6390   -0.2972    3.0284 H         1 <0>         0.0535
     42 H13        -4.5165    0.1267    0.8584 H         1 <0>         0.0629
     43 H14        -3.8842   -1.3489    1.6272 H         1 <0>         0.0649
     44 H15        -1.2167   -1.9201    0.8711 H         1 <0>         0.1292
     45 H16        -2.8221   -1.8810    0.1037 H         1 <0>         0.0581
     46 H17         0.8390   -1.6114   -0.5165 H         1 <0>         0.0765
     47 H18         0.6967   -1.3518   -2.2717 H         1 <0>         0.0564
     48 H19        -0.4325    0.8198   -1.8584 H         1 <0>         0.0574
     49 H20         1.1734    0.7793   -1.0915 H         1 <0>         0.0686
     50 H21         2.2416    0.1974    0.3752 H         1 <0>         0.0568
     51 H22         1.7902    1.5875    1.3828 H         1 <0>         0.0656
     52 H23         3.6496    0.3629    2.4402 H         1 <0>         0.0661
     53 H24         2.7004   -1.1478    2.4058 H         1 <0>         0.0591
     54 H25        -2.4788   -2.1664    2.5702 H         1 <0>         0.3696
     55 H26        -0.1954    0.8781    5.4033 H         1 <0>         0.0612
     56 H27        -0.6059   -0.8614    5.5609 H         1 <0>         0.0577
     57 H28         1.5115   -1.4098    6.4169 H         1 <0>         0.0600
     58 H29         1.5368    0.3112    6.8950 H         1 <0>         0.0693
     59 H30         4.3348    1.5302    3.6717 H         1 <0>         0.0543
     60 H31         5.4057    1.9244    5.0378 H         1 <0>         0.0554
     61 H32         5.2492    0.2390    4.4871 H         1 <0>         0.0494
     62 H33         3.2744    0.3172    7.6345 H         1 <0>         0.0612
     63 H34         4.7372   -0.3272    6.8514 H         1 <0>         0.0560
     64 H35         5.7562    1.9329    6.8950 H         1 <0>         0.0625
     65 H36         4.2934    2.5774    7.6780 H         1 <0>         0.0585
     66 H37         1.2326    2.1290    4.7162 H         1 <0>         0.0551
     67 H38         2.7362    2.3483    3.7892 H         1 <0>         0.0619
     68 H39         1.1845    2.1622    2.9372 H         1 <0>         0.0566
     69 H40         0.4617    2.5633    0.5062 H         1 <0>         0.0587
     70 H41        -1.1431    2.6089   -0.2623 H         1 <0>         0.0497
     71 H42        -1.0038    2.3422    1.4920 H         1 <0>         0.0604
     72 H43        -0.7070   -3.4048   -2.3330 H         1 <0>         0.3726
     73 O4          6.2205    2.1364    9.6181 O.co2     1 <0>        -0.7816
@<TRIPOS>BOND
     1    1    2 1
     2    1   39 1
     3    1   40 1
     4    1   41 1
     5    2    3 1
     6    2   42 1
     7    2   43 1
     8    3    4 1
     9    3   22 1
    10    3    5 1
    11    5    6 1
    12    5   12 1
    13    5    7 1
    14    7    8 1
    15    7   44 1
    16    7   45 1
    17    8    9 1
    18    8   10 1
    19    8   38 1
    20   10   11 1
    21   10   46 1
    22   10   47 1
    23   11   12 1
    24   11   48 1
    25   11   49 1
    26   12   13 1
    27   12   37 1
    28   13   14 1
    29   13   20 1
    30   13   15 1
    31   15   16 1
    32   15   50 1
    33   15   51 1
    34   16   17 1
    35   16   52 1
    36   16   53 1
    37   17   27 1
    38   17   18 1
    39   17   36 1
    40   18   19 1
    41   18   20 1
    42   18   25 1
    43   20   21 1
    44   20   22 1
    45   22   23 1
    46   22   24 1
    47   24   54 1
    48   25   26 1
    49   25   55 1
    50   25   56 1
    51   26   27 1
    52   26   57 1
    53   26   58 1
    54   27   28 1
    55   27   29 1
    56   29   30 1
    57   29   31 1
    58   29   32 1
    59   31   59 1
    60   31   60 1
    61   31   61 1
    62   32   33 1
    63   32   62 1
    64   32   63 1
    65   33   34 1
    66   33   64 1
    67   33   65 1
    68   34   35 2
    69   34   73 1
    70   36   66 1
    71   36   67 1
    72   36   68 1
    73   37   69 1
    74   37   70 1
    75   37   71 1
    76   38   72 1
@<TRIPOS>MOLECULE
ZINC40848320
   56    59     0     0     0
SMALL
USER_CHARGES

@<TRIPOS>ATOM
      1 C1         -0.7732    2.1662    0.0052 C.3       1 <0>        -0.1513
      2 C2         -0.5914    0.6491    0.0854 C.3       1 <0>         0.0800
      3 C3          0.1151    0.2887    1.3938 C.3       1 <0>        -0.1722
      4 O1         -1.8704    0.0132    0.0439 O.3       1 <0>        -0.3394
      5 C4         -1.9247   -1.2177   -0.5046 C.2       1 <0>         0.5147
      6 O2         -0.9128   -1.7364   -0.9357 O.2       1 <0>        -0.4935
      7 C5         -3.2044   -1.9308   -0.5811 C.2       1 <0>        -0.1039
      8 C6         -3.2956   -3.1856   -1.1269 C.2       1 <0>         0.1890
      9 N1         -4.5330   -3.7516   -1.2546 N.am      1 <0>        -0.5720
     10 C7         -5.2492   -4.3669   -0.1364 C.3       1 <0>         0.1227
     11 C8         -5.1499   -3.4650    1.1013 C.3       1 <0>        -0.0068
     12 C9         -5.3517   -2.0321    0.6828 C.2       1 <0>        -0.1294
     13 C10        -4.4593   -1.3314   -0.0663 C.2       1 <0>         0.1161
     14 N2         -4.9223   -0.0549   -0.2401 N.pl3     1 <0>        -0.5736
     15 H1         -4.4586    0.6463   -0.7239 H         1 <0>         0.4166
     16 C11        -6.1499    0.0834    0.3785 C.ar      1 <0>         0.1078
     17 C12        -6.4673   -1.1448    0.9711 C.ar      1 <0>        -0.0900
     18 C13        -7.6702   -1.2853    1.6692 C.ar      1 <0>        -0.0747
     19 C14        -8.5322   -0.2294    1.7596 C.ar      1 <0>        -0.1448
     20 C15        -8.2237    0.9856    1.1642 C.ar      1 <0>        -0.0932
     21 C16        -7.0418    1.1426    0.4926 C.ar      1 <0>        -0.1283
     22 C17        -3.7683   -3.6221    1.7396 C.3       1 <0>        -0.1546
     23 C18        -6.2298   -3.8603    2.1105 C.3       1 <0>        -0.1412
     24 C19        -5.1214   -3.7423   -2.4671 C.2       1 <0>         0.5728
     25 O3         -6.1835   -4.3102   -2.6315 O.2       1 <0>        -0.4976
     26 C20        -4.4761   -3.0424   -3.5955 C.ar      1 <0>        -0.1172
     27 C21        -3.0996   -3.1639   -3.8006 C.ar      1 <0>        -0.0751
     28 C22        -2.5012   -2.5091   -4.8557 C.ar      1 <0>        -0.1228
     29 C23        -3.2621   -1.7301   -5.7134 C.ar      1 <0>         0.0938
     30 C24        -4.6307   -1.6051   -5.5154 C.ar      1 <0>         0.0681
     31 C25        -5.2406   -2.2613   -4.4651 C.ar      1 <0>        -0.0703
     32 F1         -5.3671   -0.8441   -6.3544 F         1 <0>        -0.1200
     33 F2         -2.6700   -1.0900   -6.7452 F         1 <0>        -0.1194
     34 H2          0.2024    2.6512    0.0369 H         1 <0>         0.0821
     35 H3         -1.2766    2.4230   -0.9269 H         1 <0>         0.0640
     36 H4         -1.3751    2.5051    0.8484 H         1 <0>         0.0686
     37 H5          0.0104    0.3102   -0.7578 H         1 <0>         0.0870
     38 H6          0.2446   -0.7921    1.4510 H         1 <0>         0.0623
     39 H7          1.0907    0.7737    1.4255 H         1 <0>         0.0773
     40 H8         -0.4867    0.6276    2.2370 H         1 <0>         0.0670
     41 H9         -2.4103   -3.7140   -1.4485 H         1 <0>         0.1648
     42 H10        -6.2971   -4.4989   -0.4057 H         1 <0>         0.1074
     43 H11        -4.8077   -5.3382    0.0865 H         1 <0>         0.0832
     44 H12        -7.9175   -2.2270    2.1366 H         1 <0>         0.1288
     45 H13        -9.4615   -0.3411    2.2984 H         1 <0>         0.1234
     46 H14        -8.9151    1.8114    1.2444 H         1 <0>         0.1271
     47 H15        -6.8119    2.0947    0.0374 H         1 <0>         0.1185
     48 H16        -3.0011   -3.3362    1.0200 H         1 <0>         0.0577
     49 H17        -3.6991   -2.9811    2.6184 H         1 <0>         0.0640
     50 H18        -3.6205   -4.6608    2.0349 H         1 <0>         0.0649
     51 H19        -6.0874   -4.8995    2.4067 H         1 <0>         0.0634
     52 H20        -6.1583   -3.2190    2.9890 H         1 <0>         0.0674
     53 H21        -7.2131   -3.7438    1.6548 H         1 <0>         0.0664
     54 H22        -2.5049   -3.7698   -3.1330 H         1 <0>         0.1506
     55 H23        -1.4371   -2.6030   -5.0142 H         1 <0>         0.1576
     56 H24        -6.3058   -2.1676   -4.3138 H         1 <0>         0.1561
@<TRIPOS>BOND
     1    1    2 1
     2    1   34 1
     3    1   35 1
     4    1   36 1
     5    2    3 1
     6    2    4 1
     7    2   37 1
     8    3   38 1
     9    3   39 1
    10    3   40 1
    11    4    5 1
    12    5    6 2
    13    5    7 1
    14    7   13 1
    15    7    8 2
    16    8    9 1
    17    8   41 1
    18    9   10 1
    19    9   24 am
    20   10   11 1
    21   10   42 1
    22   10   43 1
    23   11   12 1
    24   11   22 1
    25   11   23 1
    26   12   17 1
    27   12   13 2
    28   13   14 1
    29   14   15 1
    30   14   16 1
    31   16   21 ar
    32   16   17 ar
    33   17   18 ar
    34   18   19 ar
    35   18   44 1
    36   19   20 ar
    37   19   45 1
    38   20   21 ar
    39   20   46 1
    40   21   47 1
    41   22   48 1
    42   22   49 1
    43   22   50 1
    44   23   51 1
    45   23   52 1
    46   23   53 1
    47   24   25 2
    48   24   26 1
    49   26   31 ar
    50   26   27 ar
    51   27   28 ar
    52   27   54 1
    53   28   29 ar
    54   28   55 1
    55   29   30 ar
    56   29   33 1
    57   30   31 ar
    58   30   32 1
    59   31   56 1
@<TRIPOS>MOLECULE
ZINC03819618
   53    56     0     0     0
SMALL
USER_CHARGES
ethyl (3,4-difluorobenzoyl)-dimethyl-BLAHcarboxylate
@<TRIPOS>ATOM
      1 C1          6.5058    2.3061   -3.1447 C.3       1 <0>        -0.1542
      2 C2          6.2296    3.6166   -2.4049 C.3       1 <0>         0.0634
      3 O1          5.0837    3.4461   -1.5296 O.3       1 <0>        -0.3503
      4 C3          4.7058    4.5157   -0.8003 C.2       1 <0>         0.5154
      5 O2          5.3178    5.5624   -0.8939 O.2       1 <0>        -0.4950
      6 C4          3.5564    4.4166    0.1058 C.2       1 <0>        -0.1047
      7 C5          3.1445    5.4837    0.8625 C.2       1 <0>         0.1892
      8 N1          2.1273    5.2953    1.7555 N.am      1 <0>        -0.5720
      9 C6          0.7188    5.2422    1.3618 C.3       1 <0>         0.1229
     10 C7          0.5632    4.3643    0.1129 C.3       1 <0>        -0.0065
     11 C8          1.4224    3.1368    0.2644 C.2       1 <0>        -0.1294
     12 C9          2.7855    3.1576    0.2469 C.2       1 <0>         0.1152
     13 N2          3.2630    1.8829    0.3899 N.pl3     1 <0>        -0.5727
     14 H1          4.2009    1.6352    0.3954 H         1 <0>         0.4169
     15 C10         2.2071    1.0024    0.5245 C.ar      1 <0>         0.1060
     16 C11         1.0150    1.7531    0.4503 C.ar      1 <0>        -0.0895
     17 C12        -0.2193    1.1055    0.5580 C.ar      1 <0>        -0.0749
     18 C13        -0.2645   -0.2483    0.7354 C.ar      1 <0>        -0.1438
     19 C14         0.9062   -0.9896    0.8086 C.ar      1 <0>        -0.0939
     20 C15         2.1350   -0.3733    0.7039 C.ar      1 <0>        -0.1292
     21 C16         1.0063    5.1498   -1.1231 C.3       1 <0>        -0.1548
     22 C17        -0.9009    3.9481   -0.0430 C.3       1 <0>        -0.1412
     23 C18         2.4357    5.1523    3.0597 C.2       1 <0>         0.5728
     24 O3          1.5500    5.0672    3.8878 O.2       1 <0>        -0.4974
     25 C19         3.8493    5.0992    3.4825 C.ar      1 <0>        -0.1170
     26 C20         4.7807    5.9796    2.9267 C.ar      1 <0>        -0.0753
     27 C21         6.0981    5.9306    3.3289 C.ar      1 <0>        -0.1227
     28 C22         6.5033    5.0019    4.2748 C.ar      1 <0>         0.0937
     29 C23         5.5840    4.1197    4.8268 C.ar      1 <0>         0.0683
     30 C24         4.2610    4.1646    4.4354 C.ar      1 <0>        -0.0705
     31 F1          5.9847    3.2167    5.7483 F         1 <0>        -0.1200
     32 F2          7.7970    4.9551    4.6614 F         1 <0>        -0.1195
     33 H2          7.3660    2.4341   -3.8018 H         1 <0>         0.0842
     34 H3          6.7151    1.5178   -2.4216 H         1 <0>         0.0663
     35 H4          5.6331    2.0328   -3.7378 H         1 <0>         0.0682
     36 H5          6.0204    4.4049   -3.1280 H         1 <0>         0.0749
     37 H6          7.1024    3.8899   -1.8118 H         1 <0>         0.0739
     38 H7          3.6132    6.4507    0.7550 H         1 <0>         0.1649
     39 H8          0.3651    6.2497    1.1432 H         1 <0>         0.0834
     40 H9          0.1309    4.8204    2.1770 H         1 <0>         0.1074
     41 H10        -1.1355    1.6740    0.4967 H         1 <0>         0.1289
     42 H11        -1.2195   -0.7458    0.8189 H         1 <0>         0.1237
     43 H12         0.8543   -2.0593    0.9486 H         1 <0>         0.1263
     44 H13         3.0404   -0.9593    0.7609 H         1 <0>         0.1201
     45 H14         0.9023    4.5227   -2.0086 H         1 <0>         0.0640
     46 H15         0.3837    6.0379   -1.2317 H         1 <0>         0.0651
     47 H16         2.0484    5.4483   -1.0095 H         1 <0>         0.0577
     48 H17        -1.2162    3.3913    0.8394 H         1 <0>         0.0663
     49 H18        -1.5217    4.8373   -0.1526 H         1 <0>         0.0635
     50 H19        -1.0077    3.3192   -0.9269 H         1 <0>         0.0675
     51 H20         4.4679    6.7007    2.1861 H         1 <0>         0.1507
     52 H21         6.8174    6.6142    2.9025 H         1 <0>         0.1577
     53 H22         3.5460    3.4785    4.8647 H         1 <0>         0.1560
@<TRIPOS>BOND
     1    1    2 1
     2    1   33 1
     3    1   34 1
     4    1   35 1
     5    2    3 1
     6    2   36 1
     7    2   37 1
     8    3    4 1
     9    4    5 2
    10    4    6 1
    11    6   12 1
    12    6    7 2
    13    7    8 1
    14    7   38 1
    15    8    9 1
    16    8   23 am
    17    9   10 1
    18    9   39 1
    19    9   40 1
    20   10   11 1
    21   10   21 1
    22   10   22 1
    23   11   16 1
    24   11   12 2
    25   12   13 1
    26   13   14 1
    27   13   15 1
    28   15   20 ar
    29   15   16 ar
    30   16   17 ar
    31   17   18 ar
    32   17   41 1
    33   18   19 ar
    34   18   42 1
    35   19   20 ar
    36   19   43 1
    37   20   44 1
    38   21   45 1
    39   21   46 1
    40   21   47 1
    41   22   48 1
    42   22   49 1
    43   22   50 1
    44   23   24 2
    45   23   25 1
    46   25   30 ar
    47   25   26 ar
    48   26   27 ar
    49   26   51 1
    50   27   28 ar
    51   27   52 1
    52   28   29 ar
    53   28   32 1
    54   29   30 ar
    55   29   31 1
    56   30   53 1
@<TRIPOS>MOLECULE
ZINC29551572
   74    77     0     0     0
SMALL
USER_CHARGES
2-[[(4R)-4-[(3R,5R,7R,8S,9R,10S,13R,14R,17R)-3,7-dihydroxy-10,13-dimethyl-2,3,4,5,6,7,8,9,11,12,14,15,16,17-tetradecahydro-1H-cyclopenta[a]phenanthren-17-yl]pentanoyl]amino]acetic acid
@<TRIPOS>ATOM
      1 C1          3.7254    2.8649   -6.0048 C.3       1 <0>        -0.1595
      2 C2          2.4089    2.0942   -6.1218 C.3       1 <0>        -0.0914
      3 H1          2.5694    1.1825   -6.7160 H         1 <0>         0.0754
      4 C3          1.3625    2.9735   -6.8094 C.3       1 <0>        -0.0995
      5 C4          1.7975    3.2525   -8.2495 C.3       1 <0>        -0.1401
      6 C5          0.7668    4.1185   -8.9268 C.2       1 <0>         0.5015
      7 O1         -0.2186    4.4773   -8.3176 O.2       1 <0>        -0.5648
      8 N1          0.9402    4.4944  -10.2094 N.am      1 <0>        -0.7188
      9 C6         -0.0617    5.3363  -10.8678 C.3       1 <0>         0.0785
     10 C7          0.3668    5.6111  -12.2862 C.2       1 <0>         0.4603
     11 O2          1.4028    5.1509  -12.7043 O.co2     1 <0>        -0.6365
     12 O3         -0.4025    6.3671  -13.0852 O.co2     1 <0>        -0.7593
     13 C8          1.9156    1.7123   -4.7248 C.3       1 <0>        -0.0713
     14 H2          1.8608    2.6403   -4.1368 H         1 <0>         0.0706
     15 C9          0.5471    1.0064   -4.8165 C.3       1 <0>        -0.1196
     16 C10         0.7418   -0.4036   -4.2168 C.3       1 <0>        -0.1236
     17 C11         1.9821   -0.2426   -3.2537 C.3       1 <0>        -0.0692
     18 H3          2.5251   -1.1397   -2.9213 H         1 <0>         0.0741
     19 C12         2.8701    0.6943   -4.0864 C.3       1 <0>        -0.0458
     20 C13         3.9451    1.3498   -3.2490 C.3       1 <0>        -0.1161
     21 C14         3.3318    2.0829   -2.0587 C.3       1 <0>        -0.1134
     22 C15         2.5681    1.0713   -1.1917 C.3       1 <0>        -0.0637
     23 H4          3.2278    0.2546   -0.8634 H         1 <0>         0.0673
     24 C16         1.4368    0.4644   -2.0073 C.3       1 <0>        -0.0693
     25 H5          0.7820    1.3019   -2.2898 H         1 <0>         0.0836
     26 C17         0.6381   -0.5584   -1.1977 C.3       1 <0>         0.1255
     27 H6          1.1539   -1.5299   -1.1957 H         1 <0>         0.0409
     28 C18         0.4170   -0.0746    0.2352 C.3       1 <0>        -0.1474
     29 C19         0.5337    1.4444    0.2490 C.3       1 <0>        -0.0674
     30 H7         -0.1141    1.8362   -0.5490 H         1 <0>         0.0820
     31 C20         1.9975    1.8280    0.0241 C.3       1 <0>        -0.0480
     32 C21         2.0828    3.3447   -0.1401 C.3       1 <0>        -0.1040
     33 C22         1.6117    3.9899    1.1712 C.3       1 <0>        -0.1167
     34 C23         0.1720    3.5753    1.4726 C.3       1 <0>         0.1178
     35 H8         -0.1808    4.0531    2.3985 H         1 <0>         0.0427
     36 C24         0.0640    2.0491    1.5686 C.3       1 <0>        -0.1486
     37 O4         -0.6828    4.0410    0.4264 O.3       1 <0>        -0.5927
     38 C25         2.8068    1.4345    1.2615 C.3       1 <0>        -0.1537
     39 O5         -0.6298   -0.7649   -1.8237 O.3       1 <0>        -0.5860
     40 C26         3.5310   -0.1312   -5.1921 C.3       1 <0>        -0.1523
     41 H9          4.4777    2.2327   -5.5104 H         1 <0>         0.0634
     42 H10         3.5650    3.7766   -5.4106 H         1 <0>         0.0530
     43 H11         4.0800    3.1395   -7.0092 H         1 <0>         0.0551
     44 H12         0.3927    2.4543   -6.8133 H         1 <0>         0.0719
     45 H13         1.2672    3.9243   -6.2644 H         1 <0>         0.0656
     46 H14         2.7672    3.7717   -8.2455 H         1 <0>         0.0897
     47 H15         1.8929    2.3018   -8.7945 H         1 <0>         0.0873
     48 H16         1.8340    4.1690  -10.7618 H         1 <0>         0.4272
     49 H17        -1.0315    4.8171  -10.8718 H         1 <0>         0.0691
     50 H18        -0.1571    6.2871  -10.3228 H         1 <0>         0.0691
     51 H19        -0.1992    1.5777   -4.2449 H         1 <0>         0.0588
     52 H20         0.2352    0.9466   -5.8697 H         1 <0>         0.0659
     53 H21        -0.1680   -0.7001   -3.6742 H         1 <0>         0.0971
     54 H22         0.9367   -1.1226   -5.0262 H         1 <0>         0.0514
     55 H23         4.6375    0.5815   -2.8743 H         1 <0>         0.0560
     56 H24         4.4991    2.0737   -3.8647 H         1 <0>         0.0706
     57 H25         4.1307    2.5524   -1.4660 H         1 <0>         0.0621
     58 H26         2.6409    2.8580   -2.4218 H         1 <0>         0.0713
     59 H27        -0.5838   -0.3797    0.5749 H         1 <0>         0.0644
     60 H28         1.1786   -0.5180    0.8935 H         1 <0>         0.0652
     61 H29         3.1228    3.6325   -0.3534 H         1 <0>         0.0667
     62 H30         1.4370    3.6603   -0.9727 H         1 <0>         0.0731
     63 H31         2.2620    3.6619    1.9955 H         1 <0>         0.0773
     64 H32         1.6604    5.0850    1.0793 H         1 <0>         0.0652
     65 H33        -0.9806    1.7584    1.7539 H         1 <0>         0.0599
     66 H34         0.6983    1.6794    2.3877 H         1 <0>         0.0709
     67 H35        -1.7631    3.8376    0.4672 H         1 <0>         0.4013
     68 H36         2.4136    1.9655    2.1409 H         1 <0>         0.0612
     69 H37         3.8621    1.7058    1.1109 H         1 <0>         0.0534
     70 H38         2.7265    0.3493    1.4222 H         1 <0>         0.0525
     71 H39        -1.3508   -1.4709   -1.3859 H         1 <0>         0.3937
     72 H40         4.2172   -0.8638   -4.7423 H         1 <0>         0.0448
     73 H41         4.0942    0.5362   -5.8611 H         1 <0>         0.0661
     74 H42         2.7567   -0.6594   -5.7679 H         1 <0>         0.0579
@<TRIPOS>BOND
     1    1    2 1
     2    1   41 1
     3    1   42 1
     4    1   43 1
     5    2    3 1
     6    2    4 1
     7    2   13 1
     8    4    5 1
     9    4   44 1
    10    4   45 1
    11    5    6 1
    12    5   46 1
    13    5   47 1
    14    6    7 2
    15    6    8 am
    16    8    9 1
    17    8   48 1
    18    9   10 1
    19    9   49 1
    20    9   50 1
    21   10   11 2
    22   10   12 1
    23   13   14 1
    24   13   19 1
    25   13   15 1
    26   15   16 1
    27   15   51 1
    28   15   52 1
    29   16   17 1
    30   16   53 1
    31   16   54 1
    32   17   18 1
    33   17   24 1
    34   17   19 1
    35   19   20 1
    36   19   40 1
    37   20   21 1
    38   20   55 1
    39   20   56 1
    40   21   22 1
    41   21   57 1
    42   21   58 1
    43   22   23 1
    44   22   31 1
    45   22   24 1
    46   24   25 1
    47   24   26 1
    48   26   27 1
    49   26   28 1
    50   26   39 1
    51   28   29 1
    52   28   59 1
    53   28   60 1
    54   29   30 1
    55   29   36 1
    56   29   31 1
    57   31   32 1
    58   31   38 1
    59   32   33 1
    60   32   61 1
    61   32   62 1
    62   33   34 1
    63   33   63 1
    64   33   64 1
    65   34   35 1
    66   34   36 1
    67   34   37 1
    68   36   65 1
    69   36   66 1
    70   37   67 1
    71   38   68 1
    72   38   69 1
    73   38   70 1
    74   39   71 1
    75   40   72 1
    76   40   73 1
    77   40   74 1
@<TRIPOS>MOLECULE
ZINC29551579
   74    77     0     0     0
SMALL
USER_CHARGES
2-[[(4R)-4-[(3R,5R,7R,8S,9R,10S,13R,14S,17R)-3,7-dihydroxy-10,13-dimethyl-2,3,4,5,6,7,8,9,11,12,14,15,16,17-tetradecahydro-1H-cyclopenta[a]phenanthren-17-yl]pentanoyl]amino]acetic acid
@<TRIPOS>ATOM
      1 C1          3.9797    1.5635    1.2900 C.3       1 <0>        -0.1597
      2 C2          2.7352    1.8067    2.1461 C.3       1 <0>        -0.0948
      3 H1          2.5072    2.8826    2.1663 H         1 <0>         0.0769
      4 C3          2.9914    1.3114    3.5708 C.3       1 <0>        -0.0981
      5 C4          4.0953    2.1540    4.2129 C.3       1 <0>        -0.1400
      6 C5          4.3477    1.6661    5.6162 C.2       1 <0>         0.5013
      7 O1          3.7076    0.7360    6.0592 O.2       1 <0>        -0.5654
      8 N1          5.2847    2.2633    6.3790 N.am      1 <0>        -0.7186
      9 C6          5.5301    1.7890    7.7432 C.3       1 <0>         0.0784
     10 C7          6.6174    2.6189    8.3756 C.2       1 <0>         0.4603
     11 O2          7.1344    3.5146    7.7509 O.co2     1 <0>        -0.6364
     12 O3          7.0116    2.3630    9.6330 O.co2     1 <0>        -0.7591
     13 C8          1.5513    1.0499    1.5494 C.3       1 <0>        -0.0784
     14 H2          1.8570   -0.0055    1.4979 H         1 <0>         0.0721
     15 C9          0.2782    1.2683    2.4037 C.3       1 <0>        -0.1251
     16 C10        -0.8659    1.6102    1.4101 C.3       1 <0>        -0.0985
     17 C11        -0.2839    1.1960    0.0514 C.3       1 <0>        -0.0693
     18 H3         -0.4429    0.1252   -0.1439 H         1 <0>         0.0659
     19 C12         1.1831    1.6536    0.1755 C.3       1 <0>        -0.0392
     20 C13         2.0142    1.1320   -0.9703 C.3       1 <0>        -0.1058
     21 C14         1.1951    1.0835   -2.2677 C.3       1 <0>        -0.1111
     22 C15         0.0657    2.1050   -2.2424 C.3       1 <0>        -0.0664
     23 H4          0.5152    3.0806   -2.0053 H         1 <0>         0.0798
     24 C16        -0.9616    1.7203   -1.1768 C.3       1 <0>        -0.0669
     25 H5         -1.5748    0.8762   -1.5253 H         1 <0>         0.0667
     26 C17        -1.9416    2.8579   -0.9274 C.3       1 <0>         0.1241
     27 H6         -1.5008    3.6119   -0.2587 H         1 <0>         0.0508
     28 C18        -2.3767    3.4504   -2.2803 C.3       1 <0>        -0.1435
     29 C19        -2.1306    2.4021   -3.3544 C.3       1 <0>        -0.0728
     30 H7         -2.5660    1.4695   -2.9662 H         1 <0>         0.0768
     31 C20        -0.6306    2.2217   -3.5961 C.3       1 <0>        -0.0442
     32 C21        -0.4284    0.9945   -4.4762 C.3       1 <0>        -0.1003
     33 C22        -1.1542    1.1966   -5.8099 C.3       1 <0>        -0.1127
     34 C23        -2.6359    1.4932   -5.6075 C.3       1 <0>         0.1183
     35 H8         -3.1084    1.6928   -6.5806 H         1 <0>         0.0413
     36 C24        -2.8484    2.6824   -4.6647 C.3       1 <0>        -0.1442
     37 O4         -3.2842    0.3383   -5.0691 O.3       1 <0>        -0.5949
     38 C25        -0.0563    3.4520   -4.3023 C.3       1 <0>        -0.1491
     39 O5         -3.0988    2.3556   -0.2539 O.3       1 <0>        -0.5954
     40 C26         1.3168    3.1715    0.3063 C.3       1 <0>        -0.1505
     41 H9          3.7954    1.9196    0.2657 H         1 <0>         0.0630
     42 H10         4.2056    0.4872    1.2689 H         1 <0>         0.0524
     43 H11         4.8328    2.1089    1.7199 H         1 <0>         0.0544
     44 H12         2.0687    1.4036    4.1625 H         1 <0>         0.0695
     45 H13         3.3046    0.2573    3.5418 H         1 <0>         0.0655
     46 H14         5.0180    2.0619    3.6212 H         1 <0>         0.0901
     47 H15         3.7821    3.2081    4.2420 H         1 <0>         0.0872
     48 H16         5.8652    3.1069    5.9772 H         1 <0>         0.4274
     49 H17         4.6074    1.8811    8.3349 H         1 <0>         0.0692
     50 H18         5.8433    0.7349    7.7142 H         1 <0>         0.0692
     51 H19         0.0508    0.3496    2.9643 H         1 <0>         0.0598
     52 H20         0.4471    2.0956    3.1087 H         1 <0>         0.0647
     53 H21        -1.7659    1.0363    1.6758 H         1 <0>         0.0623
     54 H22        -1.0882    2.6862    1.4631 H         1 <0>         0.0630
     55 H23         2.8806    1.7919   -1.1250 H         1 <0>         0.0662
     56 H24         2.3644    0.1158   -0.7364 H         1 <0>         0.0632
     57 H25         1.8501    1.3047   -3.1233 H         1 <0>         0.0621
     58 H26         0.7595    0.0807   -2.3891 H         1 <0>         0.0597
     59 H27        -3.4450    3.7095   -2.2405 H         1 <0>         0.0652
     60 H28        -1.7876    4.3552   -2.4909 H         1 <0>         0.0643
     61 H29         0.6461    0.8496   -4.6620 H         1 <0>         0.0653
     62 H30        -0.8355    0.1078   -3.9682 H         1 <0>         0.0683
     63 H31        -0.7026    2.0427   -6.3485 H         1 <0>         0.0747
     64 H32        -1.0641    0.2846   -6.4183 H         1 <0>         0.0663
     65 H33        -3.9229    2.8185   -4.4723 H         1 <0>         0.0616
     66 H34        -2.4386    3.5965   -5.1191 H         1 <0>         0.0690
     67 H35        -4.3628    0.3629   -4.8548 H         1 <0>         0.4008
     68 H36        -0.5366    3.5682   -5.2851 H         1 <0>         0.0564
     69 H37         1.0280    3.3247   -4.4368 H         1 <0>         0.0557
     70 H38        -0.2475    4.3473   -3.6926 H         1 <0>         0.0545
     71 H39        -3.9203    3.0375    0.0110 H         1 <0>         0.3981
     72 H40         1.0630    3.6459   -0.6531 H         1 <0>         0.0540
     73 H41         2.3516    3.4263    0.5790 H         1 <0>         0.0669
     74 H42         0.6320    3.5340    1.0871 H         1 <0>         0.0578
@<TRIPOS>BOND
     1    1    2 1
     2    1   41 1
     3    1   42 1
     4    1   43 1
     5    2    3 1
     6    2    4 1
     7    2   13 1
     8    4    5 1
     9    4   44 1
    10    4   45 1
    11    5    6 1
    12    5   46 1
    13    5   47 1
    14    6    7 2
    15    6    8 am
    16    8    9 1
    17    8   48 1
    18    9   10 1
    19    9   49 1
    20    9   50 1
    21   10   11 2
    22   10   12 1
    23   13   14 1
    24   13   19 1
    25   13   15 1
    26   15   16 1
    27   15   51 1
    28   15   52 1
    29   16   17 1
    30   16   53 1
    31   16   54 1
    32   17   18 1
    33   17   24 1
    34   17   19 1
    35   19   20 1
    36   19   40 1
    37   20   21 1
    38   20   55 1
    39   20   56 1
    40   21   22 1
    41   21   57 1
    42   21   58 1
    43   22   23 1
    44   22   31 1
    45   22   24 1
    46   24   25 1
    47   24   26 1
    48   26   27 1
    49   26   28 1
    50   26   39 1
    51   28   29 1
    52   28   59 1
    53   28   60 1
    54   29   30 1
    55   29   36 1
    56   29   31 1
    57   31   32 1
    58   31   38 1
    59   32   33 1
    60   32   61 1
    61   32   62 1
    62   33   34 1
    63   33   63 1
    64   33   64 1
    65   34   35 1
    66   34   36 1
    67   34   37 1
    68   36   65 1
    69   36   66 1
    70   37   67 1
    71   38   68 1
    72   38   69 1
    73   38   70 1
    74   39   71 1
    75   40   72 1
    76   40   73 1
    77   40   74 1
@<TRIPOS>MOLECULE
ZINC29552512
   78    81     0     0     0
SMALL
USER_CHARGES
2-[[(4R)-4-[(3R,5R,7R,8S,9R,10S,13R,14R,17R)-3,7-dihydroxy-10,13-dimethyl-2,3,4,5,6,7,8,9,11,12,14,15,16,17-tetradecahydro-1H-cyclopenta[a]phenanthren-17-yl]pentanoyl]amino]ethanesulfonic acid
@<TRIPOS>ATOM
      1 C1          3.7254    2.8649   -6.0048 C.3       1 <0>        -0.1595
      2 C2          2.4089    2.0942   -6.1218 C.3       1 <0>        -0.0909
      3 H1          2.5694    1.1825   -6.7160 H         1 <0>         0.0755
      4 C3          1.3625    2.9735   -6.8094 C.3       1 <0>        -0.1021
      5 C4          1.7975    3.2525   -8.2495 C.3       1 <0>        -0.1408
      6 C5          0.7668    4.1185   -8.9268 C.2       1 <0>         0.5039
      7 O1         -0.2186    4.4773   -8.3176 O.2       1 <0>        -0.5475
      8 N1          0.9402    4.4944  -10.2094 N.am      1 <0>        -0.7346
      9 C6         -0.0617    5.3363  -10.8678 C.3       1 <0>         0.1359
     10 C7          0.3733    5.6153  -12.3079 C.3       1 <0>        -0.6892
     11 S1         -0.8673    6.6578  -13.1231 S.o2      1 <0>         2.6434
     12 O2         -2.0777    5.9337  -13.2962 O.2       1 <0>        -1.0498
     13 O3         -0.8756    7.9543  -12.5416 O.2       1 <0>        -1.0499
     14 O4         -0.3356    6.8682  -14.5336 O.3       1 <0>        -1.0831
     15 C8          1.9156    1.7123   -4.7248 C.3       1 <0>        -0.0716
     16 H2          1.8608    2.6403   -4.1368 H         1 <0>         0.0712
     17 C9          0.5471    1.0064   -4.8165 C.3       1 <0>        -0.1194
     18 C10         0.7418   -0.4036   -4.2168 C.3       1 <0>        -0.1238
     19 C11         1.9821   -0.2426   -3.2537 C.3       1 <0>        -0.0692
     20 H3          2.5251   -1.1397   -2.9213 H         1 <0>         0.0746
     21 C12         2.8701    0.6943   -4.0864 C.3       1 <0>        -0.0460
     22 C13         3.9451    1.3498   -3.2490 C.3       1 <0>        -0.1161
     23 C14         3.3318    2.0829   -2.0587 C.3       1 <0>        -0.1134
     24 C15         2.5681    1.0713   -1.1917 C.3       1 <0>        -0.0639
     25 H4          3.2278    0.2546   -0.8634 H         1 <0>         0.0675
     26 C16         1.4368    0.4644   -2.0073 C.3       1 <0>        -0.0691
     27 H5          0.7820    1.3019   -2.2898 H         1 <0>         0.0835
     28 C17         0.6381   -0.5584   -1.1977 C.3       1 <0>         0.1255
     29 H6          1.1539   -1.5299   -1.1957 H         1 <0>         0.0410
     30 C18         0.4170   -0.0746    0.2352 C.3       1 <0>        -0.1475
     31 C19         0.5337    1.4444    0.2490 C.3       1 <0>        -0.0676
     32 H7         -0.1141    1.8362   -0.5490 H         1 <0>         0.0820
     33 C20         1.9975    1.8280    0.0241 C.3       1 <0>        -0.0481
     34 C21         2.0828    3.3447   -0.1401 C.3       1 <0>        -0.1038
     35 C22         1.6117    3.9899    1.1712 C.3       1 <0>        -0.1168
     36 C23         0.1720    3.5753    1.4726 C.3       1 <0>         0.1177
     37 H8         -0.1808    4.0531    2.3985 H         1 <0>         0.0431
     38 C24         0.0640    2.0491    1.5686 C.3       1 <0>        -0.1487
     39 O5         -0.6828    4.0410    0.4264 O.3       1 <0>        -0.5929
     40 C25         2.8068    1.4345    1.2615 C.3       1 <0>        -0.1538
     41 O6         -0.6298   -0.7649   -1.8237 O.3       1 <0>        -0.5864
     42 C26         3.5310   -0.1312   -5.1921 C.3       1 <0>        -0.1520
     43 H9          4.4777    2.2327   -5.5104 H         1 <0>         0.0646
     44 H10         3.5650    3.7766   -5.4106 H         1 <0>         0.0538
     45 H11         4.0800    3.1395   -7.0092 H         1 <0>         0.0533
     46 H12         0.3927    2.4543   -6.8133 H         1 <0>         0.0737
     47 H13         1.2672    3.9243   -6.2644 H         1 <0>         0.0673
     48 H14         2.7672    3.7717   -8.2455 H         1 <0>         0.0914
     49 H15         1.8929    2.3018   -8.7945 H         1 <0>         0.0889
     50 H16         1.8340    4.1690  -10.7618 H         1 <0>         0.4186
     51 H17        -1.0315    4.8171  -10.8718 H         1 <0>         0.0735
     52 H18        -0.1570    6.2871  -10.3229 H         1 <0>         0.0734
     53 H19         1.3431    6.1345  -12.3039 H         1 <0>         0.1127
     54 H20         0.4686    4.6646  -12.8529 H         1 <0>         0.1128
     55 H21        -0.1992    1.5777   -4.2449 H         1 <0>         0.0596
     56 H22         0.2352    0.9466   -5.8697 H         1 <0>         0.0651
     57 H23        -0.1680   -0.7001   -3.6742 H         1 <0>         0.0979
     58 H24         0.9367   -1.1226   -5.0262 H         1 <0>         0.0513
     59 H25         4.6375    0.5815   -2.8743 H         1 <0>         0.0565
     60 H26         4.4991    2.0737   -3.8647 H         1 <0>         0.0699
     61 H27         4.1307    2.5524   -1.4660 H         1 <0>         0.0624
     62 H28         2.6409    2.8580   -2.4218 H         1 <0>         0.0712
     63 H29        -0.5838   -0.3797    0.5749 H         1 <0>         0.0648
     64 H30         1.1786   -0.5180    0.8935 H         1 <0>         0.0653
     65 H31         3.1228    3.6325   -0.3534 H         1 <0>         0.0664
     66 H32         1.4370    3.6603   -0.9727 H         1 <0>         0.0728
     67 H33         2.2620    3.6619    1.9955 H         1 <0>         0.0774
     68 H34         1.6604    5.0850    1.0793 H         1 <0>         0.0653
     69 H35        -0.9806    1.7584    1.7539 H         1 <0>         0.0601
     70 H36         0.6983    1.6794    2.3877 H         1 <0>         0.0710
     71 H37        -1.7631    3.8376    0.4672 H         1 <0>         0.4016
     72 H38         2.4136    1.9655    2.1409 H         1 <0>         0.0615
     73 H39         3.8621    1.7058    1.1109 H         1 <0>         0.0533
     74 H40         2.7265    0.3493    1.4222 H         1 <0>         0.0526
     75 H41        -1.3508   -1.4709   -1.3859 H         1 <0>         0.3944
     76 H42         4.2172   -0.8638   -4.7423 H         1 <0>         0.0455
     77 H43         4.0942    0.5362   -5.8611 H         1 <0>         0.0651
     78 H44         2.7567   -0.6594   -5.7679 H         1 <0>         0.0577
@<TRIPOS>BOND
     1    1    2 1
     2    1   43 1
     3    1   44 1
     4    1   45 1
     5    2    3 1
     6    2    4 1
     7    2   15 1
     8    4    5 1
     9    4   46 1
    10    4   47 1
    11    5    6 1
    12    5   48 1
    13    5   49 1
    14    6    7 2
    15    6    8 am
    16    8    9 1
    17    8   50 1
    18    9   10 1
    19    9   51 1
    20    9   52 1
    21   10   11 1
    22   10   53 1
    23   10   54 1
    24   11   12 2
    25   11   13 2
    26   11   14 1
    27   15   16 1
    28   15   21 1
    29   15   17 1
    30   17   18 1
    31   17   55 1
    32   17   56 1
    33   18   19 1
    34   18   57 1
    35   18   58 1
    36   19   20 1
    37   19   26 1
    38   19   21 1
    39   21   22 1
    40   21   42 1
    41   22   23 1
    42   22   59 1
    43   22   60 1
    44   23   24 1
    45   23   61 1
    46   23   62 1
    47   24   25 1
    48   24   33 1
    49   24   26 1
    50   26   27 1
    51   26   28 1
    52   28   29 1
    53   28   30 1
    54   28   41 1
    55   30   31 1
    56   30   63 1
    57   30   64 1
    58   31   32 1
    59   31   38 1
    60   31   33 1
    61   33   34 1
    62   33   40 1
    63   34   35 1
    64   34   65 1
    65   34   66 1
    66   35   36 1
    67   35   67 1
    68   35   68 1
    69   36   37 1
    70   36   38 1
    71   36   39 1
    72   38   69 1
    73   38   70 1
    74   39   71 1
    75   40   72 1
    76   40   73 1
    77   40   74 1
    78   41   75 1
    79   42   76 1
    80   42   77 1
    81   42   78 1
@<TRIPOS>MOLECULE
ZINC29552518
   78    81     0     0     0
SMALL
USER_CHARGES
2-[[(4R)-4-[(3R,5R,7R,8S,9R,10S,13R,14S,17R)-3,7-dihydroxy-10,13-dimethyl-2,3,4,5,6,7,8,9,11,12,14,15,16,17-tetradecahydro-1H-cyclopenta[a]phenanthren-17-yl]pentanoyl]amino]ethanesulfonic acid
@<TRIPOS>ATOM
      1 C1          3.9797    1.5635    1.2900 C.3       1 <0>        -0.1597
      2 C2          2.7352    1.8067    2.1461 C.3       1 <0>        -0.0944
      3 H1          2.5072    2.8826    2.1663 H         1 <0>         0.0770
      4 C3          2.9914    1.3114    3.5708 C.3       1 <0>        -0.1007
      5 C4          4.0953    2.1540    4.2129 C.3       1 <0>        -0.1407
      6 C5          4.3477    1.6661    5.6162 C.2       1 <0>         0.5038
      7 O1          3.7077    0.7360    6.0592 O.2       1 <0>        -0.5481
      8 N1          5.2847    2.2633    6.3790 N.am      1 <0>        -0.7344
      9 C6          5.5301    1.7890    7.7432 C.3       1 <0>         0.1358
     10 C7          6.6340    2.6316    8.3853 C.3       1 <0>        -0.6893
     11 S1          6.9378    2.0443   10.0745 S.o2      1 <0>         2.6434
     12 O2          5.8135    2.3206   10.8984 O.2       1 <0>        -1.0498
     13 O3          7.5124    0.7450   10.0450 O.2       1 <0>        -1.0498
     14 O4          8.0419    2.9452   10.6092 O.3       1 <0>        -1.0830
     15 C8          1.5513    1.0499    1.5494 C.3       1 <0>        -0.0787
     16 H2          1.8570   -0.0055    1.4979 H         1 <0>         0.0726
     17 C9          0.2782    1.2683    2.4037 C.3       1 <0>        -0.1250
     18 C10        -0.8659    1.6102    1.4101 C.3       1 <0>        -0.0986
     19 C11        -0.2839    1.1960    0.0514 C.3       1 <0>        -0.0694
     20 H3         -0.4429    0.1252   -0.1439 H         1 <0>         0.0665
     21 C12         1.1831    1.6536    0.1755 C.3       1 <0>        -0.0393
     22 C13         2.0142    1.1320   -0.9703 C.3       1 <0>        -0.1056
     23 C14         1.1951    1.0835   -2.2677 C.3       1 <0>        -0.1114
     24 C15         0.0657    2.1050   -2.2424 C.3       1 <0>        -0.0662
     25 H4          0.5152    3.0806   -2.0053 H         1 <0>         0.0794
     26 C16        -0.9616    1.7203   -1.1768 C.3       1 <0>        -0.0673
     27 H5         -1.5748    0.8762   -1.5253 H         1 <0>         0.0673
     28 C17        -1.9416    2.8579   -0.9274 C.3       1 <0>         0.1243
     29 H6         -1.5008    3.6119   -0.2587 H         1 <0>         0.0503
     30 C18        -2.3767    3.4504   -2.2803 C.3       1 <0>        -0.1435
     31 C19        -2.1306    2.4021   -3.3544 C.3       1 <0>        -0.0728
     32 H7         -2.5660    1.4695   -2.9662 H         1 <0>         0.0769
     33 C20        -0.6306    2.2217   -3.5961 C.3       1 <0>        -0.0442
     34 C21        -0.4284    0.9945   -4.4762 C.3       1 <0>        -0.1002
     35 C22        -1.1542    1.1966   -5.8099 C.3       1 <0>        -0.1128
     36 C23        -2.6359    1.4932   -5.6075 C.3       1 <0>         0.1182
     37 H8         -3.1084    1.6928   -6.5806 H         1 <0>         0.0416
     38 C24        -2.8484    2.6824   -4.6647 C.3       1 <0>        -0.1443
     39 O5         -3.2842    0.3383   -5.0691 O.3       1 <0>        -0.5950
     40 C25        -0.0563    3.4520   -4.3023 C.3       1 <0>        -0.1490
     41 O6         -3.0988    2.3556   -0.2539 O.3       1 <0>        -0.5955
     42 C26         1.3168    3.1715    0.3063 C.3       1 <0>        -0.1502
     43 H9          3.7954    1.9196    0.2657 H         1 <0>         0.0642
     44 H10         4.2056    0.4872    1.2689 H         1 <0>         0.0532
     45 H11         4.8328    2.1089    1.7199 H         1 <0>         0.0526
     46 H12         2.0687    1.4036    4.1625 H         1 <0>         0.0712
     47 H13         3.3046    0.2573    3.5418 H         1 <0>         0.0672
     48 H14         5.0180    2.0619    3.6212 H         1 <0>         0.0918
     49 H15         3.7821    3.2081    4.2420 H         1 <0>         0.0888
     50 H16         5.8652    3.1069    5.9772 H         1 <0>         0.4187
     51 H17         4.6074    1.8811    8.3349 H         1 <0>         0.0735
     52 H18         5.8434    0.7349    7.7142 H         1 <0>         0.0735
     53 H19         7.5567    2.5395    7.7936 H         1 <0>         0.1128
     54 H20         6.3208    3.6857    8.4143 H         1 <0>         0.1128
     55 H21         0.0508    0.3496    2.9643 H         1 <0>         0.0603
     56 H22         0.4471    2.0956    3.1087 H         1 <0>         0.0640
     57 H23        -1.7659    1.0363    1.6758 H         1 <0>         0.0630
     58 H24        -1.0882    2.6862    1.4631 H         1 <0>         0.0631
     59 H25         2.8806    1.7919   -1.1250 H         1 <0>         0.0656
     60 H26         2.3644    0.1158   -0.7364 H         1 <0>         0.0632
     61 H27         1.8501    1.3047   -3.1233 H         1 <0>         0.0624
     62 H28         0.7595    0.0807   -2.3891 H         1 <0>         0.0602
     63 H29        -3.4450    3.7095   -2.2405 H         1 <0>         0.0655
     64 H30        -1.7876    4.3552   -2.4909 H         1 <0>         0.0642
     65 H31         0.6461    0.8496   -4.6620 H         1 <0>         0.0651
     66 H32        -0.8355    0.1078   -3.9682 H         1 <0>         0.0683
     67 H33        -0.7026    2.0427   -6.3485 H         1 <0>         0.0747
     68 H34        -1.0641    0.2846   -6.4183 H         1 <0>         0.0665
     69 H35        -3.9229    2.8185   -4.4723 H         1 <0>         0.0619
     70 H36        -2.4386    3.5965   -5.1191 H         1 <0>         0.0690
     71 H37        -4.3628    0.3629   -4.8548 H         1 <0>         0.4011
     72 H38        -0.5366    3.5682   -5.2851 H         1 <0>         0.0567
     73 H39         1.0280    3.3247   -4.4368 H         1 <0>         0.0555
     74 H40        -0.2475    4.3473   -3.6926 H         1 <0>         0.0544
     75 H41        -3.9203    3.0375    0.0110 H         1 <0>         0.3986
     76 H42         1.0630    3.6459   -0.6531 H         1 <0>         0.0546
     77 H43         2.3516    3.4263    0.5790 H         1 <0>         0.0657
     78 H44         0.6320    3.5340    1.0871 H         1 <0>         0.0578
@<TRIPOS>BOND
     1    1    2 1
     2    1   43 1
     3    1   44 1
     4    1   45 1
     5    2    3 1
     6    2    4 1
     7    2   15 1
     8    4    5 1
     9    4   46 1
    10    4   47 1
    11    5    6 1
    12    5   48 1
    13    5   49 1
    14    6    7 2
    15    6    8 am
    16    8    9 1
    17    8   50 1
    18    9   10 1
    19    9   51 1
    20    9   52 1
    21   10   11 1
    22   10   53 1
    23   10   54 1
    24   11   12 2
    25   11   13 2
    26   11   14 1
    27   15   16 1
    28   15   21 1
    29   15   17 1
    30   17   18 1
    31   17   55 1
    32   17   56 1
    33   18   19 1
    34   18   57 1
    35   18   58 1
    36   19   20 1
    37   19   26 1
    38   19   21 1
    39   21   22 1
    40   21   42 1
    41   22   23 1
    42   22   59 1
    43   22   60 1
    44   23   24 1
    45   23   61 1
    46   23   62 1
    47   24   25 1
    48   24   33 1
    49   24   26 1
    50   26   27 1
    51   26   28 1
    52   28   29 1
    53   28   30 1
    54   28   41 1
    55   30   31 1
    56   30   63 1
    57   30   64 1
    58   31   32 1
    59   31   38 1
    60   31   33 1
    61   33   34 1
    62   33   40 1
    63   34   35 1
    64   34   65 1
    65   34   66 1
    66   35   36 1
    67   35   67 1
    68   35   68 1
    69   36   37 1
    70   36   38 1
    71   36   39 1
    72   38   69 1
    73   38   70 1
    74   39   71 1
    75   40   72 1
    76   40   73 1
    77   40   74 1
    78   41   75 1
    79   42   76 1
    80   42   77 1
    81   42   78 1
