@<TRIPOS>MOLECULE
ZINC49071240
   48    51     0     0     0
SMALL
USER_CHARGES

@<TRIPOS>ATOM
      1 C1         -2.4251   -0.1056   -0.9205 C.3       1 <0>        -0.1124
      2 C2         -1.1646   -0.7841   -0.4494 C.ar      1 <0>         0.1420
      3 C3         -0.0232   -0.7854   -1.2733 C.ar      1 <0>         0.1505
      4 N1          1.0903   -1.3761   -0.8746 N.ar      1 <0>        -0.4053
      5 C4          1.1300   -1.9755    0.3193 C.ar      1 <0>         0.0757
      6 C5          2.2998   -2.6119    0.7715 C.ar      1 <0>        -0.0427
      7 C6          2.3117   -3.2140    1.9917 C.ar      1 <0>        -0.1101
      8 C7          1.1789   -3.2102    2.8039 C.ar      1 <0>        -0.0328
      9 C8          0.0291   -2.6043    2.3996 C.ar      1 <0>        -0.1597
     10 C9         -0.0223   -1.9719    1.1459 C.ar      1 <0>         0.1168
     11 N2         -1.1390   -1.3635    0.7266 N.ar      1 <0>        -0.4268
     12 C10        -1.1845   -2.6122    3.2929 C.3       1 <0>         0.5197
     13 F1         -0.8882   -3.2975    4.4761 F         1 <0>        -0.1780
     14 F2         -1.5496   -1.2960    3.5953 F         1 <0>        -0.1684
     15 F3         -2.2425   -3.2506    2.6368 F         1 <0>        -0.1683
     16 C11        -0.0702   -0.1205   -2.5965 C.ar      1 <0>        -0.0484
     17 C12        -0.6560    1.1395   -2.7239 C.ar      1 <0>        -0.0886
     18 C13        -0.6996    1.7572   -3.9540 C.ar      1 <0>        -0.1105
     19 C14        -0.1583    1.1235   -5.0724 C.ar      1 <0>        -0.0301
     20 C15         0.4268   -0.1362   -4.9454 C.ar      1 <0>        -0.1127
     21 C16         0.4763   -0.7517   -3.7144 C.ar      1 <0>        -0.0692
     22 C17        -0.2055    1.7890   -6.3968 C.ar      1 <0>        -0.0668
     23 C18        -0.7850    3.0503   -6.5259 C.ar      1 <0>        -0.0545
     24 C19        -0.8261    3.6647   -7.7607 C.ar      1 <0>        -0.1337
     25 C20        -0.2940    3.0311   -8.8696 C.ar      1 <0>        -0.0209
     26 C21         0.2818    1.7795   -8.7476 C.ar      1 <0>        -0.6557
     27 C22         0.3345    1.1582   -7.5162 C.ar      1 <0>        -0.0149
     28 S1          0.9565    0.9800  -10.1654 S.o2      1 <0>         2.4985
     29 O1          0.8818   -0.4078   -9.8691 O.2       1 <0>        -0.9354
     30 O2          0.2400    1.5256  -11.2646 O.2       1 <0>        -0.9348
     31 C23         2.6890    1.5145  -10.2217 C.3       1 <0>        -0.6502
     32 H1         -2.3739    0.9580   -0.6879 H         1 <0>         0.0921
     33 H2         -2.5279   -0.2375   -1.9976 H         1 <0>         0.0906
     34 H3         -3.2852   -0.5467   -0.4167 H         1 <0>         0.0885
     35 H4          3.1849   -2.6231    0.1527 H         1 <0>         0.1516
     36 H5          3.2116   -3.7021    2.3357 H         1 <0>         0.1519
     37 H6          1.2140   -3.6954    3.7681 H         1 <0>         0.1539
     38 H7         -1.0754    1.6301   -1.8580 H         1 <0>         0.1347
     39 H8         -1.1533    2.7323   -4.0528 H         1 <0>         0.1337
     40 H9          0.8455   -0.6268   -5.8117 H         1 <0>         0.1346
     41 H10         0.9337   -1.7250   -3.6153 H         1 <0>         0.1326
     42 H11        -1.2013    3.5455   -5.6611 H         1 <0>         0.1363
     43 H12        -1.2748    4.6418   -7.8619 H         1 <0>         0.1381
     44 H13        -0.3286    3.5156   -9.8342 H         1 <0>         0.1449
     45 H14         0.7890    0.1831   -7.4211 H         1 <0>         0.1454
     46 H15         3.1943    1.2062   -9.3064 H         1 <0>         0.1320
     47 H16         3.1822    1.0585  -11.0802 H         1 <0>         0.1347
     48 H17         2.7317    2.5998  -10.3124 H         1 <0>         0.1323
@<TRIPOS>BOND
     1    1    2 1
     2    1   32 1
     3    1   33 1
     4    1   34 1
     5    2   11 ar
     6    2    3 ar
     7    3    4 ar
     8    3   16 1
     9    4    5 ar
    10    5   10 ar
    11    5    6 ar
    12    6    7 ar
    13    6   35 1
    14    7    8 ar
    15    7   36 1
    16    8    9 ar
    17    8   37 1
    18    9   10 ar
    19    9   12 1
    20   10   11 ar
    21   12   13 1
    22   12   14 1
    23   12   15 1
    24   16   21 ar
    25   16   17 ar
    26   17   18 ar
    27   17   38 1
    28   18   19 ar
    29   18   39 1
    30   19   20 ar
    31   19   22 1
    32   20   21 ar
    33   20   40 1
    34   21   41 1
    35   22   27 ar
    36   22   23 ar
    37   23   24 ar
    38   23   42 1
    39   24   25 ar
    40   24   43 1
    41   25   26 ar
    42   25   44 1
    43   26   27 ar
    44   26   28 1
    45   27   45 1
    46   28   29 2
    47   28   30 2
    48   28   31 1
    49   31   46 1
    50   31   47 1
    51   31   48 1
@<TRIPOS>MOLECULE
ZINC38149326
   91    96     0     0     0
SMALL
USER_CHARGES

@<TRIPOS>ATOM
      1 C1         -0.1193  -16.1182    0.0237 C.3       1 <0>        -0.1450
      2 C2         -1.1536  -15.0970   -0.3740 C.2       1 <0>         0.4566
      3 O1         -1.2509  -14.7536   -1.5284 O.2       1 <0>        -0.4942
      4 O2         -1.9671  -14.5687    0.5544 O.3       1 <0>        -0.2987
      5 C3         -2.8143  -13.5774    0.1708 C.ar      1 <0>         0.0811
      6 C4         -3.9593  -13.8787   -0.5523 C.ar      1 <0>        -0.1194
      7 C5         -4.8096  -12.8661   -0.9410 C.ar      1 <0>        -0.1050
      8 C6         -4.5343  -11.5437   -0.6144 C.ar      1 <0>        -0.0685
      9 C7         -3.4001  -11.2443    0.1116 C.ar      1 <0>        -0.0458
     10 C8         -2.5427  -12.2611    0.5043 C.ar      1 <0>        -0.1144
     11 C9         -3.0649   -9.8366    0.5150 C.3       1 <0>        -0.0117
     12 C10        -1.5619   -9.5789    0.4328 C.3       1 <0>        -0.1113
     13 C11        -1.2758   -8.1559    0.9235 C.3       1 <0>        -0.1363
     14 C12        -2.0309   -7.1443    0.0611 C.3       1 <0>        -0.1012
     15 C13        -3.5362   -7.4232    0.1233 C.3       1 <0>        -0.0437
     16 C14        -3.7962   -8.8405   -0.3835 C.3       1 <0>        -0.0670
     17 H1         -3.4277   -8.9342   -1.4050 H         1 <0>         0.0940
     18 C15        -5.2887   -9.1703   -0.3485 C.3       1 <0>        -0.1304
     19 C16        -5.5034  -10.4916   -1.0859 C.3       1 <0>        -0.0799
     20 C17        -4.2806   -6.4186   -0.7585 C.3       1 <0>        -0.1501
     21 C18        -4.0140   -7.3005    1.5473 C.2       1 <0>         0.4861
     22 O3         -3.2574   -6.9166    2.4075 O.2       1 <0>        -0.4509
     23 O4         -5.2831   -7.6184    1.8607 O.3       1 <0>        -0.3305
     24 C19        -5.6669   -7.4940    3.1441 C.2       1 <0>         0.4872
     25 O5         -4.8801   -7.1065    3.9750 O.2       1 <0>        -0.4515
     26 C20        -7.0783   -7.8378    3.5452 C.3       1 <0>        -0.0438
     27 C21        -7.2965   -7.4744    5.0176 C.3       1 <0>        -0.1011
     28 C22        -7.0772   -5.9756    5.2245 C.3       1 <0>        -0.1361
     29 C23        -8.0431   -5.1779    4.3422 C.3       1 <0>        -0.1107
     30 C24        -7.7970   -5.5488    2.8814 C.3       1 <0>        -0.0116
     31 C25        -8.0620   -7.0412    2.6900 C.3       1 <0>        -0.0676
     32 H2         -9.0815   -7.2718    2.9990 H         1 <0>         0.0938
     33 C26        -7.8919   -7.3712    1.2068 C.3       1 <0>        -0.1307
     34 C27        -9.0518   -6.7356    0.4409 C.3       1 <0>        -0.0799
     35 C28        -9.2362   -5.2921    0.8293 C.ar      1 <0>        -0.0690
     36 C29        -8.6647   -4.7423    1.9581 C.ar      1 <0>        -0.0449
     37 C30        -8.8848   -3.4074    2.2634 C.ar      1 <0>        -0.1133
     38 C31        -9.6698   -2.6183    1.4398 C.ar      1 <0>         0.0823
     39 C32       -10.2386   -3.1700    0.3010 C.ar      1 <0>        -0.1230
     40 C33       -10.0210   -4.4977    0.0021 C.ar      1 <0>        -0.1043
     41 O6         -9.8823   -1.3110    1.7455 O.3       1 <0>        -0.2983
     42 C34       -11.0765   -0.9687    2.2547 C.2       1 <0>         0.4569
     43 O7        -11.8902   -1.8235    2.5138 O.2       1 <0>        -0.4950
     44 C35       -11.4021    0.4816    2.5030 C.3       1 <0>        -0.1444
     45 C36        -6.3297   -5.2773    2.5433 C.3       1 <0>        -0.2179
     46 C37        -7.3185   -9.3352    3.3427 C.3       1 <0>        -0.1502
     47 C38        -3.5107   -9.6170    1.9621 C.3       1 <0>        -0.2140
     48 H3          0.4418  -16.4293   -0.8575 H         1 <0>         0.1055
     49 H4          0.5625  -15.6800    0.7526 H         1 <0>         0.1034
     50 H5         -0.6140  -16.9841    0.4637 H         1 <0>         0.1035
     51 H6         -4.1834  -14.9033   -0.8100 H         1 <0>         0.1264
     52 H7         -5.6992  -13.1028   -1.5058 H         1 <0>         0.1300
     53 H8         -1.6540  -12.0241    1.0703 H         1 <0>         0.1305
     54 H9         -1.0336  -10.2952    1.0621 H         1 <0>         0.0684
     55 H10        -1.2295   -9.6827   -0.6001 H         1 <0>         0.0690
     56 H11        -1.5978   -8.0592    1.9603 H         1 <0>         0.0862
     57 H12        -0.2057   -7.9592    0.8587 H         1 <0>         0.0705
     58 H13        -1.8341   -6.1372    0.4287 H         1 <0>         0.0761
     59 H14        -1.6907   -7.2237   -0.9714 H         1 <0>         0.0814
     60 H15        -5.6194   -9.2684    0.6855 H         1 <0>         0.0878
     61 H16        -5.8520   -8.3782   -0.8417 H         1 <0>         0.0811
     62 H17        -5.3636  -10.3307   -2.1548 H         1 <0>         0.0800
     63 H18        -6.5213  -10.8384   -0.9082 H         1 <0>         0.0803
     64 H19        -3.9366   -6.5144   -1.7884 H         1 <0>         0.0798
     65 H20        -5.3512   -6.6186   -0.7129 H         1 <0>         0.0745
     66 H21        -4.0845   -5.4073   -0.4024 H         1 <0>         0.0651
     67 H22        -8.3147   -7.7344    5.3072 H         1 <0>         0.0815
     68 H23        -6.5928   -8.0317    5.6359 H         1 <0>         0.0761
     69 H24        -7.2526   -5.7254    6.2709 H         1 <0>         0.0706
     70 H25        -6.0510   -5.7203    4.9603 H         1 <0>         0.0859
     71 H26        -9.0706   -5.4212    4.6127 H         1 <0>         0.0694
     72 H27        -7.8694   -4.1110    4.4824 H         1 <0>         0.0683
     73 H28        -6.9467   -6.9658    0.8458 H         1 <0>         0.0881
     74 H29        -7.9068   -8.4520    1.0664 H         1 <0>         0.0812
     75 H30        -8.8486   -6.7946   -0.6284 H         1 <0>         0.0803
     76 H31        -9.9678   -7.2843    0.6601 H         1 <0>         0.0800
     77 H32        -8.4408   -2.9803    3.1504 H         1 <0>         0.1302
     78 H33       -10.8495   -2.5612   -0.3490 H         1 <0>         0.1264
     79 H34       -10.4648   -4.9252   -0.8849 H         1 <0>         0.1301
     80 H35       -10.5533    1.0998    2.2106 H         1 <0>         0.0941
     81 H36       -12.2762    0.7634    1.9159 H         1 <0>         0.1093
     82 H37       -11.6123    0.6306    3.5621 H         1 <0>         0.1087
     83 H38        -5.7046   -5.5486    3.3940 H         1 <0>         0.0973
     84 H39        -6.0408   -5.8710    1.6761 H         1 <0>         0.0791
     85 H40        -6.1984   -4.2187    2.3190 H         1 <0>         0.0623
     86 H41        -6.6189   -9.9017    3.9573 H         1 <0>         0.0650
     87 H42        -8.3397   -9.5819    3.6334 H         1 <0>         0.0798
     88 H43        -7.1681   -9.5886    2.2934 H         1 <0>         0.0747
     89 H44        -3.2941  -10.5099    2.5484 H         1 <0>         0.0627
     90 H45        -2.9734   -8.7669    2.3827 H         1 <0>         0.0963
     91 H46        -4.5820   -9.4176    1.9860 H         1 <0>         0.0766
@<TRIPOS>BOND
     1    1    2 1
     2    1   48 1
     3    1   49 1
     4    1   50 1
     5    2    3 2
     6    2    4 1
     7    4    5 1
     8    5   10 ar
     9    5    6 ar
    10    6    7 ar
    11    6   51 1
    12    7    8 ar
    13    7   52 1
    14    8   19 1
    15    8    9 ar
    16    9   10 ar
    17    9   11 1
    18   10   53 1
    19   11   16 1
    20   11   12 1
    21   11   47 1
    22   12   13 1
    23   12   54 1
    24   12   55 1
    25   13   14 1
    26   13   56 1
    27   13   57 1
    28   14   15 1
    29   14   58 1
    30   14   59 1
    31   15   16 1
    32   15   20 1
    33   15   21 1
    34   16   17 1
    35   16   18 1
    36   18   19 1
    37   18   60 1
    38   18   61 1
    39   19   62 1
    40   19   63 1
    41   20   64 1
    42   20   65 1
    43   20   66 1
    44   21   22 2
    45   21   23 1
    46   23   24 1
    47   24   25 2
    48   24   26 1
    49   26   31 1
    50   26   27 1
    51   26   46 1
    52   27   28 1
    53   27   67 1
    54   27   68 1
    55   28   29 1
    56   28   69 1
    57   28   70 1
    58   29   30 1
    59   29   71 1
    60   29   72 1
    61   30   36 1
    62   30   31 1
    63   30   45 1
    64   31   32 1
    65   31   33 1
    66   33   34 1
    67   33   73 1
    68   33   74 1
    69   34   35 1
    70   34   75 1
    71   34   76 1
    72   35   40 ar
    73   35   36 ar
    74   36   37 ar
    75   37   38 ar
    76   37   77 1
    77   38   39 ar
    78   38   41 1
    79   39   40 ar
    80   39   78 1
    81   40   79 1
    82   41   42 1
    83   42   43 2
    84   42   44 1
    85   44   80 1
    86   44   81 1
    87   44   82 1
    88   45   83 1
    89   45   84 1
    90   45   85 1
    91   46   86 1
    92   46   87 1
    93   46   88 1
    94   47   89 1
    95   47   90 1
    96   47   91 1
@<TRIPOS>MOLECULE
ZINC14972810
   49    52     0     0     0
SMALL
USER_CHARGES
[(2S)-5-(4-chlorophenyl)-2-(2,3-dimethoxyphenyl)-2H-1,3,4-thiadiazol-3-yl]-(2,4,6-trifluorophenyl)methanone
@<TRIPOS>ATOM
      1 C1         -0.5655    3.2654    1.8555 C.3       1 <0>         0.0234
      2 O1          0.7016    2.6064    1.9047 O.3       1 <0>        -0.3041
      3 C2          0.9432    1.6615    0.9569 C.ar      1 <0>         0.1125
      4 C3         -0.0181    1.3752    0.0010 C.ar      1 <0>        -0.1795
      5 C4          0.2291    0.4143   -0.9617 C.ar      1 <0>        -0.0777
      6 C5          1.4343   -0.2630   -0.9732 C.ar      1 <0>        -0.1124
      7 C6          2.3975    0.0176   -0.0221 C.ar      1 <0>        -0.0798
      8 C7          2.1562    0.9798    0.9453 C.ar      1 <0>         0.0999
      9 O2          3.1026    1.2566    1.8819 O.3       1 <0>        -0.3223
     10 C8          3.9796    2.3526    1.6139 C.3       1 <0>         0.0323
     11 C9          3.7096   -0.7235   -0.0372 C.3       1 <0>         0.2074
     12 H1          4.2054   -0.6653    0.9318 H         1 <0>         0.1452
     13 N1          3.5297   -2.1282   -0.4677 N.am      1 <0>        -0.4365
     14 N2          4.1839   -2.4758   -1.6283 N.2       1 <0>        -0.2645
     15 C10         4.9133   -1.6417   -2.3118 C.2       1 <0>         0.2050
     16 S1          4.8047   -0.1183   -1.3867 S.3       1 <0>        -0.1575
     17 C11         5.6581   -1.8965   -3.5634 C.ar      1 <0>        -0.0195
     18 C12         6.3888   -0.8708   -4.1650 C.ar      1 <0>        -0.0650
     19 C13         7.0864   -1.1160   -5.3294 C.ar      1 <0>        -0.1079
     20 C14         7.0533   -2.3738   -5.9078 C.ar      1 <0>        -0.0115
     21 C15         6.3253   -3.3939   -5.3186 C.ar      1 <0>        -0.1103
     22 C16         5.6285   -3.1621   -4.1510 C.ar      1 <0>        -0.0555
     23 Cl1         7.9282   -2.6731   -7.3770 Cl        1 <0>        -0.0550
     24 C17         2.7782   -3.0050    0.2271 C.2       1 <0>         0.6098
     25 O3          2.2935   -2.6789    1.2946 O.2       1 <0>        -0.4637
     26 C18         2.5433   -4.3591   -0.3060 C.ar      1 <0>        -0.1959
     27 C19         3.4252   -5.4005    0.0059 C.ar      1 <0>         0.2044
     28 C20         3.1960   -6.6675   -0.4934 C.ar      1 <0>        -0.1998
     29 C21         2.1020   -6.9069   -1.3100 C.ar      1 <0>         0.1858
     30 C22         1.2274   -5.8796   -1.6275 C.ar      1 <0>        -0.2000
     31 C23         1.4406   -4.6086   -1.1314 C.ar      1 <0>         0.2017
     32 F1          0.5869   -3.6085   -1.4416 F         1 <0>        -0.1109
     33 F2          1.8868   -8.1479   -1.7987 F         1 <0>        -0.1128
     34 F3          4.4951   -5.1678    0.7972 F         1 <0>        -0.1100
     35 H2         -1.3621    2.5297    1.9657 H         1 <0>         0.0585
     36 H3         -0.6283    3.9929    2.6648 H         1 <0>         0.1045
     37 H4         -0.6724    3.7763    0.8986 H         1 <0>         0.0573
     38 H5         -0.9588    1.9058    0.0053 H         1 <0>         0.1395
     39 H6         -0.5211    0.1921   -1.7062 H         1 <0>         0.1356
     40 H7          1.6235   -1.0132   -1.7267 H         1 <0>         0.1229
     41 H8          4.4617    2.2042    0.6476 H         1 <0>         0.0444
     42 H9          3.4072    3.2800    1.5957 H         1 <0>         0.0532
     43 H10         4.7389    2.4095    2.3938 H         1 <0>         0.0988
     44 H11         6.4117    0.1118   -3.7172 H         1 <0>         0.1410
     45 H12         7.6561   -0.3243   -5.7932 H         1 <0>         0.1459
     46 H13         6.3029   -4.3727   -5.7744 H         1 <0>         0.1453
     47 H14         5.0614   -3.9585   -3.6922 H         1 <0>         0.1447
     48 H15         3.8732   -7.4730   -0.2503 H         1 <0>         0.1666
     49 H16         0.3773   -6.0735   -2.2648 H         1 <0>         0.1663
@<TRIPOS>BOND
     1    1    2 1
     2    1   35 1
     3    1   36 1
     4    1   37 1
     5    2    3 1
     6    3    8 ar
     7    3    4 ar
     8    4    5 ar
     9    4   38 1
    10    5    6 ar
    11    5   39 1
    12    6    7 ar
    13    6   40 1
    14    7    8 ar
    15    7   11 1
    16    8    9 1
    17    9   10 1
    18   10   41 1
    19   10   42 1
    20   10   43 1
    21   11   12 1
    22   11   16 1
    23   11   13 1
    24   13   14 1
    25   13   24 am
    26   14   15 2
    27   15   16 1
    28   15   17 1
    29   17   22 ar
    30   17   18 ar
    31   18   19 ar
    32   18   44 1
    33   19   20 ar
    34   19   45 1
    35   20   21 ar
    36   20   23 1
    37   21   22 ar
    38   21   46 1
    39   22   47 1
    40   24   25 2
    41   24   26 1
    42   26   31 ar
    43   26   27 ar
    44   27   28 ar
    45   27   34 1
    46   28   29 ar
    47   28   48 1
    48   29   30 ar
    49   29   33 1
    50   30   31 ar
    51   30   49 1
    52   31   32 1
@<TRIPOS>MOLECULE
ZINC14972814
   49    52     0     0     0
SMALL
USER_CHARGES
[(2R)-5-(4-chlorophenyl)-2-(2,3-dimethoxyphenyl)-2H-1,3,4-thiadiazol-3-yl]-(2,4,6-trifluorophenyl)methanone
@<TRIPOS>ATOM
      1 C1         -2.3752    0.0589    0.0241 C.3       1 <0>         0.0232
      2 O1         -1.1654   -0.7015    0.0090 O.3       1 <0>        -0.3034
      3 C2          0.0021   -0.0041    0.0020 C.ar      1 <0>         0.1169
      4 C3         -0.0167    1.3814    0.0096 C.ar      1 <0>        -0.1821
      5 C4          1.1710    2.0888    0.0021 C.ar      1 <0>        -0.0751
      6 C5          2.3792    1.4170   -0.0130 C.ar      1 <0>        -0.1131
      7 C6          2.4050    0.0349   -0.0207 C.ar      1 <0>        -0.0777
      8 C7          1.2182   -0.6803   -0.0132 C.ar      1 <0>         0.0899
      9 O2          1.2418   -2.0400   -0.0212 O.3       1 <0>        -0.3219
     10 C8          1.2412   -2.6814   -1.2982 C.3       1 <0>         0.0325
     11 C9          3.7239   -0.6941   -0.0367 C.3       1 <0>         0.2091
     12 H1          3.7481   -1.4802    0.7179 H         1 <0>         0.1458
     13 N1          4.8587    0.2426    0.1235 N.am      1 <0>        -0.4381
     14 N2          5.7335    0.2937   -0.9385 N.2       1 <0>        -0.2653
     15 C10         5.5888   -0.4236   -2.0154 C.2       1 <0>         0.1954
     16 S1          4.0999   -1.3609   -1.7102 S.3       1 <0>        -0.1481
     17 C11         6.4556   -0.4546   -3.2128 C.ar      1 <0>        -0.0189
     18 C12         6.1451   -1.2977   -4.2808 C.ar      1 <0>        -0.0652
     19 C13         6.9542   -1.3180   -5.3977 C.ar      1 <0>        -0.1080
     20 C14         8.0791   -0.5125   -5.4558 C.ar      1 <0>        -0.0117
     21 C15         8.3954    0.3219   -4.3969 C.ar      1 <0>        -0.1104
     22 C16         7.5906    0.3551   -3.2772 C.ar      1 <0>        -0.0559
     23 Cl1         9.0971   -0.5492   -6.8615 Cl        1 <0>        -0.0552
     24 C17         5.0239    0.9930    1.2308 C.2       1 <0>         0.6073
     25 O3          4.2238    0.9140    2.1443 O.2       1 <0>        -0.4653
     26 C18         6.1738    1.9094    1.3354 C.ar      1 <0>        -0.1960
     27 C19         6.0657    3.2285    0.8796 C.ar      1 <0>         0.2015
     28 C20         7.1456    4.0827    0.9858 C.ar      1 <0>        -0.1990
     29 C21         8.3376    3.6338    1.5323 C.ar      1 <0>         0.1863
     30 C22         8.4539    2.3274    1.9805 C.ar      1 <0>        -0.1991
     31 C23         7.3810    1.4631    1.8858 C.ar      1 <0>         0.2041
     32 F1          7.4964    0.1900    2.3228 F         1 <0>        -0.1100
     33 F2          9.3914    4.4736    1.6282 F         1 <0>        -0.1123
     34 F3          4.9063    3.6661    0.3415 F         1 <0>        -0.1117
     35 H2         -2.4176    0.6920   -0.8621 H         1 <0>         0.0572
     36 H3         -3.2297   -0.6179    0.0283 H         1 <0>         0.1045
     37 H4         -2.4013    0.6825    0.9178 H         1 <0>         0.0585
     38 H5         -0.9592    1.9087    0.0170 H         1 <0>         0.1396
     39 H6          1.1550    3.1687    0.0080 H         1 <0>         0.1353
     40 H7          3.3049    1.9732   -0.0189 H         1 <0>         0.1223
     41 H8          1.2613   -3.7626   -1.1617 H         1 <0>         0.0998
     42 H9          0.3410   -2.4009   -1.8452 H         1 <0>         0.0532
     43 H10         2.1207   -2.3698   -1.8617 H         1 <0>         0.0516
     44 H11         5.2705   -1.9297   -4.2347 H         1 <0>         0.1405
     45 H12         6.7127   -1.9670   -6.2264 H         1 <0>         0.1458
     46 H13         9.2742    0.9477   -4.4476 H         1 <0>         0.1451
     47 H14         7.8381    1.0065   -2.4520 H         1 <0>         0.1443
     48 H15         7.0624    5.1019    0.6383 H         1 <0>         0.1668
     49 H16         9.3859    1.9847    2.4053 H         1 <0>         0.1669
@<TRIPOS>BOND
     1    1    2 1
     2    1   35 1
     3    1   36 1
     4    1   37 1
     5    2    3 1
     6    3    8 ar
     7    3    4 ar
     8    4    5 ar
     9    4   38 1
    10    5    6 ar
    11    5   39 1
    12    6    7 ar
    13    6   40 1
    14    7    8 ar
    15    7   11 1
    16    8    9 1
    17    9   10 1
    18   10   41 1
    19   10   42 1
    20   10   43 1
    21   11   12 1
    22   11   16 1
    23   11   13 1
    24   13   14 1
    25   13   24 am
    26   14   15 2
    27   15   16 1
    28   15   17 1
    29   17   22 ar
    30   17   18 ar
    31   18   19 ar
    32   18   44 1
    33   19   20 ar
    34   19   45 1
    35   20   21 ar
    36   20   23 1
    37   21   22 ar
    38   21   46 1
    39   22   47 1
    40   24   25 2
    41   24   26 1
    42   26   31 ar
    43   26   27 ar
    44   27   28 ar
    45   27   34 1
    46   28   29 ar
    47   28   48 1
    48   29   30 ar
    49   29   33 1
    50   30   31 ar
    51   30   49 1
    52   31   32 1
@<TRIPOS>MOLECULE
ZINC40379749
   41    44     0     0     0
SMALL
USER_CHARGES

@<TRIPOS>ATOM
      1 C1          0.0926    0.8228    1.0450 C.ar      1 <0>        -0.1691
      2 C2          1.0412    1.5614    0.4125 C.ar      1 <0>         0.0001
      3 C3          2.3310    1.0294    0.2346 C.ar      1 <0>        -0.1907
      4 C4          2.6185   -0.3198    0.7414 C.ar      1 <0>         0.1322
      5 C5          1.5855   -1.0310    1.3893 C.ar      1 <0>        -0.1786
      6 C6          0.3628   -0.4589    1.5273 C.ar      1 <0>        -0.0037
      7 C7          1.8386   -2.4173    1.9233 C.3       1 <0>         0.5148
      8 F1          0.6710   -2.9088    2.5169 F         1 <0>        -0.1791
      9 F2          2.2179   -3.2597    0.8727 F         1 <0>        -0.1749
     10 F3          2.8620   -2.3703    2.8760 F         1 <0>        -0.1746
     11 N1          3.8813   -0.5800    0.4511 N.2       1 <0>        -0.2869
     12 N2          4.4384    0.5170   -0.2151 N.pl3     1 <0>        -0.3017
     13 C8          3.5129    1.4896   -0.3496 C.2       1 <0>         0.1688
     14 C9          3.7132    2.8007   -0.9966 C.ar      1 <0>        -0.0528
     15 C10         2.8751    3.2033   -2.0395 C.ar      1 <0>        -0.0503
     16 C11         3.0672    4.4294   -2.6403 C.ar      1 <0>        -0.1486
     17 C12         4.0894    5.2618   -2.2118 C.ar      1 <0>         0.1160
     18 C13         4.9242    4.8676   -1.1779 C.ar      1 <0>        -0.1517
     19 C14         4.7379    3.6466   -0.5650 C.ar      1 <0>        -0.0679
     20 F4          4.2730    6.4618   -2.8045 F         1 <0>        -0.1324
     21 C15         5.8203    0.5978   -0.6946 C.3       1 <0>         0.1560
     22 C16         5.9329   -0.1045   -2.0233 C.ar      1 <0>        -0.1276
     23 C17         6.0542   -1.4808   -2.0691 C.ar      1 <0>        -0.0413
     24 C18         6.1575   -2.1259   -3.2867 C.ar      1 <0>        -0.1503
     25 C19         6.1394   -1.3937   -4.4621 C.ar      1 <0>         0.1317
     26 C20         6.0175   -0.0157   -4.4162 C.ar      1 <0>        -0.1512
     27 C21         5.9089    0.6281   -3.1966 C.ar      1 <0>         0.0089
     28 Cl1         5.7499    2.3558   -3.1381 Cl        1 <0>        -0.0396
     29 F5          6.2413   -2.0239   -5.6527 F         1 <0>        -0.1261
     30 H1         -0.8943    1.2395    1.1820 H         1 <0>         0.1379
     31 H2          0.8063    2.5506    0.0483 H         1 <0>         0.1330
     32 H3         -0.4222   -1.0098    2.0239 H         1 <0>         0.1442
     33 H4          2.0788    2.5553   -2.3747 H         1 <0>         0.1402
     34 H5          2.4200    4.7418   -3.4465 H         1 <0>         0.1448
     35 H6          5.7192    5.5202   -0.8486 H         1 <0>         0.1440
     36 H7          5.3857    3.3428    0.2439 H         1 <0>         0.1362
     37 H8          6.1039    1.6437   -0.8113 H         1 <0>         0.1184
     38 H9          6.4836    0.1198    0.0263 H         1 <0>         0.1217
     39 H10         6.0686   -2.0521   -1.1527 H         1 <0>         0.1501
     40 H11         6.2526   -3.2012   -3.3218 H         1 <0>         0.1488
     41 H12         6.0037    0.5563   -5.3322 H         1 <0>         0.1513
@<TRIPOS>BOND
     1    1    6 ar
     2    1    2 ar
     3    1   30 1
     4    2    3 ar
     5    2   31 1
     6    3   13 2
     7    3    4 ar
     8    4    5 ar
     9    4   11 2
    10    5    6 ar
    11    5    7 1
    12    6   32 1
    13    7    8 1
    14    7    9 1
    15    7   10 1
    16   11   12 1
    17   12   13 1
    18   12   21 1
    19   13   14 1
    20   14   19 ar
    21   14   15 ar
    22   15   16 ar
    23   15   33 1
    24   16   17 ar
    25   16   34 1
    26   17   18 ar
    27   17   20 1
    28   18   19 ar
    29   18   35 1
    30   19   36 1
    31   21   22 1
    32   21   37 1
    33   21   38 1
    34   22   27 ar
    35   22   23 ar
    36   23   24 ar
    37   23   39 1
    38   24   25 ar
    39   24   40 1
    40   25   26 ar
    41   25   29 1
    42   26   27 ar
    43   26   41 1
    44   27   28 1
@<TRIPOS>MOLECULE
ZINC34946707
   50    51     0     0     0
SMALL
USER_CHARGES

@<TRIPOS>ATOM
      1 C1          0.3857    1.2650    0.2091 C.3       1 <0>        -0.1534
      2 C2          0.2594   -0.2569    0.1149 C.3       1 <0>        -0.1226
      3 C3         -1.2199   -0.6473    0.1215 C.3       1 <0>        -0.1399
      4 C4         -1.3462   -2.1692    0.0273 C.3       1 <0>         0.1179
      5 N1         -2.7627   -2.5430    0.0336 N.pl3     1 <0>        -0.6143
      6 C5         -3.4978   -2.6493   -1.2292 C.3       1 <0>         0.1608
      7 C6         -3.3885   -4.0566   -1.7571 C.ar      1 <0>        -0.0956
      8 C7         -2.3448   -4.3995   -2.5964 C.ar      1 <0>        -0.0782
      9 C8         -2.2417   -5.6900   -3.0819 C.ar      1 <0>        -0.0537
     10 C9         -3.1874   -6.6415   -2.7260 C.ar      1 <0>         0.1307
     11 C10        -4.2341   -6.2943   -1.8833 C.ar      1 <0>        -0.0522
     12 C11        -4.3291   -5.0037   -1.3966 C.ar      1 <0>        -0.0783
     13 Cl1        -5.4195   -7.4810   -1.4359 Cl        1 <0>        -0.0377
     14 O1         -3.0888   -7.9110   -3.2022 O.3       1 <0>        -0.4744
     15 Cl2        -0.9311   -6.1196   -4.1362 Cl        1 <0>        -0.0400
     16 C12        -3.4123   -2.7980    1.2434 C.ar      1 <0>         0.2470
     17 C13        -2.7182   -2.6920    2.4421 C.ar      1 <0>        -0.1935
     18 C14        -3.3637   -2.9444    3.6366 C.ar      1 <0>        -0.0236
     19 C15        -4.6993   -3.3027    3.6404 C.ar      1 <0>        -0.2210
     20 C16        -5.3933   -3.4091    2.4490 C.ar      1 <0>        -0.0431
     21 C17        -4.7554   -3.1525    1.2512 C.ar      1 <0>        -0.1968
     22 C18        -5.4001   -3.5783    4.9457 C.3       1 <0>         0.1119
     23 C19        -6.5899   -2.6282    5.0964 C.3       1 <0>         0.4778
     24 F1         -7.5402   -2.9108    4.1094 F         1 <0>        -0.1600
     25 F2         -7.1653   -2.7983    6.3602 F         1 <0>        -0.1596
     26 F3         -6.1519   -1.3068    4.9574 F         1 <0>        -0.1535
     27 C20        -5.8975   -5.0251    4.9620 C.3       1 <0>         0.4328
     28 F4         -4.8097   -5.8939    4.8242 F         1 <0>        -0.1631
     29 F5         -6.5481   -5.2810    6.1738 F         1 <0>        -0.1615
     30 F6         -6.7897   -5.2234    3.9028 F         1 <0>        -0.1618
     31 O2         -4.4888   -3.3758    6.0276 O.3       1 <0>        -0.5019
     32 H1          1.4396    1.5431    0.2044 H         1 <0>         0.0556
     33 H2         -0.1151    1.7245   -0.6430 H         1 <0>         0.0539
     34 H3         -0.0774    1.6115    1.1330 H         1 <0>         0.0546
     35 H4          0.7226   -0.6034   -0.8090 H         1 <0>         0.0627
     36 H5          0.7603   -0.7165    0.9670 H         1 <0>         0.0630
     37 H6         -1.6830   -0.3008    1.0453 H         1 <0>         0.0685
     38 H7         -1.7207   -0.1877   -0.7306 H         1 <0>         0.0659
     39 H8         -0.8831   -2.5157   -0.8966 H         1 <0>         0.0774
     40 H9         -0.8453   -2.6287    0.8794 H         1 <0>         0.0799
     41 H10        -4.5466   -2.4048   -1.0607 H         1 <0>         0.0948
     42 H11        -3.0750   -1.9550   -1.9553 H         1 <0>         0.0959
     43 H12        -1.6094   -3.6586   -2.8733 H         1 <0>         0.1426
     44 H13        -5.1409   -4.7341   -0.7373 H         1 <0>         0.1448
     45 H14        -2.5707   -8.5030   -2.6398 H         1 <0>         0.3977
     46 H15        -1.6749   -2.4129    2.4398 H         1 <0>         0.1333
     47 H16        -2.8247   -2.8622    4.5688 H         1 <0>         0.1332
     48 H17        -6.4363   -3.6891    2.4554 H         1 <0>         0.1399
     49 H18        -5.2991   -3.2314    0.3214 H         1 <0>         0.1311
     50 H19        -3.7085   -3.9461    5.9967 H         1 <0>         0.4062
@<TRIPOS>BOND
     1    1    2 1
     2    1   32 1
     3    1   33 1
     4    1   34 1
     5    2    3 1
     6    2   35 1
     7    2   36 1
     8    3    4 1
     9    3   37 1
    10    3   38 1
    11    4    5 1
    12    4   39 1
    13    4   40 1
    14    5    6 1
    15    5   16 1
    16    6    7 1
    17    6   41 1
    18    6   42 1
    19    7   12 ar
    20    7    8 ar
    21    8    9 ar
    22    8   43 1
    23    9   10 ar
    24    9   15 1
    25   10   11 ar
    26   10   14 1
    27   11   12 ar
    28   11   13 1
    29   12   44 1
    30   14   45 1
    31   16   21 ar
    32   16   17 ar
    33   17   18 ar
    34   17   46 1
    35   18   19 ar
    36   18   47 1
    37   19   20 ar
    38   19   22 1
    39   20   21 ar
    40   20   48 1
    41   21   49 1
    42   22   23 1
    43   22   27 1
    44   22   31 1
    45   23   24 1
    46   23   25 1
    47   23   26 1
    48   27   28 1
    49   27   29 1
    50   27   30 1
    51   31   50 1
@<TRIPOS>MOLECULE
ZINC02072446
   50    52     0     0     0
SMALL
USER_CHARGES
2-(4-dibenzylaminophenyl)-1,1,1,3,3,3-hexafluoro-propan-2-ol
@<TRIPOS>ATOM
      1 C1          5.6019   -2.0699    3.2371 C.ar      1 <0>        -0.1147
      2 C2          4.4420   -2.6367    2.7427 C.ar      1 <0>        -0.1201
      3 C3          3.7984   -2.0630    1.6622 C.ar      1 <0>        -0.1069
      4 C4          4.3142   -0.9219    1.0766 C.ar      1 <0>        -0.1107
      5 C5          5.4737   -0.3548    1.5713 C.ar      1 <0>        -0.1028
      6 C6          6.1176   -0.9288    2.6515 C.ar      1 <0>        -0.1187
      7 C7          3.6125   -0.2964   -0.1013 C.3       1 <0>         0.1587
      8 N1          4.1586   -0.8475   -1.3440 N.pl3     1 <0>        -0.6061
      9 C8          3.6191   -2.0946   -1.8916 C.3       1 <0>         0.1584
     10 C9          2.4338   -1.7863   -2.7697 C.ar      1 <0>        -0.1098
     11 C10         1.1738   -1.6683   -2.2135 C.ar      1 <0>        -0.1064
     12 C11         0.0873   -1.3803   -3.0182 C.ar      1 <0>        -0.1201
     13 C12         0.2591   -1.2212   -4.3806 C.ar      1 <0>        -0.1149
     14 C13         1.5183   -1.3449   -4.9375 C.ar      1 <0>        -0.1184
     15 C14         2.6056   -1.6272   -4.1320 C.ar      1 <0>        -0.1033
     16 C15         5.1937   -0.1839   -2.0067 C.ar      1 <0>         0.2520
     17 C16         5.7025    1.0018   -1.4919 C.ar      1 <0>        -0.1992
     18 C17         6.7292    1.6528   -2.1471 C.ar      1 <0>        -0.0233
     19 C18         7.2436    1.1312   -3.3200 C.ar      1 <0>        -0.2238
     20 C19         6.7358   -0.0461   -3.8381 C.ar      1 <0>        -0.0430
     21 C20         5.7127   -0.7050   -3.1851 C.ar      1 <0>        -0.1936
     22 C21         8.3603    1.8472   -4.0351 C.3       1 <0>         0.1128
     23 C22         9.5712    0.9188   -4.1485 C.3       1 <0>         0.4776
     24 F1          9.2525   -0.1644   -4.9744 F         1 <0>        -0.1602
     25 F2         10.6486    1.6225   -4.6973 F         1 <0>        -0.1600
     26 F3          9.9196    0.4495   -2.8774 F         1 <0>        -0.1536
     27 C23         7.8937    2.2501   -5.4354 C.3       1 <0>         0.4330
     28 F4          6.7865    3.0990   -5.3317 F         1 <0>        -0.1631
     29 F5          8.9304    2.9148   -6.0991 F         1 <0>        -0.1619
     30 F6          7.5374    1.1049   -6.1557 F         1 <0>        -0.1621
     31 O1          8.7242    3.0170   -3.2993 O.3       1 <0>        -0.5023
     32 H1          6.1075   -2.5211    4.0780 H         1 <0>         0.1222
     33 H2          4.0393   -3.5284    3.1999 H         1 <0>         0.1225
     34 H3          2.8925   -2.5060    1.2757 H         1 <0>         0.1191
     35 H4          5.8768    0.5365    1.1137 H         1 <0>         0.1217
     36 H5          7.0237   -0.4859    3.0378 H         1 <0>         0.1229
     37 H6          2.5457   -0.5130   -0.0457 H         1 <0>         0.0855
     38 H7          3.7655    0.7827   -0.0843 H         1 <0>         0.0890
     39 H8          4.3875   -2.5950   -2.4809 H         1 <0>         0.0885
     40 H9          3.3067   -2.7450   -1.0746 H         1 <0>         0.0864
     41 H10         1.0388   -1.7969   -1.1497 H         1 <0>         0.1187
     42 H11        -0.8964   -1.2833   -2.5830 H         1 <0>         0.1224
     43 H12        -0.5903   -0.9999   -5.0098 H         1 <0>         0.1222
     44 H13         1.6525   -1.2205   -6.0019 H         1 <0>         0.1230
     45 H14         3.5894   -1.7238   -4.5671 H         1 <0>         0.1214
     46 H15         5.2983    1.4120   -0.5783 H         1 <0>         0.1320
     47 H16         7.1281    2.5725   -1.7453 H         1 <0>         0.1327
     48 H17         7.1400   -0.4509   -4.7541 H         1 <0>         0.1389
     49 H18         5.3168   -1.6247   -3.5900 H         1 <0>         0.1315
     50 H19         8.0033    3.6518   -3.1882 H         1 <0>         0.4062
@<TRIPOS>BOND
     1    1    6 ar
     2    1    2 ar
     3    1   32 1
     4    2    3 ar
     5    2   33 1
     6    3    4 ar
     7    3   34 1
     8    4    5 ar
     9    4    7 1
    10    5    6 ar
    11    5   35 1
    12    6   36 1
    13    7    8 1
    14    7   37 1
    15    7   38 1
    16    8    9 1
    17    8   16 1
    18    9   10 1
    19    9   39 1
    20    9   40 1
    21   10   15 ar
    22   10   11 ar
    23   11   12 ar
    24   11   41 1
    25   12   13 ar
    26   12   42 1
    27   13   14 ar
    28   13   43 1
    29   14   15 ar
    30   14   44 1
    31   15   45 1
    32   16   21 ar
    33   16   17 ar
    34   17   18 ar
    35   17   46 1
    36   18   19 ar
    37   18   47 1
    38   19   20 ar
    39   19   22 1
    40   20   21 ar
    41   20   48 1
    42   21   49 1
    43   22   23 1
    44   22   27 1
    45   22   31 1
    46   23   24 1
    47   23   25 1
    48   23   26 1
    49   27   28 1
    50   27   29 1
    51   27   30 1
    52   31   50 1
@<TRIPOS>MOLECULE
ZINC24780352
   71    74     0     0     0
SMALL
USER_CHARGES
2-[3-[3-[[2-chloro-3-(trifluoromethyl)phenyl]methyl-(2,2-diphenylethyl)amino]propoxy]phenyl]acetic acid
@<TRIPOS>ATOM
      1 C1         -1.8849   -8.5621    2.0779 C.ar      1 <0>        -0.1241
      2 C2         -2.8758   -7.8587    2.7370 C.ar      1 <0>        -0.1175
      3 C3         -3.0188   -6.5007    2.5224 C.ar      1 <0>        -0.1109
      4 C4         -2.1712   -5.8460    1.6483 C.ar      1 <0>        -0.0675
      5 C5         -1.1840   -6.5505    0.9848 C.ar      1 <0>        -0.1144
      6 C6         -1.0377   -7.9076    1.2035 C.ar      1 <0>        -0.1188
      7 C7         -2.3274   -4.3656    1.4140 C.3       1 <0>        -0.0043
      8 C8         -2.3804   -4.0901   -0.0901 C.3       1 <0>         0.0638
      9 N1         -2.7378   -2.6836   -0.3180 N.3       1 <0>        -0.5204
     10 C9         -1.5726   -1.8080   -0.1352 C.3       1 <0>         0.0426
     11 C10        -2.0224   -0.3461   -0.1715 C.3       1 <0>        -0.1165
     12 C11        -0.8088    0.5659    0.0189 C.3       1 <0>         0.0641
     13 O1         -1.2290    1.9313   -0.0149 O.3       1 <0>        -0.3156
     14 C12        -0.2657    2.8773    0.1404 C.ar      1 <0>         0.1273
     15 C13         1.0561    2.4990    0.3274 C.ar      1 <0>        -0.2257
     16 C14         2.0340    3.4625    0.4798 C.ar      1 <0>        -0.0830
     17 C15         1.6951    4.8030    0.4565 C.ar      1 <0>        -0.1497
     18 C16         0.3781    5.1824    0.2761 C.ar      1 <0>         0.0088
     19 C17        -0.6031    4.2225    0.1179 C.ar      1 <0>        -0.1441
     20 C18         0.0122    6.6441    0.2523 C.3       1 <0>        -0.1340
     21 C19        -0.3098    7.1041    1.6507 C.2       1 <0>         0.4665
     22 O2         -0.2485    6.3250    2.5722 O.co2     1 <0>        -0.6290
     23 O3         -0.6648    8.3795    1.8727 O.co2     1 <0>        -0.7722
     24 C20        -3.3305   -2.5001   -1.6496 C.3       1 <0>         0.0814
     25 C21        -4.7103   -3.1055   -1.6730 C.ar      1 <0>        -0.0705
     26 C22        -4.9296   -4.3011   -2.3315 C.ar      1 <0>        -0.0729
     27 C23        -6.1952   -4.8562   -2.3535 C.ar      1 <0>        -0.1182
     28 C24        -7.2426   -4.2162   -1.7171 C.ar      1 <0>        -0.0625
     29 C25        -7.0245   -3.0212   -1.0582 C.ar      1 <0>        -0.1811
     30 C26        -5.7566   -2.4679   -1.0309 C.ar      1 <0>         0.0292
     31 Cl1        -5.4803   -0.9704   -0.1973 Cl        1 <0>        -0.0211
     32 C27        -8.1664   -2.3235   -0.3650 C.3       1 <0>         0.5086
     33 F1         -9.3192   -3.1107   -0.4577 F         1 <0>        -0.1773
     34 F2         -7.8436   -2.1261    0.9819 F         1 <0>        -0.1678
     35 F3         -8.3964   -1.0860   -0.9757 F         1 <0>        -0.1696
     36 C28        -1.1556   -3.6351    2.0175 C.ar      1 <0>        -0.0620
     37 C29         0.1079   -3.7908    1.4786 C.ar      1 <0>        -0.1240
     38 C30         1.1820   -3.1169    2.0293 C.ar      1 <0>        -0.1178
     39 C31         0.9943   -2.2953    3.1249 C.ar      1 <0>        -0.1220
     40 C32        -0.2682   -2.1440    3.6673 C.ar      1 <0>        -0.1120
     41 C33        -1.3432   -2.8138    3.1135 C.ar      1 <0>        -0.1104
     42 H1         -1.7730   -9.6231    2.2458 H         1 <0>         0.1191
     43 H2         -3.5379   -8.3702    3.4199 H         1 <0>         0.1207
     44 H3         -3.7929   -5.9512    3.0373 H         1 <0>         0.1216
     45 H4         -0.5247   -6.0399    0.2986 H         1 <0>         0.1195
     46 H5         -0.2638   -8.4572    0.6882 H         1 <0>         0.1196
     47 H6         -3.2533   -4.0211    1.8978 H         1 <0>         0.0972
     48 H7         -1.3956   -4.2950   -0.5353 H         1 <0>         0.0448
     49 H8         -3.1356   -4.7404   -0.5556 H         1 <0>         0.0798
     50 H9         -1.1014   -2.0226    0.8353 H         1 <0>         0.1063
     51 H10        -0.8478   -1.9888   -0.9427 H         1 <0>         0.0349
     52 H11        -2.4936   -0.1315   -1.1420 H         1 <0>         0.0711
     53 H12        -2.7472   -0.1653    0.6360 H         1 <0>         0.0836
     54 H13        -0.3375    0.3512    0.9894 H         1 <0>         0.0602
     55 H14        -0.0840    0.3852   -0.7886 H         1 <0>         0.0553
     56 H15         1.3206    1.4521    0.3501 H         1 <0>         0.1175
     57 H16         3.0636    3.1686    0.6212 H         1 <0>         0.1166
     58 H17         2.4606    5.5548    0.5799 H         1 <0>         0.1172
     59 H18        -1.6318    4.5195   -0.0234 H         1 <0>         0.1231
     60 H19         0.8582    7.2275   -0.1399 H         1 <0>         0.0787
     61 H20        -0.8658    6.7918   -0.3936 H         1 <0>         0.0780
     62 H21        -3.3975   -1.4258   -1.8762 H         1 <0>         0.1013
     63 H22        -2.7001   -2.9951   -2.4030 H         1 <0>         0.0531
     64 H23        -4.1119   -4.8013   -2.8290 H         1 <0>         0.1374
     65 H24        -6.3661   -5.7901   -2.8683 H         1 <0>         0.1398
     66 H25        -8.2313   -4.6505   -1.7347 H         1 <0>         0.1450
     67 H26         0.2552   -4.4360    0.6251 H         1 <0>         0.1174
     68 H27         2.1684   -3.2354    1.6057 H         1 <0>         0.1194
     69 H28         1.8341   -1.7717    3.5574 H         1 <0>         0.1210
     70 H29        -0.4147   -1.5023    4.5236 H         1 <0>         0.1229
     71 H30        -2.3295   -2.6956    3.5372 H         1 <0>         0.1221
@<TRIPOS>BOND
     1    1    6 ar
     2    1    2 ar
     3    1   42 1
     4    2    3 ar
     5    2   43 1
     6    3    4 ar
     7    3   44 1
     8    4    5 ar
     9    4    7 1
    10    5    6 ar
    11    5   45 1
    12    6   46 1
    13    7    8 1
    14    7   36 1
    15    7   47 1
    16    8    9 1
    17    8   48 1
    18    8   49 1
    19    9   10 1
    20    9   24 1
    21   10   11 1
    22   10   50 1
    23   10   51 1
    24   11   12 1
    25   11   52 1
    26   11   53 1
    27   12   13 1
    28   12   54 1
    29   12   55 1
    30   13   14 1
    31   14   19 ar
    32   14   15 ar
    33   15   16 ar
    34   15   56 1
    35   16   17 ar
    36   16   57 1
    37   17   18 ar
    38   17   58 1
    39   18   19 ar
    40   18   20 1
    41   19   59 1
    42   20   21 1
    43   20   60 1
    44   20   61 1
    45   21   22 2
    46   21   23 1
    47   24   25 1
    48   24   62 1
    49   24   63 1
    50   25   30 ar
    51   25   26 ar
    52   26   27 ar
    53   26   64 1
    54   27   28 ar
    55   27   65 1
    56   28   29 ar
    57   28   66 1
    58   29   30 ar
    59   29   32 1
    60   30   31 1
    61   32   33 1
    62   32   34 1
    63   32   35 1
    64   36   41 ar
    65   36   37 ar
    66   37   38 ar
    67   37   67 1
    68   38   39 ar
    69   38   68 1
    70   39   40 ar
    71   39   69 1
    72   40   41 ar
    73   40   70 1
    74   41   71 1
@<TRIPOS>MOLECULE
ZINC01550221
   43    44     0     0     0
SMALL
USER_CHARGES

@<TRIPOS>ATOM
      1 C1         -0.6297    0.7629    2.2158 C.ar      1 <0>        -0.0574
      2 C2          0.4620    1.5482    1.8958 C.ar      1 <0>        -0.1372
      3 C3          1.6604    0.9557    1.5444 C.ar      1 <0>        -0.0160
      4 C4          1.7673   -0.4222    1.5134 C.ar      1 <0>        -0.6780
      5 C5          0.6759   -1.2075    1.8343 C.ar      1 <0>        -0.0229
      6 C6         -0.5230   -0.6149    2.1844 C.ar      1 <0>        -0.1372
      7 S1          3.2945   -1.1775    1.0643 S.o2      1 <0>         2.6737
      8 O1          2.9791   -2.4769    0.5834 O.2       1 <0>        -0.9263
      9 O2          4.0031   -0.2266    0.2813 O.2       1 <0>        -0.9290
     10 N1          4.1655   -1.3868    2.4572 N.pl3     1 <0>        -0.9456
     11 C7          3.9759   -2.5941    3.2651 C.3       1 <0>         0.0784
     12 C8          5.0302   -3.6347    2.8822 C.3       1 <0>         0.4320
     13 F1          6.3070   -3.1129    3.1159 F         1 <0>        -0.1750
     14 F2          4.8492   -4.7876    3.6537 F         1 <0>        -0.1753
     15 F3          4.8982   -3.9552    1.5268 F         1 <0>        -0.1671
     16 C9          5.0807   -0.4124    2.8617 C.ar      1 <0>         0.1498
     17 C10         4.9209    0.2282    4.0838 C.ar      1 <0>        -0.1108
     18 C11         5.8280    1.1909    4.4809 C.ar      1 <0>        -0.0642
     19 C12         6.8942    1.5178    3.6632 C.ar      1 <0>        -0.1536
     20 C13         7.0562    0.8820    2.4459 C.ar      1 <0>        -0.0791
     21 C14         6.1561   -0.0857    2.0452 C.ar      1 <0>        -0.0875
     22 C15         7.8814    2.5695    4.0994 C.3       1 <0>         0.1000
     23 C16         9.2743    1.9464    4.2114 C.3       1 <0>         0.4796
     24 F4          9.7115    1.5508    2.9427 F         1 <0>        -0.1570
     25 F5         10.1650    2.8872    4.7393 F         1 <0>        -0.1557
     26 F6          9.2199    0.8313    5.0545 F         1 <0>        -0.1518
     27 C17         7.9100    3.7006    3.0695 C.3       1 <0>         0.4350
     28 F7          6.6364    4.2704    2.9671 F         1 <0>        -0.1614
     29 F8          8.8265    4.6769    3.4744 F         1 <0>        -0.1572
     30 F9          8.2933    3.1887    1.8252 F         1 <0>        -0.1584
     31 O3          7.4899    3.0924    5.3704 O.3       1 <0>        -0.4973
     32 H1         -1.5647    1.2259    2.4948 H         1 <0>         0.1347
     33 H2          0.3785    2.6247    1.9200 H         1 <0>         0.1364
     34 H3          2.5131    1.5692    1.2936 H         1 <0>         0.1407
     35 H4          0.7593   -2.2840    1.8098 H         1 <0>         0.1413
     36 H5         -1.3758   -1.2285    2.4348 H         1 <0>         0.1369
     37 H6          4.0787   -2.3444    4.3212 H         1 <0>         0.1355
     38 H7          2.9811   -3.0007    3.0830 H         1 <0>         0.1352
     39 H8          4.0880   -0.0260    4.7226 H         1 <0>         0.1426
     40 H9          5.7043    1.6894    5.4310 H         1 <0>         0.1450
     41 H10         7.8900    1.1396    1.8096 H         1 <0>         0.1518
     42 H11         6.2858   -0.5851    1.0964 H         1 <0>         0.1444
     43 H12         6.6147    3.5036    5.3738 H         1 <0>         0.4080
@<TRIPOS>BOND
     1    1    6 ar
     2    1    2 ar
     3    1   32 1
     4    2    3 ar
     5    2   33 1
     6    3    4 ar
     7    3   34 1
     8    4    5 ar
     9    4    7 1
    10    5    6 ar
    11    5   35 1
    12    6   36 1
    13    7    8 2
    14    7    9 2
    15    7   10 1
    16   10   11 1
    17   10   16 1
    18   11   12 1
    19   11   37 1
    20   11   38 1
    21   12   13 1
    22   12   14 1
    23   12   15 1
    24   16   21 ar
    25   16   17 ar
    26   17   18 ar
    27   17   39 1
    28   18   19 ar
    29   18   40 1
    30   19   20 ar
    31   19   22 1
    32   20   21 ar
    33   20   41 1
    34   21   42 1
    35   22   23 1
    36   22   27 1
    37   22   31 1
    38   23   24 1
    39   23   25 1
    40   23   26 1
    41   27   28 1
    42   27   29 1
    43   27   30 1
    44   31   43 1
@<TRIPOS>MOLECULE
ZINC01550221
   42    43     0     0     0
SMALL
USER_CHARGES

@<TRIPOS>ATOM
      1 C1         -0.6209    0.7744    2.1519 C.ar      1 <0>        -0.0628
      2 C2          0.4765    1.5530    1.8350 C.ar      1 <0>        -0.1374
      3 C3          1.6764    0.9532    1.5015 C.ar      1 <0>        -0.0107
      4 C4          1.7790   -0.4252    1.4853 C.ar      1 <0>        -0.6752
      5 C5          0.6819   -1.2038    1.8030 C.ar      1 <0>        -0.0254
      6 C6         -0.5184   -0.6040    2.1352 C.ar      1 <0>        -0.1422
      7 S1          3.3082   -1.1898    1.0590 S.o2      1 <0>         2.6753
      8 O1          2.9933   -2.4930    0.5879 O.2       1 <0>        -0.9404
      9 O2          4.0277   -0.2491    0.2738 O.2       1 <0>        -0.9284
     10 N1          4.1645   -1.3881    2.4625 N.pl3     1 <0>        -0.9347
     11 C7          3.9617   -2.5859    3.2813 C.3       1 <0>         0.0812
     12 C8          5.0151   -3.6351    2.9198 C.3       1 <0>         0.4306
     13 F1          6.2918   -3.1162    3.1605 F         1 <0>        -0.1696
     14 F2          4.8215   -4.7789    3.7017 F         1 <0>        -0.1820
     15 F3          4.8951   -3.9693    1.5666 F         1 <0>        -0.1711
     16 C9          5.0800   -0.4133    2.8657 C.ar      1 <0>         0.1037
     17 C10         4.9095    0.2427    4.0782 C.ar      1 <0>        -0.1270
     18 C11         5.8168    1.2057    4.4740 C.ar      1 <0>        -0.0497
     19 C12         6.8939    1.5174    3.6646 C.ar      1 <0>        -0.0863
     20 C13         7.0666    0.8662    2.4570 C.ar      1 <0>        -0.1086
     21 C14         6.1662   -0.1018    2.0577 C.ar      1 <0>        -0.1002
     22 C15         7.8814    2.5695    4.0994 C.3       1 <0>         0.1648
     23 C16         9.2743    1.9464    4.2114 C.3       1 <0>         0.4170
     24 F4          9.7115    1.5508    2.9427 F         1 <0>        -0.2030
     25 F5         10.1650    2.8872    4.7393 F         1 <0>        -0.1827
     26 F6          9.2199    0.8313    5.0545 F         1 <0>        -0.1838
     27 C17         7.9096    3.6996    3.0684 C.3       1 <0>         0.4172
     28 F7          6.6360    4.2694    2.9660 F         1 <0>        -0.1828
     29 F8          8.8264    4.6763    3.4720 F         1 <0>        -0.1853
     30 F9          8.2923    3.1865    1.8244 F         1 <0>        -0.2014
     31 O3          7.4905    3.0936    5.3701 O.3       1 <0>        -0.7784
     32 H1         -1.5572    1.2431    2.4168 H         1 <0>         0.1311
     33 H2          0.3963    2.6300    1.8477 H         1 <0>         0.1354
     34 H3          2.5336    1.5615    1.2532 H         1 <0>         0.1439
     35 H4          0.7620   -2.2808    1.7900 H         1 <0>         0.1388
     36 H5         -1.3757   -1.2123    2.3830 H         1 <0>         0.1327
     37 H6          4.0552   -2.3255    4.3356 H         1 <0>         0.1333
     38 H7          2.9670   -2.9902    3.0937 H         1 <0>         0.1265
     39 H8          4.0682    0.0003    4.7104 H         1 <0>         0.1237
     40 H9          5.6849    1.7162    5.4166 H         1 <0>         0.1480
     41 H10         7.9088    1.1121    1.8272 H         1 <0>         0.1408
     42 H11         6.3041   -0.6132    1.1165 H         1 <0>         0.1251
@<TRIPOS>BOND
     1    1    6 ar
     2    1    2 ar
     3    1   32 1
     4    2    3 ar
     5    2   33 1
     6    3    4 ar
     7    3   34 1
     8    4    5 ar
     9    4    7 1
    10    5    6 ar
    11    5   35 1
    12    6   36 1
    13    7    8 2
    14    7    9 2
    15    7   10 1
    16   10   11 1
    17   10   16 1
    18   11   12 1
    19   11   37 1
    20   11   38 1
    21   12   13 1
    22   12   14 1
    23   12   15 1
    24   16   21 ar
    25   16   17 ar
    26   17   18 ar
    27   17   39 1
    28   18   19 ar
    29   18   40 1
    30   19   20 ar
    31   19   22 1
    32   20   21 ar
    33   20   41 1
    34   21   42 1
    35   22   23 1
    36   22   27 1
    37   22   31 1
    38   23   24 1
    39   23   25 1
    40   23   26 1
    41   27   28 1
    42   27   29 1
    43   27   30 1
