@<TRIPOS>MOLECULE
ZINC05751264
   75    78     0     0     0
SMALL
USER_CHARGES

@<TRIPOS>ATOM
      1 C1          0.2052    1.4982    0.1222 C.3       1 <0>        -0.1546
      2 C2          0.0008   -0.0133    0.0018 C.3       1 <0>        -0.0843
      3 H1         -1.0656   -0.2383    0.0192 H         1 <0>         0.0761
      4 C3          0.6894   -0.7160    1.1736 C.3       1 <0>        -0.1180
      5 C4          0.0032   -0.3176    2.4817 C.3       1 <0>        -0.1182
      6 C5          0.6918   -1.0203    3.6534 C.3       1 <0>        -0.1053
      7 C6          0.0056   -0.6219    4.9616 C.3       1 <0>         0.1245
      8 C7          0.7696   -1.2243    6.1424 C.3       1 <0>        -0.1803
      9 C8         -0.0073    0.9029    5.0870 C.3       1 <0>        -0.1815
     10 O1         -1.3370   -1.1114    4.9635 O.3       1 <0>        -0.5598
     11 C9          0.6045   -0.5064   -1.3147 C.3       1 <0>        -0.0721
     12 H2          1.6550   -0.2225   -1.3775 H         1 <0>         0.0688
     13 C10         0.4563   -2.0440   -1.4305 C.3       1 <0>        -0.1208
     14 C11        -0.3345   -2.3103   -2.7404 C.3       1 <0>        -0.1166
     15 C12        -0.0564   -1.0524   -3.5705 C.3       1 <0>        -0.0828
     16 H3          0.9532   -1.0842   -3.9801 H         1 <0>         0.0713
     17 C13        -0.1693    0.0659   -2.4981 C.3       1 <0>        -0.0547
     18 C14         0.3845    1.3358   -3.1159 C.3       1 <0>        -0.1063
     19 C15        -0.5453    1.7164   -4.2785 C.3       1 <0>        -0.1202
     20 C16        -0.6557    0.5932   -5.3058 C.3       1 <0>        -0.0667
     21 H4          0.3219    0.4517   -5.7668 H         1 <0>         0.0625
     22 C17        -1.0608   -0.7497   -4.6679 C.3       1 <0>        -0.0688
     23 H5         -2.0643   -0.6727   -4.2496 H         1 <0>         0.0812
     24 C18        -0.9950   -1.8443   -5.7388 C.3       1 <0>        -0.0827
     25 C19        -1.8632   -1.4532   -6.8990 C.2       1 <0>        -0.1537
     26 C20        -2.1362   -0.2162   -7.1944 C.2       1 <0>        -0.1060
     27 C21        -1.6444    0.9858   -6.3910 C.3       1 <0>        -0.0115
     28 C22        -0.9979    1.9889   -7.3506 C.3       1 <0>        -0.1053
     29 C23        -1.9995    2.3622   -8.4453 C.3       1 <0>        -0.1127
     30 C24        -2.3551    1.1202   -9.2644 C.3       1 <0>         0.1097
     31 H6         -1.4443    0.6787   -9.6690 H         1 <0>         0.0483
     32 C25        -3.0207    0.0577   -8.3993 C.3       1 <0>        -0.1197
     33 O2         -3.2229    1.4899  -10.3379 O.3       1 <0>        -0.5681
     34 C26        -2.8321    1.6835   -5.7252 C.3       1 <0>        -0.1485
     35 C27        -1.6357    0.2673   -2.1111 C.3       1 <0>        -0.1510
     36 H7          1.2717    1.7178    0.1713 H         1 <0>         0.0510
     37 H8         -0.2282    1.9937   -0.7466 H         1 <0>         0.0627
     38 H9         -0.2823    1.8598    1.0275 H         1 <0>         0.0523
     39 H10         0.6202   -1.7957    1.0411 H         1 <0>         0.0631
     40 H11         1.7380   -0.4207    1.2088 H         1 <0>         0.0573
     41 H12         0.0723    0.7621    2.6141 H         1 <0>         0.0646
     42 H13        -1.0455   -0.6129    2.4465 H         1 <0>         0.0672
     43 H14         0.6226   -2.1000    3.5210 H         1 <0>         0.0676
     44 H15         1.7404   -0.7250    3.6887 H         1 <0>         0.0720
     45 H16         1.7937   -0.8510    6.1409 H         1 <0>         0.0650
     46 H17         0.2808   -0.9405    7.0743 H         1 <0>         0.0575
     47 H18         0.7788   -2.3106    6.0530 H         1 <0>         0.0631
     48 H19        -0.5517    1.3320    4.2458 H         1 <0>         0.0681
     49 H20        -0.4962    1.1867    6.0189 H         1 <0>         0.0556
     50 H21         1.0168    1.2762    5.0855 H         1 <0>         0.0646
     51 H22        -1.8334   -0.8951    5.7647 H         1 <0>         0.3743
     52 H23         1.4394   -2.5115   -1.4853 H         1 <0>         0.0599
     53 H24        -0.0958   -2.4321   -0.5746 H         1 <0>         0.0666
     54 H25         0.0451   -3.1980   -3.2464 H         1 <0>         0.0613
     55 H26        -1.4003   -2.4087   -2.5343 H         1 <0>         0.0661
     56 H27         0.3978    2.1344   -2.3742 H         1 <0>         0.0675
     57 H28         1.3928    1.1580   -3.4896 H         1 <0>         0.0603
     58 H29        -1.5373    1.9350   -3.8831 H         1 <0>         0.0745
     59 H30        -0.1550    2.6086   -4.7681 H         1 <0>         0.0595
     60 H31         0.0345   -1.9609   -6.0774 H         1 <0>         0.0717
     61 H32        -1.3500   -2.7857   -5.3195 H         1 <0>         0.0705
     62 H33        -2.2800   -2.2346   -7.5171 H         1 <0>         0.1030
     63 H34        -0.7099    2.8848   -6.8005 H         1 <0>         0.0731
     64 H35        -0.1139    1.5406   -7.8041 H         1 <0>         0.0634
     65 H36        -2.9028    2.7658   -7.9880 H         1 <0>         0.0741
     66 H37        -1.5581    3.1140   -9.0996 H         1 <0>         0.0708
     67 H38        -3.1818   -0.8666   -8.9542 H         1 <0>         0.0725
     68 H39        -3.9783    0.4594   -8.0681 H         1 <0>         0.0760
     69 H40        -3.4898    0.7501  -10.9004 H         1 <0>         0.3778
     70 H41        -2.4830    2.5710   -5.1975 H         1 <0>         0.0652
     71 H42        -3.5558    1.9747   -6.4865 H         1 <0>         0.0567
     72 H43        -3.3038    1.0019   -5.0173 H         1 <0>         0.0549
     73 H44        -1.7075    1.0469   -1.3526 H         1 <0>         0.0597
     74 H45        -2.2065    0.5631   -2.9913 H         1 <0>         0.0612
     75 H46        -2.0379   -0.6645   -1.7135 H         1 <0>         0.0550
@<TRIPOS>BOND
     1    1    2 1
     2    1   36 1
     3    1   37 1
     4    1   38 1
     5    2    3 1
     6    2    4 1
     7    2   11 1
     8    4    5 1
     9    4   39 1
    10    4   40 1
    11    5    6 1
    12    5   41 1
    13    5   42 1
    14    6    7 1
    15    6   43 1
    16    6   44 1
    17    7    8 1
    18    7    9 1
    19    7   10 1
    20    8   45 1
    21    8   46 1
    22    8   47 1
    23    9   48 1
    24    9   49 1
    25    9   50 1
    26   10   51 1
    27   11   12 1
    28   11   17 1
    29   11   13 1
    30   13   14 1
    31   13   52 1
    32   13   53 1
    33   14   15 1
    34   14   54 1
    35   14   55 1
    36   15   16 1
    37   15   22 1
    38   15   17 1
    39   17   18 1
    40   17   35 1
    41   18   19 1
    42   18   56 1
    43   18   57 1
    44   19   20 1
    45   19   58 1
    46   19   59 1
    47   20   21 1
    48   20   27 1
    49   20   22 1
    50   22   23 1
    51   22   24 1
    52   24   25 1
    53   24   60 1
    54   24   61 1
    55   25   26 2
    56   25   62 1
    57   26   32 1
    58   26   27 1
    59   27   28 1
    60   27   34 1
    61   28   29 1
    62   28   63 1
    63   28   64 1
    64   29   30 1
    65   29   65 1
    66   29   66 1
    67   30   31 1
    68   30   32 1
    69   30   33 1
    70   32   67 1
    71   32   68 1
    72   33   69 1
    73   34   70 1
    74   34   71 1
    75   34   72 1
    76   35   73 1
    77   35   74 1
    78   35   75 1
@<TRIPOS>MOLECULE
ZINC06036223
   64    67     0     0     0
SMALL
USER_CHARGES
4-(3-hydroxy-10,13-dimethyl-2,3,4,7,8,9,11,12,14,15,16,17-dodecahydro-1H-cyclopenta[a]phenanthren-17-yl)pentanoic acid
@<TRIPOS>ATOM
      1 C1          1.4049    1.7011    2.5609 C.3       1 <0>        -0.1536
      2 C2          0.0111    1.0724    2.5063 C.3       1 <0>        -0.0859
      3 H1          0.1037   -0.0125    2.4560 H         1 <0>         0.0696
      4 C3         -0.7288    1.5792    1.2668 C.3       1 <0>        -0.0932
      5 C4         -0.0127    1.0858    0.0080 C.3       1 <0>        -0.1568
      6 C5         -0.7416    1.5850   -1.2129 C.2       1 <0>         0.4566
      7 O1         -1.7322    2.2656   -1.0889 O.co2     1 <0>        -0.6429
      8 C6         -0.7725    1.4597    3.7620 C.3       1 <0>        -0.0701
      9 H2         -0.8643    2.5437    3.8299 H         1 <0>         0.0682
     10 C7         -2.1751    0.8024    3.7434 C.3       1 <0>        -0.1213
     11 C8         -2.2777   -0.0477    5.0392 C.3       1 <0>        -0.1148
     12 C9         -1.2661    0.6266    5.9724 C.3       1 <0>        -0.0828
     13 H3         -1.6716    1.5619    6.3583 H         1 <0>         0.0701
     14 C10        -0.0843    0.9067    5.0060 C.3       1 <0>        -0.0533
     15 C11         0.8664    1.8449    5.7249 C.3       1 <0>        -0.1068
     16 C12         1.4288    1.0802    6.9333 C.3       1 <0>        -0.1192
     17 C13         0.3190    0.5879    7.8579 C.3       1 <0>        -0.0656
     18 H4         -0.1817    1.4563    8.2860 H         1 <0>         0.0615
     19 C14        -0.7446   -0.2310    7.1114 C.3       1 <0>        -0.0681
     20 H5         -0.2991   -1.1460    6.7210 H         1 <0>         0.0806
     21 C15        -1.8772   -0.5496    8.0924 C.3       1 <0>        -0.0837
     22 C16        -1.3106   -1.2546    9.2902 C.2       1 <0>        -0.1508
     23 C17        -0.0800   -1.1054    9.6843 C.2       1 <0>        -0.1089
     24 C18         0.9186   -0.2260    8.9924 C.3       1 <0>        -0.0125
     25 C19         1.5578    0.7069   10.0250 C.3       1 <0>        -0.1041
     26 C20         2.1563   -0.1260   11.1602 C.3       1 <0>        -0.1145
     27 C21         1.0315   -0.8693   11.8827 C.3       1 <0>         0.1079
     28 H6          0.2859   -0.1532   12.2283 H         1 <0>         0.0541
     29 C22         0.3765   -1.8637   10.9194 C.3       1 <0>        -0.1156
     30 O2          1.5694   -1.5750   13.0028 O.3       1 <0>        -0.5700
     31 C23         2.0180   -1.1175    8.4115 C.3       1 <0>        -0.1489
     32 C24         0.6296   -0.4030    4.6654 C.3       1 <0>        -0.1544
     33 H7          1.3124    2.7860    2.6112 H         1 <0>         0.0498
     34 H8          1.9321    1.3401    3.4439 H         1 <0>         0.0574
     35 H9          1.9632    1.4252    1.6663 H         1 <0>         0.0552
     36 H10        -0.7436    2.6691    1.2728 H         1 <0>         0.0562
     37 H11        -1.7514    1.2020    1.2746 H         1 <0>         0.0604
     38 H12         0.0021   -0.0041    0.0020 H         1 <0>         0.0587
     39 H13         1.0099    1.4631    0.0003 H         1 <0>         0.0626
     40 H14        -2.9483    1.5707    3.7377 H         1 <0>         0.0603
     41 H15        -2.2770    0.1631    2.8665 H         1 <0>         0.0693
     42 H16        -3.2831    0.0058    5.4569 H         1 <0>         0.0585
     43 H17        -1.9939   -1.0821    4.8454 H         1 <0>         0.0646
     44 H18         1.6784    2.1340    5.0576 H         1 <0>         0.0692
     45 H19         0.3294    2.7315    6.0619 H         1 <0>         0.0593
     46 H20         2.0003    0.2232    6.5767 H         1 <0>         0.0746
     47 H21         2.0918    1.7393    7.4936 H         1 <0>         0.0569
     48 H22        -2.6104   -1.1921    7.6048 H         1 <0>         0.0704
     49 H23        -2.3576    0.3764    8.4085 H         1 <0>         0.0715
     50 H24        -1.9545   -1.9161    9.8509 H         1 <0>         0.1007
     51 H25         2.3531    1.2828    9.5517 H         1 <0>         0.0723
     52 H26         0.8017    1.3860   10.4188 H         1 <0>         0.0640
     53 H27         2.6666    0.5319   11.8636 H         1 <0>         0.0681
     54 H28         2.8672   -0.8473   10.7570 H         1 <0>         0.0749
     55 H29        -0.4823   -2.3306   11.4017 H         1 <0>         0.0670
     56 H30         1.0983   -2.6291   10.6342 H         1 <0>         0.0787
     57 H31         0.9109   -2.0707   13.5086 H         1 <0>         0.3763
     58 H32         2.7850   -0.4949    7.9508 H         1 <0>         0.0645
     59 H33         2.4633   -1.7118    9.2093 H         1 <0>         0.0547
     60 H34         1.5889   -1.7808    7.6604 H         1 <0>         0.0562
     61 H35         1.3936   -0.2148    3.9111 H         1 <0>         0.0661
     62 H36         1.0974   -0.8061    5.5637 H         1 <0>         0.0566
     63 H37        -0.0935   -1.1211    4.2788 H         1 <0>         0.0549
     64 O3         -0.2903    1.2736   -2.4381 O.co2     1 <0>        -0.7812
@<TRIPOS>BOND
     1    1    2 1
     2    1   33 1
     3    1   34 1
     4    1   35 1
     5    2    3 1
     6    2    4 1
     7    2    8 1
     8    4    5 1
     9    4   36 1
    10    4   37 1
    11    5    6 1
    12    5   38 1
    13    5   39 1
    14    6    7 2
    15    6   64 1
    16    8    9 1
    17    8   14 1
    18    8   10 1
    19   10   11 1
    20   10   40 1
    21   10   41 1
    22   11   12 1
    23   11   42 1
    24   11   43 1
    25   12   13 1
    26   12   19 1
    27   12   14 1
    28   14   15 1
    29   14   32 1
    30   15   16 1
    31   15   44 1
    32   15   45 1
    33   16   17 1
    34   16   46 1
    35   16   47 1
    36   17   18 1
    37   17   24 1
    38   17   19 1
    39   19   20 1
    40   19   21 1
    41   21   22 1
    42   21   48 1
    43   21   49 1
    44   22   23 2
    45   22   50 1
    46   23   29 1
    47   23   24 1
    48   24   25 1
    49   24   31 1
    50   25   26 1
    51   25   51 1
    52   25   52 1
    53   26   27 1
    54   26   53 1
    55   26   54 1
    56   27   28 1
    57   27   29 1
    58   27   30 1
    59   29   55 1
    60   29   56 1
    61   30   57 1
    62   31   58 1
    63   31   59 1
    64   31   60 1
    65   32   61 1
    66   32   62 1
    67   32   63 1
@<TRIPOS>MOLECULE
ZINC04654858
   75    78     0     0     0
SMALL
USER_CHARGES

@<TRIPOS>ATOM
      1 C1         -0.2269    1.4922    0.1478 C.3       1 <0>        -0.1545
      2 C2          0.0030   -0.0133    0.0008 C.3       1 <0>        -0.0847
      3 H1          0.5244   -0.2114   -0.9357 H         1 <0>         0.0744
      4 C3         -1.3449   -0.7371   -0.0028 C.3       1 <0>        -0.1129
      5 C4         -2.1411   -0.3262   -1.2431 C.3       1 <0>        -0.1545
      6 C5         -3.4890   -1.0501   -1.2467 C.3       1 <0>         0.1099
      7 H2         -3.3244   -2.1250   -1.1723 H         1 <0>         0.0951
      8 C6         -4.2327   -0.7367   -2.5466 C.3       1 <0>        -0.1284
      9 C7         -3.3973   -1.2083   -3.7385 C.3       1 <0>        -0.1500
     10 C8         -5.5806   -1.4605   -2.5502 C.3       1 <0>        -0.1447
     11 O1         -4.2693   -0.6096   -0.1335 O.3       1 <0>        -0.5592
     12 C9          0.8491   -0.5168    1.1719 C.3       1 <0>        -0.0717
     13 H3          0.3741   -0.2591    2.1185 H         1 <0>         0.0695
     14 C10         1.0474   -2.0497    1.0707 C.3       1 <0>        -0.1204
     15 C11         2.5812   -2.2916    1.0356 C.3       1 <0>        -0.1165
     16 C12         3.1416   -1.0381    1.7165 C.3       1 <0>        -0.0830
     17 H4          2.9923   -1.0938    2.7948 H         1 <0>         0.0716
     18 C13         2.2518    0.0789    1.1050 C.3       1 <0>        -0.0547
     19 C14         2.4903    1.3367    1.9187 C.3       1 <0>        -0.1065
     20 C15         3.9559    1.7445    1.7025 C.3       1 <0>        -0.1201
     21 C16         4.9183    0.6280    2.0981 C.3       1 <0>        -0.0669
     22 H5          4.8312    0.4637    3.1721 H         1 <0>         0.0627
     23 C17         4.5892   -0.7065    1.4016 C.3       1 <0>        -0.0687
     24 H6          4.7272   -0.6058    0.3251 H         1 <0>         0.0810
     25 C18         5.5008   -1.7986    1.9721 C.3       1 <0>        -0.0828
     26 C19         6.9334   -1.3818    1.8083 C.2       1 <0>        -0.1538
     27 C20         7.3063   -0.1373    1.7443 C.2       1 <0>        -0.1060
     28 C21         6.3460    1.0491    1.7925 C.3       1 <0>        -0.0115
     29 C22         6.8385    2.0391    2.8521 C.3       1 <0>        -0.1054
     30 C23         8.2812    2.4412    2.5396 C.3       1 <0>        -0.1126
     31 C24         9.1876    1.2114    2.6164 C.3       1 <0>         0.1096
     32 H7          9.0897    0.7486    3.5984 H         1 <0>         0.0484
     33 C25         8.7876    0.1629    1.5864 C.3       1 <0>        -0.1197
     34 O2         10.5452    1.6066    2.4091 O.3       1 <0>        -0.5681
     35 C26         6.3521    1.7742    0.4452 C.3       1 <0>        -0.1484
     36 C27         2.6463    0.3157   -0.3541 C.3       1 <0>        -0.1506
     37 H8          0.7343    2.0015    0.2168 H         1 <0>         0.0629
     38 H9         -0.7730    1.8627   -0.7196 H         1 <0>         0.0510
     39 H10        -0.8058    1.6848    1.0511 H         1 <0>         0.0521
     40 H11        -1.1788   -1.8143   -0.0181 H         1 <0>         0.0625
     41 H12        -1.9040   -0.4684    0.8934 H         1 <0>         0.0659
     42 H13        -2.3072    0.7509   -1.2278 H         1 <0>         0.0657
     43 H14        -1.5820   -0.5950   -2.1393 H         1 <0>         0.0729
     44 H15        -4.3973    0.3382   -2.6209 H         1 <0>         0.0700
     45 H16        -3.2327   -2.2833   -3.6641 H         1 <0>         0.0562
     46 H17        -3.9271   -0.9851   -4.6645 H         1 <0>         0.0566
     47 H18        -2.4370   -0.6927   -3.7359 H         1 <0>         0.0591
     48 H19        -6.1758   -1.1245   -1.7011 H         1 <0>         0.0606
     49 H20        -6.1104   -1.2373   -3.4762 H         1 <0>         0.0525
     50 H21        -5.4160   -2.5355   -2.4758 H         1 <0>         0.0536
     51 H22        -4.4550    0.3394   -0.1343 H         1 <0>         0.3717
     52 H23         0.6110   -2.5416    1.9400 H         1 <0>         0.0606
     53 H24         0.5882   -2.4269    0.1570 H         1 <0>         0.0656
     54 H25         2.8436   -3.1867    1.5995 H         1 <0>         0.0616
     55 H26         2.9369   -2.3638    0.0078 H         1 <0>         0.0657
     56 H27         1.8289    2.1321    1.5754 H         1 <0>         0.0674
     57 H28         2.3129    1.1349    2.9751 H         1 <0>         0.0607
     58 H29         4.1058    1.9866    0.6504 H         1 <0>         0.0743
     59 H30         4.1710    2.6283    2.3031 H         1 <0>         0.0597
     60 H31         5.2814   -1.9398    3.0304 H         1 <0>         0.0719
     61 H32         5.3297   -2.7322    1.4363 H         1 <0>         0.0704
     62 H33         7.6891   -2.1503    1.7408 H         1 <0>         0.1031
     63 H34         6.2041    2.9255    2.8442 H         1 <0>         0.0731
     64 H35         6.7964    1.5703    3.8352 H         1 <0>         0.0636
     65 H36         8.3302    2.8658    1.5369 H         1 <0>         0.0741
     66 H37         8.6156    3.1839    3.2639 H         1 <0>         0.0709
     67 H38         9.3630   -0.7551    1.7058 H         1 <0>         0.0725
     68 H39         8.9730    0.5874    0.5997 H         1 <0>         0.0759
     69 H40        11.1773    0.8756    2.4444 H         1 <0>         0.3779
     70 H41         5.7068    2.6508    0.5014 H         1 <0>         0.0652
     71 H42         7.3686    2.0861    0.2050 H         1 <0>         0.0568
     72 H43         5.9854    1.1021   -0.3307 H         1 <0>         0.0546
     73 H44         2.0132    1.0942   -0.7799 H         1 <0>         0.0592
     74 H45         3.6893    0.6288   -0.4024 H         1 <0>         0.0614
     75 H46         2.5175   -0.6071   -0.9197 H         1 <0>         0.0545
@<TRIPOS>BOND
     1    1    2 1
     2    1   37 1
     3    1   38 1
     4    1   39 1
     5    2    3 1
     6    2    4 1
     7    2   12 1
     8    4    5 1
     9    4   40 1
    10    4   41 1
    11    5    6 1
    12    5   42 1
    13    5   43 1
    14    6    7 1
    15    6    8 1
    16    6   11 1
    17    8    9 1
    18    8   10 1
    19    8   44 1
    20    9   45 1
    21    9   46 1
    22    9   47 1
    23   10   48 1
    24   10   49 1
    25   10   50 1
    26   11   51 1
    27   12   13 1
    28   12   18 1
    29   12   14 1
    30   14   15 1
    31   14   52 1
    32   14   53 1
    33   15   16 1
    34   15   54 1
    35   15   55 1
    36   16   17 1
    37   16   23 1
    38   16   18 1
    39   18   19 1
    40   18   36 1
    41   19   20 1
    42   19   56 1
    43   19   57 1
    44   20   21 1
    45   20   58 1
    46   20   59 1
    47   21   22 1
    48   21   28 1
    49   21   23 1
    50   23   24 1
    51   23   25 1
    52   25   26 1
    53   25   60 1
    54   25   61 1
    55   26   27 2
    56   26   62 1
    57   27   33 1
    58   27   28 1
    59   28   29 1
    60   28   35 1
    61   29   30 1
    62   29   63 1
    63   29   64 1
    64   30   31 1
    65   30   65 1
    66   30   66 1
    67   31   32 1
    68   31   33 1
    69   31   34 1
    70   33   67 1
    71   33   68 1
    72   34   69 1
    73   35   70 1
    74   35   71 1
    75   35   72 1
    76   36   73 1
    77   36   74 1
    78   36   75 1
@<TRIPOS>MOLECULE
ZINC02386791
   75    78     0     0     0
SMALL
USER_CHARGES

@<TRIPOS>ATOM
      1 C1         -0.2269    1.4922    0.1478 C.3       1 <0>        -0.1556
      2 C2          0.0030   -0.0133    0.0008 C.3       1 <0>        -0.0847
      3 H1          0.5244   -0.2114   -0.9357 H         1 <0>         0.0747
      4 C3         -1.3449   -0.7371   -0.0028 C.3       1 <0>        -0.1135
      5 C4         -2.1411   -0.3262   -1.2431 C.3       1 <0>        -0.1525
      6 C5         -3.4890   -1.0501   -1.2467 C.3       1 <0>         0.1098
      7 H2         -4.0104   -0.8519   -0.3102 H         1 <0>         0.0956
      8 C6         -4.3351   -0.5466   -2.4178 C.3       1 <0>        -0.1296
      9 C7         -3.6635   -0.9352   -3.7364 C.3       1 <0>        -0.1553
     10 C8         -5.7274   -1.1773   -2.3493 C.3       1 <0>        -0.1453
     11 O1         -3.2743   -2.4561   -1.3840 O.3       1 <0>        -0.5587
     12 C9          0.8491   -0.5168    1.1719 C.3       1 <0>        -0.0718
     13 H3          0.3741   -0.2591    2.1185 H         1 <0>         0.0690
     14 C10         1.0474   -2.0497    1.0707 C.3       1 <0>        -0.1200
     15 C11         2.5812   -2.2916    1.0356 C.3       1 <0>        -0.1165
     16 C12         3.1416   -1.0381    1.7165 C.3       1 <0>        -0.0829
     17 H4          2.9923   -1.0938    2.7948 H         1 <0>         0.0715
     18 C13         2.2518    0.0789    1.1050 C.3       1 <0>        -0.0547
     19 C14         2.4903    1.3367    1.9187 C.3       1 <0>        -0.1065
     20 C15         3.9559    1.7445    1.7025 C.3       1 <0>        -0.1201
     21 C16         4.9183    0.6280    2.0981 C.3       1 <0>        -0.0669
     22 H5          4.8312    0.4637    3.1721 H         1 <0>         0.0627
     23 C17         4.5892   -0.7065    1.4016 C.3       1 <0>        -0.0686
     24 H6          4.7272   -0.6058    0.3251 H         1 <0>         0.0810
     25 C18         5.5008   -1.7986    1.9721 C.3       1 <0>        -0.0828
     26 C19         6.9334   -1.3818    1.8083 C.2       1 <0>        -0.1537
     27 C20         7.3063   -0.1373    1.7443 C.2       1 <0>        -0.1060
     28 C21         6.3460    1.0491    1.7925 C.3       1 <0>        -0.0115
     29 C22         6.8385    2.0391    2.8521 C.3       1 <0>        -0.1054
     30 C23         8.2812    2.4412    2.5396 C.3       1 <0>        -0.1126
     31 C24         9.1876    1.2114    2.6164 C.3       1 <0>         0.1096
     32 H7          9.0897    0.7486    3.5984 H         1 <0>         0.0484
     33 C25         8.7876    0.1629    1.5864 C.3       1 <0>        -0.1197
     34 O2         10.5452    1.6066    2.4091 O.3       1 <0>        -0.5681
     35 C26         6.3521    1.7742    0.4452 C.3       1 <0>        -0.1484
     36 C27         2.6463    0.3157   -0.3541 C.3       1 <0>        -0.1505
     37 H8          0.7343    2.0015    0.2168 H         1 <0>         0.0631
     38 H9         -0.7730    1.8627   -0.7196 H         1 <0>         0.0516
     39 H10        -0.8058    1.6848    1.0511 H         1 <0>         0.0517
     40 H11        -1.1788   -1.8143   -0.0181 H         1 <0>         0.0712
     41 H12        -1.9040   -0.4684    0.8934 H         1 <0>         0.0579
     42 H13        -2.3072    0.7509   -1.2278 H         1 <0>         0.0713
     43 H14        -1.5820   -0.5950   -2.1393 H         1 <0>         0.0651
     44 H15        -4.4245    0.5383   -2.3615 H         1 <0>         0.0759
     45 H16        -3.5741   -2.0200   -3.7927 H         1 <0>         0.0569
     46 H17        -4.2663   -0.5765   -4.5707 H         1 <0>         0.0586
     47 H18        -2.6716   -0.4859   -3.7852 H         1 <0>         0.0578
     48 H19        -6.2059   -0.9004   -1.4099 H         1 <0>         0.0533
     49 H20        -6.3302   -0.8186   -3.1837 H         1 <0>         0.0527
     50 H21        -5.6380   -2.2621   -2.4057 H         1 <0>         0.0608
     51 H22        -2.8140   -2.7062   -2.1969 H         1 <0>         0.3705
     52 H23         0.6110   -2.5416    1.9400 H         1 <0>         0.0604
     53 H24         0.5882   -2.4269    0.1570 H         1 <0>         0.0667
     54 H25         2.8436   -3.1867    1.5995 H         1 <0>         0.0616
     55 H26         2.9369   -2.3638    0.0078 H         1 <0>         0.0656
     56 H27         1.8289    2.1321    1.5754 H         1 <0>         0.0673
     57 H28         2.3129    1.1349    2.9751 H         1 <0>         0.0606
     58 H29         4.1058    1.9866    0.6504 H         1 <0>         0.0743
     59 H30         4.1710    2.6283    2.3031 H         1 <0>         0.0596
     60 H31         5.2814   -1.9398    3.0304 H         1 <0>         0.0719
     61 H32         5.3297   -2.7322    1.4363 H         1 <0>         0.0705
     62 H33         7.6891   -2.1503    1.7408 H         1 <0>         0.1031
     63 H34         6.2041    2.9255    2.8442 H         1 <0>         0.0731
     64 H35         6.7964    1.5703    3.8352 H         1 <0>         0.0635
     65 H36         8.3302    2.8658    1.5369 H         1 <0>         0.0741
     66 H37         8.6156    3.1839    3.2639 H         1 <0>         0.0708
     67 H38         9.3630   -0.7551    1.7058 H         1 <0>         0.0725
     68 H39         8.9730    0.5874    0.5997 H         1 <0>         0.0759
     69 H40        11.1773    0.8756    2.4444 H         1 <0>         0.3779
     70 H41         5.7068    2.6508    0.5014 H         1 <0>         0.0651
     71 H42         7.3686    2.0861    0.2050 H         1 <0>         0.0568
     72 H43         5.9854    1.1021   -0.3307 H         1 <0>         0.0546
     73 H44         2.0132    1.0942   -0.7799 H         1 <0>         0.0591
     74 H45         3.6893    0.6288   -0.4024 H         1 <0>         0.0614
     75 H46         2.5175   -0.6071   -0.9197 H         1 <0>         0.0545
@<TRIPOS>BOND
     1    1    2 1
     2    1   37 1
     3    1   38 1
     4    1   39 1
     5    2    3 1
     6    2    4 1
     7    2   12 1
     8    4    5 1
     9    4   40 1
    10    4   41 1
    11    5    6 1
    12    5   42 1
    13    5   43 1
    14    6    7 1
    15    6    8 1
    16    6   11 1
    17    8    9 1
    18    8   10 1
    19    8   44 1
    20    9   45 1
    21    9   46 1
    22    9   47 1
    23   10   48 1
    24   10   49 1
    25   10   50 1
    26   11   51 1
    27   12   13 1
    28   12   18 1
    29   12   14 1
    30   14   15 1
    31   14   52 1
    32   14   53 1
    33   15   16 1
    34   15   54 1
    35   15   55 1
    36   16   17 1
    37   16   23 1
    38   16   18 1
    39   18   19 1
    40   18   36 1
    41   19   20 1
    42   19   56 1
    43   19   57 1
    44   20   21 1
    45   20   58 1
    46   20   59 1
    47   21   22 1
    48   21   28 1
    49   21   23 1
    50   23   24 1
    51   23   25 1
    52   25   26 1
    53   25   60 1
    54   25   61 1
    55   26   27 2
    56   26   62 1
    57   27   33 1
    58   27   28 1
    59   28   29 1
    60   28   35 1
    61   29   30 1
    62   29   63 1
    63   29   64 1
    64   30   31 1
    65   30   65 1
    66   30   66 1
    67   31   32 1
    68   31   33 1
    69   31   34 1
    70   33   67 1
    71   33   68 1
    72   34   69 1
    73   35   70 1
    74   35   71 1
    75   35   72 1
    76   36   73 1
    77   36   74 1
    78   36   75 1
@<TRIPOS>MOLECULE
ZINC03881332
   68    71     0     0     0
SMALL
USER_CHARGES
methyl 4-(3-hydroxy-10,13-dimethyl-2,3,4,7,8,9,11,12,14,15,16,17-dodecahydro-1H-cyclopenta[a]phenanthren-17-yl)pentanoate
@<TRIPOS>ATOM
      1 C1          3.9098    2.5576    1.2859 C.3       1 <0>        -0.1608
      2 C2          3.7711    1.7799   -0.0244 C.3       1 <0>        -0.0840
      3 H1          3.7736    2.4768   -0.8625 H         1 <0>         0.0789
      4 C3          2.4566    0.9969   -0.0160 C.3       1 <0>        -0.1069
      5 C4          1.2804    1.9752    0.0004 C.3       1 <0>        -0.1155
      6 C5         -0.0143    1.2041    0.0087 C.2       1 <0>         0.4574
      7 O1          0.0021   -0.0041    0.0020 O.2       1 <0>        -0.5071
      8 O2         -1.1857    1.8593    0.0178 O.3       1 <0>        -0.3624
      9 C6         -2.3926    1.0520    0.0191 C.3       1 <0>         0.0346
     10 C7          4.9433    0.8070   -0.1665 C.3       1 <0>        -0.0713
     11 H2          4.9583    0.1097    0.6711 H         1 <0>         0.0720
     12 C8          4.8408    0.0351   -1.5057 C.3       1 <0>        -0.1211
     13 C9          6.1588    0.3190   -2.2769 C.3       1 <0>        -0.1166
     14 C10         7.1404    0.6800   -1.1566 C.3       1 <0>        -0.0821
     15 H3          7.4534   -0.2177   -0.6233 H         1 <0>         0.0721
     16 C11         6.2600    1.5734   -0.2424 C.3       1 <0>        -0.0545
     17 C12         7.0123    1.7537    1.0625 C.3       1 <0>        -0.1067
     18 C13         8.2924    2.5407    0.7413 C.3       1 <0>        -0.1205
     19 C14         9.1457    1.8305   -0.3057 C.3       1 <0>        -0.0663
     20 H4          9.4961    0.8893    0.1178 H         1 <0>         0.0627
     21 C15         8.3520    1.4926   -1.5765 C.3       1 <0>        -0.0684
     22 H5          8.0368    2.4119   -2.0702 H         1 <0>         0.0807
     23 C16         9.2525    0.6600   -2.4945 C.3       1 <0>        -0.0831
     24 C17        10.5199    1.4175   -2.7641 C.2       1 <0>        -0.1540
     25 C18        11.0039    2.3040   -1.9445 C.2       1 <0>        -0.1061
     26 C19        10.3573    2.6825   -0.6452 C.3       1 <0>        -0.0130
     27 C20        11.3976    2.5831    0.4742 C.3       1 <0>        -0.1041
     28 C21        12.6104    3.4450    0.1184 C.3       1 <0>        -0.1154
     29 C22        13.2718    2.8832   -1.1412 C.3       1 <0>         0.1078
     30 H6         13.5268    1.8356   -0.9815 H         1 <0>         0.0544
     31 C23        12.3019    2.9985   -2.3209 C.3       1 <0>        -0.1170
     32 O3         14.4596    3.6245   -1.4268 O.3       1 <0>        -0.5690
     33 C24         9.9032    4.1402   -0.7449 C.3       1 <0>        -0.1490
     34 C25         6.0322    2.9321   -0.9079 C.3       1 <0>        -0.1564
     35 H7          3.9073    1.8607    2.1240 H         1 <0>         0.0550
     36 H8          4.8463    3.1154    1.2799 H         1 <0>         0.0686
     37 H9          3.0747    3.2507    1.3872 H         1 <0>         0.0539
     38 H10         2.4159    0.3648    0.8710 H         1 <0>         0.0711
     39 H11         2.3989    0.3743   -0.9089 H         1 <0>         0.0745
     40 H12         1.3211    2.6074   -0.8866 H         1 <0>         0.1050
     41 H13         1.3381    2.5978    0.8933 H         1 <0>         0.1071
     42 H14        -3.2660    1.7042    0.0268 H         1 <0>         0.1020
     43 H15        -2.4132    0.4278   -0.8742 H         1 <0>         0.0631
     44 H16        -2.4048    0.4181    0.9057 H         1 <0>         0.0631
     45 H17         4.7417   -1.0335   -1.3149 H         1 <0>         0.0619
     46 H18         3.9860    0.3932   -2.0795 H         1 <0>         0.0653
     47 H19         6.4928   -0.5709   -2.8105 H         1 <0>         0.0620
     48 H20         6.0315    1.1564   -2.9629 H         1 <0>         0.0665
     49 H21         6.4001    2.3128    1.7700 H         1 <0>         0.0678
     50 H22         7.2683    0.7804    1.4812 H         1 <0>         0.0609
     51 H23         8.0185    3.5270    0.3668 H         1 <0>         0.0751
     52 H24         8.8756    2.6584    1.6546 H         1 <0>         0.0598
     53 H25         8.7355    0.4690   -3.4349 H         1 <0>         0.0700
     54 H26         9.4905   -0.2874   -2.0109 H         1 <0>         0.0718
     55 H27        11.0548    1.2169   -3.6806 H         1 <0>         0.1024
     56 H28        10.9652    2.9484    1.4058 H         1 <0>         0.0720
     57 H29        11.7013    1.5436    0.5970 H         1 <0>         0.0646
     58 H30        13.3241    3.4258    0.9421 H         1 <0>         0.0696
     59 H31        12.2955    4.4723   -0.0647 H         1 <0>         0.0751
     60 H32        12.7335    2.5185   -3.1992 H         1 <0>         0.0683
     61 H33        12.1071    4.0493   -2.5354 H         1 <0>         0.0794
     62 H34        14.9317    3.3227   -2.2148 H         1 <0>         0.3777
     63 H35         9.4793    4.4547    0.2088 H         1 <0>         0.0639
     64 H36        10.7581    4.7712   -0.9882 H         1 <0>         0.0570
     65 H37         9.1489    4.2332   -1.5261 H         1 <0>         0.0550
     66 H38         5.3338    3.5172   -0.3096 H         1 <0>         0.0638
     67 H39         6.9808    3.4638   -0.9824 H         1 <0>         0.0622
     68 H40         5.6198    2.7833   -1.9058 H         1 <0>         0.0552
@<TRIPOS>BOND
     1    1    2 1
     2    1   35 1
     3    1   36 1
     4    1   37 1
     5    2    3 1
     6    2    4 1
     7    2   10 1
     8    4    5 1
     9    4   38 1
    10    4   39 1
    11    5    6 1
    12    5   40 1
    13    5   41 1
    14    6    7 2
    15    6    8 1
    16    8    9 1
    17    9   42 1
    18    9   43 1
    19    9   44 1
    20   10   11 1
    21   10   16 1
    22   10   12 1
    23   12   13 1
    24   12   45 1
    25   12   46 1
    26   13   14 1
    27   13   47 1
    28   13   48 1
    29   14   15 1
    30   14   21 1
    31   14   16 1
    32   16   17 1
    33   16   34 1
    34   17   18 1
    35   17   49 1
    36   17   50 1
    37   18   19 1
    38   18   51 1
    39   18   52 1
    40   19   20 1
    41   19   26 1
    42   19   21 1
    43   21   22 1
    44   21   23 1
    45   23   24 1
    46   23   53 1
    47   23   54 1
    48   24   25 2
    49   24   55 1
    50   25   31 1
    51   25   26 1
    52   26   27 1
    53   26   33 1
    54   27   28 1
    55   27   56 1
    56   27   57 1
    57   28   29 1
    58   28   58 1
    59   28   59 1
    60   29   30 1
    61   29   31 1
    62   29   32 1
    63   31   60 1
    64   31   61 1
    65   32   62 1
    66   33   63 1
    67   33   64 1
    68   33   65 1
    69   34   66 1
    70   34   67 1
    71   34   68 1
@<TRIPOS>MOLECULE
ZINC05758870
   75    78     0     0     0
SMALL
USER_CHARGES
17-(1-hydroxy-1,5-dimethyl-hexyl)-10,13-dimethyl-2,3,4,7,8,9,11,12,14,15,16,17-dodecahydro-1H-cyclopenta[a]phenanthren-3-ol
@<TRIPOS>ATOM
      1 C1         -5.7099   -2.1008   -2.9511 C.3       1 <0>        -0.1493
      2 C2         -6.4491   -0.9073   -2.3427 C.3       1 <0>        -0.0975
      3 C3         -7.9359   -1.2426   -2.2090 C.3       1 <0>        -0.1490
      4 C4         -5.8695   -0.5991   -0.9607 C.3       1 <0>        -0.1154
      5 C5         -4.4164   -0.1433   -1.1071 C.3       1 <0>        -0.1168
      6 C6         -3.8368    0.1650    0.2749 C.3       1 <0>        -0.1456
      7 C7         -2.3837    0.6208    0.1284 C.3       1 <0>         0.1448
      8 C8         -2.3290    1.8795   -0.7398 C.3       1 <0>        -0.1526
      9 C9         -1.8041    0.9291    1.5105 C.3       1 <0>        -0.1035
     10 H1         -2.4168    1.6724    2.0205 H         1 <0>         0.0761
     11 C10        -1.7158   -0.3656    2.3564 C.3       1 <0>        -0.1199
     12 C11        -0.2251   -0.5220    2.7635 C.3       1 <0>        -0.1147
     13 C12         0.3044    0.9141    2.6844 C.3       1 <0>        -0.0828
     14 H2         -0.0299    1.5000    3.5406 H         1 <0>         0.0705
     15 C13        -0.3676    1.4260    1.3823 C.3       1 <0>        -0.0526
     16 C14        -0.1693    2.9293    1.3400 C.3       1 <0>        -0.1082
     17 C15         1.3348    3.1890    1.2165 C.3       1 <0>        -0.1210
     18 C16         2.1166    2.5518    2.3618 C.3       1 <0>        -0.0641
     19 H3          1.8259    3.0522    3.2855 H         1 <0>         0.0625
     20 C17         1.8050    1.0555    2.5028 C.3       1 <0>        -0.0678
     21 H4          2.1317    0.5033    1.6216 H         1 <0>         0.0838
     22 C18         2.5231    0.5330    3.7520 C.3       1 <0>        -0.0845
     23 C19         3.9898    0.8309    3.6396 C.2       1 <0>        -0.1544
     24 C20         4.4609    1.8190    2.9367 C.2       1 <0>        -0.1050
     25 C21         3.6059    2.7668    2.1493 C.3       1 <0>        -0.0133
     26 C22         3.9836    4.2079    2.5035 C.3       1 <0>        -0.1033
     27 C23         5.4873    4.4033    2.2989 C.3       1 <0>        -0.1151
     28 C24         6.2598    3.4889    3.2514 C.3       1 <0>         0.1087
     29 H5          5.9508    3.6886    4.2774 H         1 <0>         0.0543
     30 C25         5.9658    2.0262    2.9050 C.3       1 <0>        -0.1172
     31 O1          7.6608    3.7375    3.1189 O.3       1 <0>        -0.5688
     32 C26         3.8978    2.5502    0.6631 C.3       1 <0>        -0.1473
     33 C27         0.2984    0.7802    0.1657 C.3       1 <0>        -0.1427
     34 O2         -1.6188   -0.4168   -0.4882 O.3       1 <0>        -0.5473
     35 H6         -6.1228   -2.3203   -3.9357 H         1 <0>         0.0518
     36 H7         -4.6506   -1.8619   -3.0464 H         1 <0>         0.0579
     37 H8         -5.8296   -2.9702   -2.3048 H         1 <0>         0.0525
     38 H9         -6.3294   -0.0379   -2.9890 H         1 <0>         0.0676
     39 H10        -8.4625   -0.3924   -1.7755 H         1 <0>         0.0529
     40 H11        -8.3488   -1.4622   -3.1936 H         1 <0>         0.0536
     41 H12        -8.0556   -2.1121   -1.5627 H         1 <0>         0.0533
     42 H13        -5.9084   -1.4958   -0.3421 H         1 <0>         0.0589
     43 H14        -6.4530    0.1924   -0.4903 H         1 <0>         0.0583
     44 H15        -4.3775    0.7534   -1.7257 H         1 <0>         0.0620
     45 H16        -3.8329   -0.9347   -1.5775 H         1 <0>         0.0707
     46 H17        -3.8757   -0.7317    0.8934 H         1 <0>         0.0632
     47 H18        -4.4202    0.9564    0.7453 H         1 <0>         0.0666
     48 H19        -1.3127    2.2733   -0.7451 H         1 <0>         0.0779
     49 H20        -2.6280    1.6316   -1.7582 H         1 <0>         0.0630
     50 H21        -3.0075    2.6302   -0.3345 H         1 <0>         0.0636
     51 H22        -2.0334   -1.2228    1.7627 H         1 <0>         0.0606
     52 H23        -2.3391   -0.2755    3.2460 H         1 <0>         0.0635
     53 H24         0.3014   -1.1665    2.0596 H         1 <0>         0.0688
     54 H25        -0.1383   -0.9097    3.7785 H         1 <0>         0.0620
     55 H26        -0.6912    3.3488    0.4799 H         1 <0>         0.0673
     56 H27        -0.5443    3.3795    2.2591 H         1 <0>         0.0583
     57 H28         1.5123    4.2645    1.2204 H         1 <0>         0.0588
     58 H29         1.6882    2.7755    0.2719 H         1 <0>         0.0759
     59 H30         2.1186    1.0243    4.6369 H         1 <0>         0.0707
     60 H31         2.3756   -0.5440    3.8331 H         1 <0>         0.0694
     61 H32         4.6864    0.1955    4.1663 H         1 <0>         0.1021
     62 H33         3.7297    4.4048    3.5451 H         1 <0>         0.0633
     63 H34         3.4365    4.8963    1.8594 H         1 <0>         0.0731
     64 H35         5.7489    5.4419    2.5013 H         1 <0>         0.0695
     65 H36         5.7482    4.1581    1.2694 H         1 <0>         0.0737
     66 H37         6.4418    1.3731    3.6364 H         1 <0>         0.0684
     67 H38         6.3465    1.8007    1.9089 H         1 <0>         0.0797
     68 H39         8.2133    3.1914    3.6946 H         1 <0>         0.3778
     69 H40         3.5380    1.5665    0.3617 H         1 <0>         0.0564
     70 H41         3.3912    3.3175    0.0777 H         1 <0>         0.0624
     71 H42         4.9724    2.6124    0.4910 H         1 <0>         0.0552
     72 H43         0.2565   -0.3047    0.2617 H         1 <0>         0.0621
     73 H44         1.3389    1.1000    0.1086 H         1 <0>         0.0457
     74 H45        -0.2256    1.0854   -0.7401 H         1 <0>         0.0739
     75 H46        -1.6089   -1.2464    0.0085 H         1 <0>         0.3667
@<TRIPOS>BOND
     1    1    2 1
     2    1   35 1
     3    1   36 1
     4    1   37 1
     5    2    3 1
     6    2    4 1
     7    2   38 1
     8    3   39 1
     9    3   40 1
    10    3   41 1
    11    4    5 1
    12    4   42 1
    13    4   43 1
    14    5    6 1
    15    5   44 1
    16    5   45 1
    17    6    7 1
    18    6   46 1
    19    6   47 1
    20    7    8 1
    21    7    9 1
    22    7   34 1
    23    8   48 1
    24    8   49 1
    25    8   50 1
    26    9   10 1
    27    9   15 1
    28    9   11 1
    29   11   12 1
    30   11   51 1
    31   11   52 1
    32   12   13 1
    33   12   53 1
    34   12   54 1
    35   13   14 1
    36   13   20 1
    37   13   15 1
    38   15   16 1
    39   15   33 1
    40   16   17 1
    41   16   55 1
    42   16   56 1
    43   17   18 1
    44   17   57 1
    45   17   58 1
    46   18   19 1
    47   18   25 1
    48   18   20 1
    49   20   21 1
    50   20   22 1
    51   22   23 1
    52   22   59 1
    53   22   60 1
    54   23   24 2
    55   23   61 1
    56   24   30 1
    57   24   25 1
    58   25   26 1
    59   25   32 1
    60   26   27 1
    61   26   62 1
    62   26   63 1
    63   27   28 1
    64   27   64 1
    65   27   65 1
    66   28   29 1
    67   28   30 1
    68   28   31 1
    69   30   66 1
    70   30   67 1
    71   31   68 1
    72   32   69 1
    73   32   70 1
    74   32   71 1
    75   33   72 1
    76   33   73 1
    77   33   74 1
    78   34   75 1
@<TRIPOS>MOLECULE
ZINC38149326
   91    96     0     0     0
SMALL
USER_CHARGES

@<TRIPOS>ATOM
      1 C1         -0.1193  -16.1182    0.0237 C.3       1 <0>        -0.1450
      2 C2         -1.1536  -15.0970   -0.3740 C.2       1 <0>         0.4566
      3 O1         -1.2509  -14.7536   -1.5284 O.2       1 <0>        -0.4942
      4 O2         -1.9671  -14.5687    0.5544 O.3       1 <0>        -0.2987
      5 C3         -2.8143  -13.5774    0.1708 C.ar      1 <0>         0.0811
      6 C4         -3.9593  -13.8787   -0.5523 C.ar      1 <0>        -0.1194
      7 C5         -4.8096  -12.8661   -0.9410 C.ar      1 <0>        -0.1050
      8 C6         -4.5343  -11.5437   -0.6144 C.ar      1 <0>        -0.0685
      9 C7         -3.4001  -11.2443    0.1116 C.ar      1 <0>        -0.0458
     10 C8         -2.5427  -12.2611    0.5043 C.ar      1 <0>        -0.1144
     11 C9         -3.0649   -9.8366    0.5150 C.3       1 <0>        -0.0117
     12 C10        -1.5619   -9.5789    0.4328 C.3       1 <0>        -0.1113
     13 C11        -1.2758   -8.1559    0.9235 C.3       1 <0>        -0.1363
     14 C12        -2.0309   -7.1443    0.0611 C.3       1 <0>        -0.1012
     15 C13        -3.5362   -7.4232    0.1233 C.3       1 <0>        -0.0437
     16 C14        -3.7962   -8.8405   -0.3835 C.3       1 <0>        -0.0670
     17 H1         -3.4277   -8.9342   -1.4050 H         1 <0>         0.0940
     18 C15        -5.2887   -9.1703   -0.3485 C.3       1 <0>        -0.1304
     19 C16        -5.5034  -10.4916   -1.0859 C.3       1 <0>        -0.0799
     20 C17        -4.2806   -6.4186   -0.7585 C.3       1 <0>        -0.1501
     21 C18        -4.0140   -7.3005    1.5473 C.2       1 <0>         0.4861
     22 O3         -3.2574   -6.9166    2.4075 O.2       1 <0>        -0.4509
     23 O4         -5.2831   -7.6184    1.8607 O.3       1 <0>        -0.3305
     24 C19        -5.6669   -7.4940    3.1441 C.2       1 <0>         0.4872
     25 O5         -4.8801   -7.1065    3.9750 O.2       1 <0>        -0.4515
     26 C20        -7.0783   -7.8378    3.5452 C.3       1 <0>        -0.0438
     27 C21        -7.2965   -7.4744    5.0176 C.3       1 <0>        -0.1011
     28 C22        -7.0772   -5.9756    5.2245 C.3       1 <0>        -0.1361
     29 C23        -8.0431   -5.1779    4.3422 C.3       1 <0>        -0.1107
     30 C24        -7.7970   -5.5488    2.8814 C.3       1 <0>        -0.0116
     31 C25        -8.0620   -7.0412    2.6900 C.3       1 <0>        -0.0676
     32 H2         -9.0815   -7.2718    2.9990 H         1 <0>         0.0938
     33 C26        -7.8919   -7.3712    1.2068 C.3       1 <0>        -0.1307
     34 C27        -9.0518   -6.7356    0.4409 C.3       1 <0>        -0.0799
     35 C28        -9.2362   -5.2921    0.8293 C.ar      1 <0>        -0.0690
     36 C29        -8.6647   -4.7423    1.9581 C.ar      1 <0>        -0.0449
     37 C30        -8.8848   -3.4074    2.2634 C.ar      1 <0>        -0.1133
     38 C31        -9.6698   -2.6183    1.4398 C.ar      1 <0>         0.0823
     39 C32       -10.2386   -3.1700    0.3010 C.ar      1 <0>        -0.1230
     40 C33       -10.0210   -4.4977    0.0021 C.ar      1 <0>        -0.1043
     41 O6         -9.8823   -1.3110    1.7455 O.3       1 <0>        -0.2983
     42 C34       -11.0765   -0.9687    2.2547 C.2       1 <0>         0.4569
     43 O7        -11.8902   -1.8235    2.5138 O.2       1 <0>        -0.4950
     44 C35       -11.4021    0.4816    2.5030 C.3       1 <0>        -0.1444
     45 C36        -6.3297   -5.2773    2.5433 C.3       1 <0>        -0.2179
     46 C37        -7.3185   -9.3352    3.3427 C.3       1 <0>        -0.1502
     47 C38        -3.5107   -9.6170    1.9621 C.3       1 <0>        -0.2140
     48 H3          0.4418  -16.4293   -0.8575 H         1 <0>         0.1055
     49 H4          0.5625  -15.6800    0.7526 H         1 <0>         0.1034
     50 H5         -0.6140  -16.9841    0.4637 H         1 <0>         0.1035
     51 H6         -4.1834  -14.9033   -0.8100 H         1 <0>         0.1264
     52 H7         -5.6992  -13.1028   -1.5058 H         1 <0>         0.1300
     53 H8         -1.6540  -12.0241    1.0703 H         1 <0>         0.1305
     54 H9         -1.0336  -10.2952    1.0621 H         1 <0>         0.0684
     55 H10        -1.2295   -9.6827   -0.6001 H         1 <0>         0.0690
     56 H11        -1.5978   -8.0592    1.9603 H         1 <0>         0.0862
     57 H12        -0.2057   -7.9592    0.8587 H         1 <0>         0.0705
     58 H13        -1.8341   -6.1372    0.4287 H         1 <0>         0.0761
     59 H14        -1.6907   -7.2237   -0.9714 H         1 <0>         0.0814
     60 H15        -5.6194   -9.2684    0.6855 H         1 <0>         0.0878
     61 H16        -5.8520   -8.3782   -0.8417 H         1 <0>         0.0811
     62 H17        -5.3636  -10.3307   -2.1548 H         1 <0>         0.0800
     63 H18        -6.5213  -10.8384   -0.9082 H         1 <0>         0.0803
     64 H19        -3.9366   -6.5144   -1.7884 H         1 <0>         0.0798
     65 H20        -5.3512   -6.6186   -0.7129 H         1 <0>         0.0745
     66 H21        -4.0845   -5.4073   -0.4024 H         1 <0>         0.0651
     67 H22        -8.3147   -7.7344    5.3072 H         1 <0>         0.0815
     68 H23        -6.5928   -8.0317    5.6359 H         1 <0>         0.0761
     69 H24        -7.2526   -5.7254    6.2709 H         1 <0>         0.0706
     70 H25        -6.0510   -5.7203    4.9603 H         1 <0>         0.0859
     71 H26        -9.0706   -5.4212    4.6127 H         1 <0>         0.0694
     72 H27        -7.8694   -4.1110    4.4824 H         1 <0>         0.0683
     73 H28        -6.9467   -6.9658    0.8458 H         1 <0>         0.0881
     74 H29        -7.9068   -8.4520    1.0664 H         1 <0>         0.0812
     75 H30        -8.8486   -6.7946   -0.6284 H         1 <0>         0.0803
     76 H31        -9.9678   -7.2843    0.6601 H         1 <0>         0.0800
     77 H32        -8.4408   -2.9803    3.1504 H         1 <0>         0.1302
     78 H33       -10.8495   -2.5612   -0.3490 H         1 <0>         0.1264
     79 H34       -10.4648   -4.9252   -0.8849 H         1 <0>         0.1301
     80 H35       -10.5533    1.0998    2.2106 H         1 <0>         0.0941
     81 H36       -12.2762    0.7634    1.9159 H         1 <0>         0.1093
     82 H37       -11.6123    0.6306    3.5621 H         1 <0>         0.1087
     83 H38        -5.7046   -5.5486    3.3940 H         1 <0>         0.0973
     84 H39        -6.0408   -5.8710    1.6761 H         1 <0>         0.0791
     85 H40        -6.1984   -4.2187    2.3190 H         1 <0>         0.0623
     86 H41        -6.6189   -9.9017    3.9573 H         1 <0>         0.0650
     87 H42        -8.3397   -9.5819    3.6334 H         1 <0>         0.0798
     88 H43        -7.1681   -9.5886    2.2934 H         1 <0>         0.0747
     89 H44        -3.2941  -10.5099    2.5484 H         1 <0>         0.0627
     90 H45        -2.9734   -8.7669    2.3827 H         1 <0>         0.0963
     91 H46        -4.5820   -9.4176    1.9860 H         1 <0>         0.0766
@<TRIPOS>BOND
     1    1    2 1
     2    1   48 1
     3    1   49 1
     4    1   50 1
     5    2    3 2
     6    2    4 1
     7    4    5 1
     8    5   10 ar
     9    5    6 ar
    10    6    7 ar
    11    6   51 1
    12    7    8 ar
    13    7   52 1
    14    8   19 1
    15    8    9 ar
    16    9   10 ar
    17    9   11 1
    18   10   53 1
    19   11   16 1
    20   11   12 1
    21   11   47 1
    22   12   13 1
    23   12   54 1
    24   12   55 1
    25   13   14 1
    26   13   56 1
    27   13   57 1
    28   14   15 1
    29   14   58 1
    30   14   59 1
    31   15   16 1
    32   15   20 1
    33   15   21 1
    34   16   17 1
    35   16   18 1
    36   18   19 1
    37   18   60 1
    38   18   61 1
    39   19   62 1
    40   19   63 1
    41   20   64 1
    42   20   65 1
    43   20   66 1
    44   21   22 2
    45   21   23 1
    46   23   24 1
    47   24   25 2
    48   24   26 1
    49   26   31 1
    50   26   27 1
    51   26   46 1
    52   27   28 1
    53   27   67 1
    54   27   68 1
    55   28   29 1
    56   28   69 1
    57   28   70 1
    58   29   30 1
    59   29   71 1
    60   29   72 1
    61   30   36 1
    62   30   31 1
    63   30   45 1
    64   31   32 1
    65   31   33 1
    66   33   34 1
    67   33   73 1
    68   33   74 1
    69   34   35 1
    70   34   75 1
    71   34   76 1
    72   35   40 ar
    73   35   36 ar
    74   36   37 ar
    75   37   38 ar
    76   37   77 1
    77   38   39 ar
    78   38   41 1
    79   39   40 ar
    80   39   78 1
    81   40   79 1
    82   41   42 1
    83   42   43 2
    84   42   44 1
    85   44   80 1
    86   44   81 1
    87   44   82 1
    88   45   83 1
    89   45   84 1
    90   45   85 1
    91   46   86 1
    92   46   87 1
    93   46   88 1
    94   47   89 1
    95   47   90 1
    96   47   91 1
@<TRIPOS>MOLECULE
ZINC00792646
   42    42     0     0     0
SMALL
USER_CHARGES

@<TRIPOS>ATOM
      1 C1          0.6376   -0.1949   -0.4660 C.3       1 <0>        -0.1484
      2 C2         -0.5428   -1.0143    0.0595 C.3       1 <0>        -0.0948
      3 C3         -0.8930   -2.1094   -0.9500 C.3       1 <0>        -0.1473
      4 C4         -0.1640   -1.6552    1.3962 C.3       1 <0>         0.0868
      5 O1          0.0500   -0.6325    2.3710 O.3       1 <0>        -0.3546
      6 C5          0.3931   -1.0316    3.6104 C.2       1 <0>         0.6528
      7 O2          0.5076   -2.2158    3.8575 O.2       1 <0>        -0.5531
      8 N1          0.6095   -0.1175    4.5769 N.am      1 <0>        -0.5613
      9 C6          0.5686    1.3114    4.2562 C.3       1 <0>         0.0825
     10 C7          0.8732   -0.5334    5.8870 C.ar      1 <0>         0.1804
     11 C8          2.0598   -1.1915    6.1825 C.ar      1 <0>        -0.0990
     12 C9          2.3170   -1.6006    7.4763 C.ar      1 <0>        -0.0619
     13 C10         1.3945   -1.3557    8.4769 C.ar      1 <0>        -0.1589
     14 C11         0.2120   -0.7006    8.1858 C.ar      1 <0>        -0.0835
     15 C12        -0.0487   -0.2838    6.8951 C.ar      1 <0>        -0.1098
     16 C13         1.6782   -1.8040    9.8874 C.3       1 <0>         0.1016
     17 C14         1.7285   -0.5843   10.8098 C.3       1 <0>         0.4802
     18 F1          0.4777    0.0421   10.8232 F         1 <0>        -0.1578
     19 F2          2.0591   -0.9934   12.1062 F         1 <0>        -0.1563
     20 F3          2.6947    0.3135   10.3435 F         1 <0>        -0.1523
     21 C15         0.5709   -2.7510   10.3540 C.3       1 <0>         0.4348
     22 F4          0.5249   -3.8662    9.5106 F         1 <0>        -0.1603
     23 F5          0.8343   -3.1672   11.6635 F         1 <0>        -0.1575
     24 F6         -0.6591   -2.0856   10.3147 F         1 <0>        -0.1606
     25 O3          2.9346   -2.4837    9.9276 O.3       1 <0>        -0.4986
     26 H1          1.4990   -0.8479   -0.6072 H         1 <0>         0.0554
     27 H2          0.3678    0.2616   -1.4182 H         1 <0>         0.0598
     28 H3          0.8872    0.5852    0.2532 H         1 <0>         0.0604
     29 H4         -1.4041   -0.3614    0.2007 H         1 <0>         0.0829
     30 H5         -0.0317   -2.7623   -1.0912 H         1 <0>         0.0599
     31 H6         -1.7340   -2.6932   -0.5757 H         1 <0>         0.0597
     32 H7         -1.1629   -1.6529   -1.9023 H         1 <0>         0.0676
     33 H8         -0.9706   -2.3094    1.7270 H         1 <0>         0.0702
     34 H9          0.7492   -2.2376    1.2740 H         1 <0>         0.0705
     35 H10        -0.4477    1.6837    4.3850 H         1 <0>         0.0654
     36 H11         1.2408    1.8525    4.9220 H         1 <0>         0.0798
     37 H12         0.8822    1.4610    3.2231 H         1 <0>         0.0865
     38 H13         2.7805   -1.3834    5.4014 H         1 <0>         0.1371
     39 H14         3.2395   -2.1128    7.7067 H         1 <0>         0.1433
     40 H15        -0.5067   -0.5111    8.9694 H         1 <0>         0.1496
     41 H16        -0.9704    0.2317    6.6692 H         1 <0>         0.1396
     42 H17         2.9750   -3.2691    9.3649 H         1 <0>         0.4092
@<TRIPOS>BOND
     1    1    2 1
     2    1   26 1
     3    1   27 1
     4    1   28 1
     5    2    3 1
     6    2    4 1
     7    2   29 1
     8    3   30 1
     9    3   31 1
    10    3   32 1
    11    4    5 1
    12    4   33 1
    13    4   34 1
    14    5    6 1
    15    6    7 2
    16    6    8 am
    17    8    9 1
    18    8   10 1
    19    9   35 1
    20    9   36 1
    21    9   37 1
    22   10   15 ar
    23   10   11 ar
    24   11   12 ar
    25   11   38 1
    26   12   13 ar
    27   12   39 1
    28   13   14 ar
    29   13   16 1
    30   14   15 ar
    31   14   40 1
    32   15   41 1
    33   16   17 1
    34   16   21 1
    35   16   25 1
    36   17   18 1
    37   17   19 1
    38   17   20 1
    39   21   22 1
    40   21   23 1
    41   21   24 1
    42   25   42 1
@<TRIPOS>MOLECULE
ZINC13862270
   73    76     0     0     0
SMALL
USER_CHARGES

@<TRIPOS>ATOM
      1 C1          0.2052    1.4982    0.1222 C.3       1 <0>        -0.1570
      2 C2          0.0008   -0.0133    0.0018 C.3       1 <0>        -0.0853
      3 H1         -1.0656   -0.2383    0.0192 H         1 <0>         0.0773
      4 C3          0.6894   -0.7160    1.1736 C.3       1 <0>        -0.1091
      5 C4          0.0032   -0.3176    2.4817 C.3       1 <0>        -0.1732
      6 C5          0.6814   -1.0097    3.6358 C.2       1 <0>         0.3579
      7 O1          1.6171   -1.7457    3.4330 O.2       1 <0>        -0.4494
      8 C6          0.1920   -0.7834    5.0431 C.3       1 <0>        -0.1464
      9 C7          0.5681   -1.9844    5.9132 C.3       1 <0>        -0.1427
     10 C8          0.8399    0.4808    5.6112 C.3       1 <0>        -0.1408
     11 C9          0.6045   -0.5064   -1.3147 C.3       1 <0>        -0.0717
     12 H2          1.6550   -0.2225   -1.3775 H         1 <0>         0.0704
     13 C10         0.4563   -2.0440   -1.4305 C.3       1 <0>        -0.1210
     14 C11        -0.3345   -2.3103   -2.7404 C.3       1 <0>        -0.1164
     15 C12        -0.0564   -1.0524   -3.5705 C.3       1 <0>        -0.0829
     16 H3          0.9532   -1.0842   -3.9801 H         1 <0>         0.0719
     17 C13        -0.1693    0.0659   -2.4981 C.3       1 <0>        -0.0549
     18 C14         0.3845    1.3358   -3.1159 C.3       1 <0>        -0.1065
     19 C15        -0.5453    1.7164   -4.2785 C.3       1 <0>        -0.1200
     20 C16        -0.6557    0.5932   -5.3058 C.3       1 <0>        -0.0671
     21 H4          0.3219    0.4517   -5.7668 H         1 <0>         0.0628
     22 C17        -1.0608   -0.7497   -4.6679 C.3       1 <0>        -0.0686
     23 H5         -2.0643   -0.6728   -4.2496 H         1 <0>         0.0812
     24 C18        -0.9950   -1.8443   -5.7388 C.3       1 <0>        -0.0829
     25 C19        -1.8632   -1.4532   -6.8990 C.2       1 <0>        -0.1536
     26 C20        -2.1362   -0.2162   -7.1944 C.2       1 <0>        -0.1061
     27 C21        -1.6444    0.9858   -6.3910 C.3       1 <0>        -0.0115
     28 C22        -0.9979    1.9889   -7.3506 C.3       1 <0>        -0.1054
     29 C23        -1.9995    2.3622   -8.4453 C.3       1 <0>        -0.1126
     30 C24        -2.3551    1.1202   -9.2644 C.3       1 <0>         0.1095
     31 H6         -1.4443    0.6787   -9.6690 H         1 <0>         0.0484
     32 C25        -3.0207    0.0577   -8.3993 C.3       1 <0>        -0.1197
     33 O2         -3.2229    1.4899  -10.3379 O.3       1 <0>        -0.5681
     34 C26        -2.8321    1.6835   -5.7252 C.3       1 <0>        -0.1484
     35 C27        -1.6357    0.2673   -2.1111 C.3       1 <0>        -0.1512
     36 H7          1.2717    1.7178    0.1713 H         1 <0>         0.0530
     37 H8         -0.2282    1.9937   -0.7466 H         1 <0>         0.0654
     38 H9         -0.2823    1.8598    1.0275 H         1 <0>         0.0524
     39 H10         0.6202   -1.7957    1.0411 H         1 <0>         0.0702
     40 H11         1.7380   -0.4207    1.2088 H         1 <0>         0.0655
     41 H12         0.0723    0.7621    2.6141 H         1 <0>         0.0988
     42 H13        -1.0455   -0.6129    2.4465 H         1 <0>         0.0960
     43 H14        -0.8915   -0.6648    5.0363 H         1 <0>         0.0952
     44 H15         1.6516   -2.1030    5.9200 H         1 <0>         0.0641
     45 H16         0.2142   -1.8207    6.9310 H         1 <0>         0.0625
     46 H17         0.1066   -2.8851    5.5084 H         1 <0>         0.0562
     47 H18         1.9234    0.3622    5.6180 H         1 <0>         0.0599
     48 H19         0.5720    1.3364    4.9914 H         1 <0>         0.0610
     49 H20         0.4859    0.6445    6.6291 H         1 <0>         0.0688
     50 H21         1.4394   -2.5115   -1.4853 H         1 <0>         0.0613
     51 H22        -0.0958   -2.4321   -0.5746 H         1 <0>         0.0657
     52 H23         0.0451   -3.1980   -3.2464 H         1 <0>         0.0618
     53 H24        -1.4003   -2.4087   -2.5343 H         1 <0>         0.0660
     54 H25         0.3978    2.1344   -2.3742 H         1 <0>         0.0676
     55 H26         1.3928    1.1580   -3.4896 H         1 <0>         0.0608
     56 H27        -1.5373    1.9350   -3.8831 H         1 <0>         0.0745
     57 H28        -0.1550    2.6086   -4.7681 H         1 <0>         0.0598
     58 H29         0.0345   -1.9609   -6.0774 H         1 <0>         0.0719
     59 H30        -1.3500   -2.7857   -5.3195 H         1 <0>         0.0705
     60 H31        -2.2800   -2.2346   -7.5171 H         1 <0>         0.1031
     61 H32        -0.7099    2.8848   -6.8005 H         1 <0>         0.0732
     62 H33        -0.1139    1.5405   -7.8041 H         1 <0>         0.0635
     63 H34        -2.9028    2.7658   -7.9880 H         1 <0>         0.0741
     64 H35        -1.5581    3.1139   -9.0996 H         1 <0>         0.0708
     65 H36        -3.1818   -0.8666   -8.9542 H         1 <0>         0.0725
     66 H37        -3.9783    0.4594   -8.0681 H         1 <0>         0.0760
     67 H38        -3.4898    0.7501  -10.9004 H         1 <0>         0.3779
     68 H39        -2.4830    2.5710   -5.1975 H         1 <0>         0.0652
     69 H40        -3.5558    1.9747   -6.4865 H         1 <0>         0.0567
     70 H41        -3.3038    1.0019   -5.0173 H         1 <0>         0.0547
     71 H42        -1.7075    1.0469   -1.3526 H         1 <0>         0.0596
     72 H43        -2.2065    0.5631   -2.9913 H         1 <0>         0.0619
     73 H44        -2.0379   -0.6645   -1.7135 H         1 <0>         0.0549
@<TRIPOS>BOND
     1    1    2 1
     2    1   36 1
     3    1   37 1
     4    1   38 1
     5    2    3 1
     6    2    4 1
     7    2   11 1
     8    4    5 1
     9    4   39 1
    10    4   40 1
    11    5    6 1
    12    5   41 1
    13    5   42 1
    14    6    7 2
    15    6    8 1
    16    8    9 1
    17    8   10 1
    18    8   43 1
    19    9   44 1
    20    9   45 1
    21    9   46 1
    22   10   47 1
    23   10   48 1
    24   10   49 1
    25   11   12 1
    26   11   17 1
    27   11   13 1
    28   13   14 1
    29   13   50 1
    30   13   51 1
    31   14   15 1
    32   14   52 1
    33   14   53 1
    34   15   16 1
    35   15   22 1
    36   15   17 1
    37   17   18 1
    38   17   35 1
    39   18   19 1
    40   18   54 1
    41   18   55 1
    42   19   20 1
    43   19   56 1
    44   19   57 1
    45   20   21 1
    46   20   27 1
    47   20   22 1
    48   22   23 1
    49   22   24 1
    50   24   25 1
    51   24   58 1
    52   24   59 1
    53   25   26 2
    54   25   60 1
    55   26   32 1
    56   26   27 1
    57   27   28 1
    58   27   34 1
    59   28   29 1
    60   28   61 1
    61   28   62 1
    62   29   30 1
    63   29   63 1
    64   29   64 1
    65   30   31 1
    66   30   32 1
    67   30   33 1
    68   32   65 1
    69   32   66 1
    70   33   67 1
    71   34   68 1
    72   34   69 1
    73   34   70 1
    74   35   71 1
    75   35   72 1
    76   35   73 1
@<TRIPOS>MOLECULE
ZINC04097086
   75    78     0     0     0
SMALL
USER_CHARGES
17-(6-hydroxy-1,5-dimethyl-hexyl)-10,13-dimethyl-2,3,4,7,8,9,11,12,14,15,16,17-dodecahydro-1H-cyclopenta[a]phenanthren-3-ol
@<TRIPOS>ATOM
      1 C1         -5.5859   -0.7133   12.4042 C.3       1 <0>        -0.1450
      2 C2         -6.7525    0.1996   12.0214 C.3       1 <0>        -0.0926
      3 H1         -7.5201   -0.3851   11.5145 H         1 <0>         0.0759
      4 C3         -6.2515    1.3027   11.0869 C.3       1 <0>        -0.1136
      5 C4         -5.7760    0.6806    9.7725 C.3       1 <0>        -0.1202
      6 C5         -5.2750    1.7837    8.8380 C.3       1 <0>        -0.1173
      7 C6         -4.7996    1.1616    7.5235 C.3       1 <0>        -0.0845
      8 H2         -4.0518    0.3967    7.7331 H         1 <0>         0.0756
      9 C7         -5.9890    0.5273    6.7998 C.3       1 <0>        -0.1546
     10 C8         -4.1842    2.2475    6.6386 C.3       1 <0>        -0.0719
     11 H3         -4.9383    2.9857    6.3659 H         1 <0>         0.0693
     12 C9         -3.0035    2.9319    7.3716 C.3       1 <0>        -0.1206
     13 C10        -1.7590    2.7531    6.4598 C.3       1 <0>        -0.1164
     14 C11        -2.3769    2.5606    5.0705 C.3       1 <0>        -0.0827
     15 H4         -2.7309    3.5138    4.6778 H         1 <0>         0.0724
     16 C12        -3.5754    1.6260    5.3856 C.3       1 <0>        -0.0552
     17 C13        -4.4552    1.5979    4.1501 C.3       1 <0>        -0.1060
     18 C14        -3.6378    0.9402    3.0273 C.3       1 <0>        -0.1208
     19 C15        -2.3299    1.6831    2.7692 C.3       1 <0>        -0.0661
     20 H5         -2.5683    2.6784    2.3942 H         1 <0>         0.0636
     21 C16        -1.5049    1.8471    4.0531 C.3       1 <0>        -0.0697
     22 H6         -1.2023    0.8717    4.4341 H         1 <0>         0.0832
     23 C17        -0.2826    2.7133    3.7298 C.3       1 <0>        -0.0849
     24 C18         0.4844    2.0844    2.6033 C.2       1 <0>        -0.1529
     25 C19        -0.0717    1.3290    1.7183 C.2       1 <0>        -0.1049
     26 C20        -1.5243    0.9522    1.7082 C.3       1 <0>        -0.0121
     27 C21        -2.1115    1.2281    0.3210 C.3       1 <0>        -0.1034
     28 C22        -1.2716    0.5106   -0.7376 C.3       1 <0>        -0.1155
     29 C23         0.1524    1.0691   -0.7323 C.3       1 <0>         0.1086
     30 H7          0.1205    2.1472   -0.8898 H         1 <0>         0.0543
     31 C24         0.8130    0.7695    0.6168 C.3       1 <0>        -0.1190
     32 O1          0.9081    0.4568   -1.7792 O.3       1 <0>        -0.5689
     33 C25        -1.6294   -0.5499    1.9793 C.3       1 <0>        -0.1492
     34 C26        -3.0675    0.2159    5.6932 C.3       1 <0>        -0.1516
     35 C27        -7.3425    0.8301   13.2844 C.3       1 <0>         0.0783
     36 O2         -7.9148   -0.1911   14.1039 O.3       1 <0>        -0.5738
     37 H8         -4.8182   -0.1286   12.9111 H         1 <0>         0.0510
     38 H9         -5.9428   -1.4991   13.0699 H         1 <0>         0.0599
     39 H10        -5.1655   -1.1625   11.5044 H         1 <0>         0.0565
     40 H11        -5.4233    1.8308   11.5595 H         1 <0>         0.0627
     41 H12        -7.0615    2.0036   10.8851 H         1 <0>         0.0618
     42 H13        -6.6042    0.1525    9.2999 H         1 <0>         0.0639
     43 H14        -4.9660   -0.0203    9.9742 H         1 <0>         0.0640
     44 H15        -4.4468    2.3118    9.3106 H         1 <0>         0.0636
     45 H16        -6.0850    2.4846    8.6362 H         1 <0>         0.0588
     46 H17        -5.6403    0.0288    5.8955 H         1 <0>         0.0613
     47 H18        -6.4667   -0.2011    7.4551 H         1 <0>         0.0540
     48 H19        -6.7076    1.3024    6.5334 H         1 <0>         0.0516
     49 H20        -2.8330    2.4524    8.3355 H         1 <0>         0.0659
     50 H21        -3.2141    3.9919    7.5135 H         1 <0>         0.0600
     51 H22        -1.1888    1.8719    6.7538 H         1 <0>         0.0659
     52 H23        -1.1324    3.6447    6.4831 H         1 <0>         0.0614
     53 H24        -4.7276    2.6140    3.8650 H         1 <0>         0.0599
     54 H25        -5.3543    1.0136    4.3461 H         1 <0>         0.0668
     55 H26        -4.2304    0.9359    2.1124 H         1 <0>         0.0592
     56 H27        -3.4125   -0.0887    3.3078 H         1 <0>         0.0743
     57 H28        -0.6104    3.7102    3.4351 H         1 <0>         0.0714
     58 H29         0.3558    2.7853    4.6103 H         1 <0>         0.0695
     59 H30         1.5437    2.2807    2.5282 H         1 <0>         0.1030
     60 H31        -2.1004    2.3008    0.1282 H         1 <0>         0.0636
     61 H32        -3.1373    0.8617    0.2809 H         1 <0>         0.0732
     62 H33        -1.7178    0.6647   -1.7201 H         1 <0>         0.0696
     63 H34        -1.2436   -0.5561   -0.5153 H         1 <0>         0.0739
     64 H35         0.9189   -0.3080    0.7426 H         1 <0>         0.0790
     65 H36         1.7943    1.2422    0.6582 H         1 <0>         0.0683
     66 H37         1.8233    0.7642   -1.8351 H         1 <0>         0.3779
     67 H38        -1.0703   -1.0962    1.2196 H         1 <0>         0.0569
     68 H39        -1.2167   -0.7712    2.9636 H         1 <0>         0.0549
     69 H40        -2.6761   -0.8524    1.9478 H         1 <0>         0.0645
     70 H41        -2.5084   -0.1636    4.8379 H         1 <0>         0.0623
     71 H42        -2.4175    0.2465    6.5676 H         1 <0>         0.0545
     72 H43        -3.9149   -0.4399    5.8932 H         1 <0>         0.0598
     73 H44        -6.5544    1.3409   13.8377 H         1 <0>         0.0444
     74 H45        -8.1143    1.5475   13.0058 H         1 <0>         0.0438
     75 H46        -8.3085    0.1371   14.9238 H         1 <0>         0.3793
@<TRIPOS>BOND
     1    1    2 1
     2    1   37 1
     3    1   38 1
     4    1   39 1
     5    2    3 1
     6    2    4 1
     7    2   35 1
     8    4    5 1
     9    4   40 1
    10    4   41 1
    11    5    6 1
    12    5   42 1
    13    5   43 1
    14    6    7 1
    15    6   44 1
    16    6   45 1
    17    7    8 1
    18    7    9 1
    19    7   10 1
    20    9   46 1
    21    9   47 1
    22    9   48 1
    23   10   11 1
    24   10   16 1
    25   10   12 1
    26   12   13 1
    27   12   49 1
    28   12   50 1
    29   13   14 1
    30   13   51 1
    31   13   52 1
    32   14   15 1
    33   14   21 1
    34   14   16 1
    35   16   17 1
    36   16   34 1
    37   17   18 1
    38   17   53 1
    39   17   54 1
    40   18   19 1
    41   18   55 1
    42   18   56 1
    43   19   20 1
    44   19   26 1
    45   19   21 1
    46   21   22 1
    47   21   23 1
    48   23   24 1
    49   23   57 1
    50   23   58 1
    51   24   25 2
    52   24   59 1
    53   25   31 1
    54   25   26 1
    55   26   27 1
    56   26   33 1
    57   27   28 1
    58   27   60 1
    59   27   61 1
    60   28   29 1
    61   28   62 1
    62   28   63 1
    63   29   30 1
    64   29   31 1
    65   29   32 1
    66   31   64 1
    67   31   65 1
    68   32   66 1
    69   33   67 1
    70   33   68 1
    71   33   69 1
    72   34   70 1
    73   34   71 1
    74   34   72 1
    75   35   36 1
    76   35   73 1
    77   35   74 1
    78   36   75 1
@<TRIPOS>MOLECULE
ZINC03639394
   39    40     0     0     0
SMALL
USER_CHARGES
N-methyl-N-[4-[2,2,2-trifluoro-1-hydroxy-1-(trifluoromethyl)ethyl]phenyl]-benzamide
@<TRIPOS>ATOM
      1 C1          0.0108   -2.7373    1.1604 C.3       1 <0>         0.0471
      2 N1          1.1385   -2.0845    0.4908 N.am      1 <0>        -0.5509
      3 C2          1.0964   -0.7115    0.2287 C.ar      1 <0>         0.1823
      4 C3          0.0611    0.0626    0.7368 C.ar      1 <0>        -0.1596
      5 C4          0.0222    1.4182    0.4757 C.ar      1 <0>        -0.0484
      6 C5          1.0126    2.0050   -0.2906 C.ar      1 <0>        -0.1875
      7 C6          2.0447    1.2372   -0.7979 C.ar      1 <0>        -0.0680
      8 C7          2.0895   -0.1190   -0.5406 C.ar      1 <0>        -0.1558
      9 C8          0.9667    3.4845   -0.5738 C.3       1 <0>         0.1058
     10 C9          2.2858    4.1277   -0.1413 C.3       1 <0>         0.4789
     11 F1          3.3250    3.6457   -0.9445 F         1 <0>        -0.1579
     12 F2          2.1949    5.5168   -0.2803 F         1 <0>        -0.1576
     13 F3          2.5438    3.8087    1.1961 F         1 <0>        -0.1527
     14 C10         0.7562    3.7106   -2.0723 C.3       1 <0>         0.4340
     15 F4         -0.4501    3.1224   -2.4677 F         1 <0>        -0.1630
     16 F5          0.7135    5.0840   -2.3352 F         1 <0>        -0.1597
     17 F6          1.8125    3.1320   -2.7841 F         1 <0>        -0.1599
     18 O1         -0.1123    4.0754    0.1533 O.3       1 <0>        -0.4999
     19 C11         2.2166   -2.8071    0.1275 C.2       1 <0>         0.5626
     20 O2          3.2002   -2.2491   -0.3183 O.2       1 <0>        -0.5023
     21 C12         2.2028   -4.2782    0.2711 C.ar      1 <0>        -0.1421
     22 C13         0.9894   -4.9627    0.3593 C.ar      1 <0>        -0.1088
     23 C14         0.9836   -6.3362    0.4875 C.ar      1 <0>        -0.1281
     24 C15         2.1771   -7.0342    0.5406 C.ar      1 <0>        -0.0875
     25 C16         3.3833   -6.3614    0.4595 C.ar      1 <0>        -0.1263
     26 C17         3.4033   -4.9886    0.3249 C.ar      1 <0>        -0.0551
     27 H1         -0.7518   -2.9908    0.4239 H         1 <0>         0.0783
     28 H2          0.3571   -3.6463    1.6524 H         1 <0>         0.1042
     29 H3         -0.4120   -2.0607    1.9030 H         1 <0>         0.0840
     30 H4         -0.7124   -0.3950    1.3356 H         1 <0>         0.1387
     31 H5         -0.7849    2.0199    0.8667 H         1 <0>         0.1379
     32 H6          2.8166    1.6985   -1.3961 H         1 <0>         0.1446
     33 H7          2.8960   -0.7181   -0.9368 H         1 <0>         0.1840
     34 H8         -0.9813    3.7150   -0.0703 H         1 <0>         0.4063
     35 H9          0.0572   -4.4186    0.3224 H         1 <0>         0.1499
     36 H10         0.0454   -6.8675    0.5510 H         1 <0>         0.1323
     37 H11         2.1670   -8.1091    0.6455 H         1 <0>         0.1302
     38 H12         4.3114   -6.9122    0.5012 H         1 <0>         0.1333
     39 H13         4.3455   -4.4646    0.2616 H         1 <0>         0.1367
@<TRIPOS>BOND
     1    1    2 1
     2    1   27 1
     3    1   28 1
     4    1   29 1
     5    2    3 1
     6    2   19 am
     7    3    8 ar
     8    3    4 ar
     9    4    5 ar
    10    4   30 1
    11    5    6 ar
    12    5   31 1
    13    6    7 ar
    14    6    9 1
    15    7    8 ar
    16    7   32 1
    17    8   33 1
    18    9   10 1
    19    9   14 1
    20    9   18 1
    21   10   11 1
    22   10   12 1
    23   10   13 1
    24   14   15 1
    25   14   16 1
    26   14   17 1
    27   18   34 1
    28   19   20 2
    29   19   21 1
    30   21   26 ar
    31   21   22 ar
    32   22   23 ar
    33   22   35 1
    34   23   24 ar
    35   23   36 1
    36   24   25 ar
    37   24   37 1
    38   25   26 ar
    39   25   38 1
    40   26   39 1
@<TRIPOS>MOLECULE
ZINC00947921
   37    38     0     0     0
SMALL
USER_CHARGES

@<TRIPOS>ATOM
      1 C1          6.4202   -5.2791   -0.7867 C.ar      1 <0>        -0.0587
      2 C2          5.0463   -5.2338   -0.6407 C.ar      1 <0>        -0.1382
      3 C3          4.4121   -4.0219   -0.4408 C.ar      1 <0>        -0.0167
      4 C4          5.1518   -2.8554   -0.3865 C.ar      1 <0>        -0.6779
      5 C5          6.5257   -2.9008   -0.5316 C.ar      1 <0>        -0.0191
      6 C6          7.1598   -4.1126   -0.7329 C.ar      1 <0>        -0.1392
      7 S1          4.3433   -1.3105   -0.1328 S.o2      1 <0>         2.6884
      8 O1          5.2382   -0.3044   -0.5867 O.2       1 <0>        -0.9473
      9 O2          3.0279   -1.4505   -0.6518 O.2       1 <0>        -0.9436
     10 N1          4.1871   -1.1023    1.5026 N.pl3     1 <0>        -1.0661
     11 C7          3.3950   -1.9804    2.2459 C.ar      1 <0>         0.1518
     12 C8          2.0102   -1.8953    2.1789 C.ar      1 <0>        -0.1022
     13 C9          1.2300   -2.7653    2.9148 C.ar      1 <0>        -0.0645
     14 C10         1.8259   -3.7202    3.7181 C.ar      1 <0>        -0.1538
     15 C11         3.2043   -3.8078    3.7871 C.ar      1 <0>        -0.0882
     16 C12         3.9904   -2.9445    3.0494 C.ar      1 <0>        -0.1056
     17 C13         0.9714   -4.6673    4.5204 C.3       1 <0>         0.0998
     18 C14         1.3167   -6.1095    4.1438 C.3       1 <0>         0.4346
     19 F1          2.6273   -6.3943    4.5417 F         1 <0>        -0.1613
     20 F2          0.4337   -6.9836    4.7869 F         1 <0>        -0.1559
     21 F3          1.2047   -6.2692    2.7585 F         1 <0>        -0.1606
     22 C15         1.2348   -4.4528    6.0122 C.3       1 <0>         0.4799
     23 F4          0.9191   -3.1341    6.3566 F         1 <0>        -0.1516
     24 F5          0.4415   -5.3320    6.7571 F         1 <0>        -0.1571
     25 F6          2.5848   -4.6960    6.2870 F         1 <0>        -0.1571
     26 O3         -0.4076   -4.4188    4.2397 O.3       1 <0>        -0.4972
     27 H1          6.9161   -6.2265   -0.9384 H         1 <0>         0.1331
     28 H2          4.4684   -6.1452   -0.6832 H         1 <0>         0.1344
     29 H3          3.3386   -3.9864   -0.3275 H         1 <0>         0.1375
     30 H4          7.1036   -1.9894   -0.4894 H         1 <0>         0.1421
     31 H5          8.2332   -4.1480   -0.8466 H         1 <0>         0.1352
     32 H6          4.6457   -0.3706    1.9443 H         1 <0>         0.4307
     33 H7          1.5441   -1.1493    1.5522 H         1 <0>         0.1491
     34 H8          0.1532   -2.6997    2.8631 H         1 <0>         0.1461
     35 H9          3.6665   -4.5547    4.4155 H         1 <0>         0.1485
     36 H10         5.0668   -3.0163    3.1003 H         1 <0>         0.1416
     37 H11        -0.6471   -4.5362    3.3102 H         1 <0>         0.4093
@<TRIPOS>BOND
     1    1    6 ar
     2    1    2 ar
     3    1   27 1
     4    2    3 ar
     5    2   28 1
     6    3    4 ar
     7    3   29 1
     8    4    5 ar
     9    4    7 1
    10    5    6 ar
    11    5   30 1
    12    6   31 1
    13    7    8 2
    14    7    9 2
    15    7   10 1
    16   10   11 1
    17   10   32 1
    18   11   16 ar
    19   11   12 ar
    20   12   13 ar
    21   12   33 1
    22   13   14 ar
    23   13   34 1
    24   14   15 ar
    25   14   17 1
    26   15   16 ar
    27   15   35 1
    28   16   36 1
    29   17   18 1
    30   17   22 1
    31   17   26 1
    32   18   19 1
    33   18   20 1
    34   18   21 1
    35   22   23 1
    36   22   24 1
    37   22   25 1
    38   26   37 1
@<TRIPOS>MOLECULE
ZINC00947921
   36    37     0     0     0
SMALL
USER_CHARGES

@<TRIPOS>ATOM
      1 C1         -0.0091    1.3485   -0.0710 C.ar      1 <0>        -0.0831
      2 C2          1.1970    2.0021   -0.2421 C.ar      1 <0>        -0.1473
      3 C3          2.3782    1.2840   -0.2428 C.ar      1 <0>        -0.0247
      4 C4          2.3534   -0.0875   -0.0720 C.ar      1 <0>        -0.6166
      5 C5          1.1474   -0.7409    0.1000 C.ar      1 <0>        -0.0247
      6 C6         -0.0339   -0.0231    0.0993 C.ar      1 <0>        -0.1472
      7 S1          3.8589   -1.0030   -0.0741 S.o2      1 <0>         2.6044
      8 O1          3.5242   -2.3343   -0.4411 O.2       1 <0>        -1.0252
      9 O2          4.8045   -0.2279   -0.7982 O.2       1 <0>        -1.0259
     10 N1          4.3967   -1.0645    1.4910 N.2       1 <0>        -1.0806
     11 C7          5.5838   -1.7343    1.7957 C.ar      1 <0>         0.3051
     12 C8          6.3176   -2.3446    0.7863 C.ar      1 <0>        -0.2658
     13 C9          7.4912   -3.0057    1.0910 C.ar      1 <0>        -0.0150
     14 C10         7.9359   -3.0610    2.3993 C.ar      1 <0>        -0.2800
     15 C11         7.2079   -2.4546    3.4065 C.ar      1 <0>        -0.0529
     16 C12         6.0364   -1.7869    3.1080 C.ar      1 <0>        -0.1765
     17 C13         9.2165   -3.7842    2.7281 C.3       1 <0>         0.1262
     18 C14        10.1760   -2.8257    3.4363 C.3       1 <0>         0.4307
     19 F1          9.6405   -2.4614    4.6763 F         1 <0>        -0.1648
     20 F2         11.4092   -3.4579    3.6285 F         1 <0>        -0.1713
     21 F3         10.3558   -1.6815    2.6517 F         1 <0>        -0.1624
     22 C15         8.9114   -4.9704    3.6450 C.3       1 <0>         0.4758
     23 F4          8.0340   -5.8467    2.9974 F         1 <0>        -0.1549
     24 F5         10.1002   -5.6417    3.9502 F         1 <0>        -0.1722
     25 F6          8.3209   -4.5073    4.8257 F         1 <0>        -0.1598
     26 O3          9.8196   -4.2571    1.5220 O.3       1 <0>        -0.5104
     27 H1         -0.9316    1.9101   -0.0660 H         1 <0>         0.1235
     28 H2          1.2163    3.0736   -0.3756 H         1 <0>         0.1262
     29 H3          3.3204    1.7945   -0.3772 H         1 <0>         0.1361
     30 H4          1.1280   -1.8125    0.2332 H         1 <0>         0.1363
     31 H5         -0.9761   -0.5336    0.2333 H         1 <0>         0.1263
     32 H6          5.9705   -2.3024   -0.2355 H         1 <0>         0.1057
     33 H7          8.0622   -3.4804    0.3067 H         1 <0>         0.1151
     34 H8          7.5580   -2.4996    4.4272 H         1 <0>         0.1236
     35 H9          5.4706   -1.3097    3.8945 H         1 <0>         0.1219
     36 H10        10.0407   -3.5575    0.8922 H         1 <0>         0.4043
@<TRIPOS>BOND
     1    1    6 ar
     2    1    2 ar
     3    1   27 1
     4    2    3 ar
     5    2   28 1
     6    3    4 ar
     7    3   29 1
     8    4    5 ar
     9    4    7 1
    10    5    6 ar
    11    5   30 1
    12    6   31 1
    13    7    8 2
    14    7    9 2
    15    7   10 1
    16   10   11 1
    17   11   16 ar
    18   11   12 ar
    19   12   13 ar
    20   12   32 1
    21   13   14 ar
    22   13   33 1
    23   14   15 ar
    24   14   17 1
    25   15   16 ar
    26   15   34 1
    27   16   35 1
    28   17   18 1
    29   17   22 1
    30   17   26 1
    31   18   19 1
    32   18   20 1
    33   18   21 1
    34   22   23 1
    35   22   24 1
    36   22   25 1
    37   26   36 1
@<TRIPOS>MOLECULE
ZINC00947921
   36    37     0     0     0
SMALL
USER_CHARGES

@<TRIPOS>ATOM
      1 C1          6.4943   -5.2808   -0.7091 C.ar      1 <0>        -0.0637
      2 C2          5.1183   -5.2476   -0.5809 C.ar      1 <0>        -0.1374
      3 C3          4.4698   -4.0400   -0.4021 C.ar      1 <0>        -0.0086
      4 C4          5.1973   -2.8656   -0.3511 C.ar      1 <0>        -0.6730
      5 C5          6.5733   -2.8990   -0.4784 C.ar      1 <0>        -0.0226
      6 C6          7.2218   -4.1064   -0.6585 C.ar      1 <0>        -0.1450
      7 S1          4.3705   -1.3263   -0.1243 S.o2      1 <0>         2.6888
      8 O1          5.2614   -0.3162   -0.5773 O.2       1 <0>        -0.9635
      9 O2          3.0634   -1.4847   -0.6588 O.2       1 <0>        -0.9454
     10 N1          4.1910   -1.1024    1.5066 N.pl3     1 <0>        -1.0562
     11 C7          3.3980   -1.9805    2.2489 C.ar      1 <0>         0.1051
     12 C8          2.0133   -1.9092    2.1638 C.ar      1 <0>        -0.1177
     13 C9          1.2322   -2.7792    2.8988 C.ar      1 <0>        -0.0505
     14 C10         1.8270   -3.7203    3.7191 C.ar      1 <0>        -0.0874
     15 C11         3.2051   -3.7939    3.8062 C.ar      1 <0>        -0.1166
     16 C12         3.9923   -2.9307    3.0696 C.ar      1 <0>        -0.1210
     17 C13         0.9714   -4.6673    4.5204 C.3       1 <0>         0.1644
     18 C14         1.3167   -6.1095    4.1438 C.3       1 <0>         0.4170
     19 F1          2.6273   -6.3943    4.5417 F         1 <0>        -0.2042
     20 F2          0.4337   -6.9836    4.7869 F         1 <0>        -0.1824
     21 F3          1.2047   -6.2692    2.7585 F         1 <0>        -0.1840
     22 C15         1.2334   -4.4532    6.0125 C.3       1 <0>         0.4171
     23 F4          0.9177   -3.1345    6.3569 F         1 <0>        -0.1824
     24 F5          0.4391   -5.3324    6.7564 F         1 <0>        -0.1853
     25 F6          2.5831   -4.6969    6.2886 F         1 <0>        -0.2032
     26 O3         -0.4072   -4.4184    4.2384 O.3       1 <0>        -0.7766
     27 H1          7.0014   -6.2247   -0.8442 H         1 <0>         0.1293
     28 H2          4.5500   -6.1651   -0.6207 H         1 <0>         0.1341
     29 H3          3.3947   -4.0139   -0.3026 H         1 <0>         0.1415
     30 H4          7.1417   -1.9814   -0.4388 H         1 <0>         0.1387
     31 H5          8.2968   -4.1324   -0.7584 H         1 <0>         0.1305
     32 H6          4.6366   -0.3615    1.9464 H         1 <0>         0.4215
     33 H7          1.5481   -1.1741    1.5239 H         1 <0>         0.1309
     34 H8          0.1556   -2.7244    2.8331 H         1 <0>         0.1486
     35 H9          3.6665   -4.5300    4.4479 H         1 <0>         0.1377
     36 H10         5.0686   -2.9918    3.1346 H         1 <0>         0.1216
@<TRIPOS>BOND
     1    1    6 ar
     2    1    2 ar
     3    1   27 1
     4    2    3 ar
     5    2   28 1
     6    3    4 ar
     7    3   29 1
     8    4    5 ar
     9    4    7 1
    10    5    6 ar
    11    5   30 1
    12    6   31 1
    13    7    8 2
    14    7    9 2
    15    7   10 1
    16   10   11 1
    17   10   32 1
    18   11   16 ar
    19   11   12 ar
    20   12   13 ar
    21   12   33 1
    22   13   14 ar
    23   13   34 1
    24   14   15 ar
    25   14   17 1
    26   15   16 ar
    27   15   35 1
    28   16   36 1
    29   17   18 1
    30   17   22 1
    31   17   26 1
    32   18   19 1
    33   18   20 1
    34   18   21 1
    35   22   23 1
    36   22   24 1
    37   22   25 1
@<TRIPOS>MOLECULE
ZINC14972810
   49    52     0     0     0
SMALL
USER_CHARGES
[(2S)-5-(4-chlorophenyl)-2-(2,3-dimethoxyphenyl)-2H-1,3,4-thiadiazol-3-yl]-(2,4,6-trifluorophenyl)methanone
@<TRIPOS>ATOM
      1 C1         -0.5655    3.2654    1.8555 C.3       1 <0>         0.0234
      2 O1          0.7016    2.6064    1.9047 O.3       1 <0>        -0.3041
      3 C2          0.9432    1.6615    0.9569 C.ar      1 <0>         0.1125
      4 C3         -0.0181    1.3752    0.0010 C.ar      1 <0>        -0.1795
      5 C4          0.2291    0.4143   -0.9617 C.ar      1 <0>        -0.0777
      6 C5          1.4343   -0.2630   -0.9732 C.ar      1 <0>        -0.1124
      7 C6          2.3975    0.0176   -0.0221 C.ar      1 <0>        -0.0798
      8 C7          2.1562    0.9798    0.9453 C.ar      1 <0>         0.0999
      9 O2          3.1026    1.2566    1.8819 O.3       1 <0>        -0.3223
     10 C8          3.9796    2.3526    1.6139 C.3       1 <0>         0.0323
     11 C9          3.7096   -0.7235   -0.0372 C.3       1 <0>         0.2074
     12 H1          4.2054   -0.6653    0.9318 H         1 <0>         0.1452
     13 N1          3.5297   -2.1282   -0.4677 N.am      1 <0>        -0.4365
     14 N2          4.1839   -2.4758   -1.6283 N.2       1 <0>        -0.2645
     15 C10         4.9133   -1.6417   -2.3118 C.2       1 <0>         0.2050
     16 S1          4.8047   -0.1183   -1.3867 S.3       1 <0>        -0.1575
     17 C11         5.6581   -1.8965   -3.5634 C.ar      1 <0>        -0.0195
     18 C12         6.3888   -0.8708   -4.1650 C.ar      1 <0>        -0.0650
     19 C13         7.0864   -1.1160   -5.3294 C.ar      1 <0>        -0.1079
     20 C14         7.0533   -2.3738   -5.9078 C.ar      1 <0>        -0.0115
     21 C15         6.3253   -3.3939   -5.3186 C.ar      1 <0>        -0.1103
     22 C16         5.6285   -3.1621   -4.1510 C.ar      1 <0>        -0.0555
     23 Cl1         7.9282   -2.6731   -7.3770 Cl        1 <0>        -0.0550
     24 C17         2.7782   -3.0050    0.2271 C.2       1 <0>         0.6098
     25 O3          2.2935   -2.6789    1.2946 O.2       1 <0>        -0.4637
     26 C18         2.5433   -4.3591   -0.3060 C.ar      1 <0>        -0.1959
     27 C19         3.4252   -5.4005    0.0059 C.ar      1 <0>         0.2044
     28 C20         3.1960   -6.6675   -0.4934 C.ar      1 <0>        -0.1998
     29 C21         2.1020   -6.9069   -1.3100 C.ar      1 <0>         0.1858
     30 C22         1.2274   -5.8796   -1.6275 C.ar      1 <0>        -0.2000
     31 C23         1.4406   -4.6086   -1.1314 C.ar      1 <0>         0.2017
     32 F1          0.5869   -3.6085   -1.4416 F         1 <0>        -0.1109
     33 F2          1.8868   -8.1479   -1.7987 F         1 <0>        -0.1128
     34 F3          4.4951   -5.1678    0.7972 F         1 <0>        -0.1100
     35 H2         -1.3621    2.5297    1.9657 H         1 <0>         0.0585
     36 H3         -0.6283    3.9929    2.6648 H         1 <0>         0.1045
     37 H4         -0.6724    3.7763    0.8986 H         1 <0>         0.0573
     38 H5         -0.9588    1.9058    0.0053 H         1 <0>         0.1395
     39 H6         -0.5211    0.1921   -1.7062 H         1 <0>         0.1356
     40 H7          1.6235   -1.0132   -1.7267 H         1 <0>         0.1229
     41 H8          4.4617    2.2042    0.6476 H         1 <0>         0.0444
     42 H9          3.4072    3.2800    1.5957 H         1 <0>         0.0532
     43 H10         4.7389    2.4095    2.3938 H         1 <0>         0.0988
     44 H11         6.4117    0.1118   -3.7172 H         1 <0>         0.1410
     45 H12         7.6561   -0.3243   -5.7932 H         1 <0>         0.1459
     46 H13         6.3029   -4.3727   -5.7744 H         1 <0>         0.1453
     47 H14         5.0614   -3.9585   -3.6922 H         1 <0>         0.1447
     48 H15         3.8732   -7.4730   -0.2503 H         1 <0>         0.1666
     49 H16         0.3773   -6.0735   -2.2648 H         1 <0>         0.1663
@<TRIPOS>BOND
     1    1    2 1
     2    1   35 1
     3    1   36 1
     4    1   37 1
     5    2    3 1
     6    3    8 ar
     7    3    4 ar
     8    4    5 ar
     9    4   38 1
    10    5    6 ar
    11    5   39 1
    12    6    7 ar
    13    6   40 1
    14    7    8 ar
    15    7   11 1
    16    8    9 1
    17    9   10 1
    18   10   41 1
    19   10   42 1
    20   10   43 1
    21   11   12 1
    22   11   16 1
    23   11   13 1
    24   13   14 1
    25   13   24 am
    26   14   15 2
    27   15   16 1
    28   15   17 1
    29   17   22 ar
    30   17   18 ar
    31   18   19 ar
    32   18   44 1
    33   19   20 ar
    34   19   45 1
    35   20   21 ar
    36   20   23 1
    37   21   22 ar
    38   21   46 1
    39   22   47 1
    40   24   25 2
    41   24   26 1
    42   26   31 ar
    43   26   27 ar
    44   27   28 ar
    45   27   34 1
    46   28   29 ar
    47   28   48 1
    48   29   30 ar
    49   29   33 1
    50   30   31 ar
    51   30   49 1
    52   31   32 1
@<TRIPOS>MOLECULE
ZINC14972814
   49    52     0     0     0
SMALL
USER_CHARGES
[(2R)-5-(4-chlorophenyl)-2-(2,3-dimethoxyphenyl)-2H-1,3,4-thiadiazol-3-yl]-(2,4,6-trifluorophenyl)methanone
@<TRIPOS>ATOM
      1 C1         -2.3752    0.0589    0.0241 C.3       1 <0>         0.0232
      2 O1         -1.1654   -0.7015    0.0090 O.3       1 <0>        -0.3034
      3 C2          0.0021   -0.0041    0.0020 C.ar      1 <0>         0.1169
      4 C3         -0.0167    1.3814    0.0096 C.ar      1 <0>        -0.1821
      5 C4          1.1710    2.0888    0.0021 C.ar      1 <0>        -0.0751
      6 C5          2.3792    1.4170   -0.0130 C.ar      1 <0>        -0.1131
      7 C6          2.4050    0.0349   -0.0207 C.ar      1 <0>        -0.0777
      8 C7          1.2182   -0.6803   -0.0132 C.ar      1 <0>         0.0899
      9 O2          1.2418   -2.0400   -0.0212 O.3       1 <0>        -0.3219
     10 C8          1.2412   -2.6814   -1.2982 C.3       1 <0>         0.0325
     11 C9          3.7239   -0.6941   -0.0367 C.3       1 <0>         0.2091
     12 H1          3.7481   -1.4802    0.7179 H         1 <0>         0.1458
     13 N1          4.8587    0.2426    0.1235 N.am      1 <0>        -0.4381
     14 N2          5.7335    0.2937   -0.9385 N.2       1 <0>        -0.2653
     15 C10         5.5888   -0.4236   -2.0154 C.2       1 <0>         0.1954
     16 S1          4.0999   -1.3609   -1.7102 S.3       1 <0>        -0.1481
     17 C11         6.4556   -0.4546   -3.2128 C.ar      1 <0>        -0.0189
     18 C12         6.1451   -1.2977   -4.2808 C.ar      1 <0>        -0.0652
     19 C13         6.9542   -1.3180   -5.3977 C.ar      1 <0>        -0.1080
     20 C14         8.0791   -0.5125   -5.4558 C.ar      1 <0>        -0.0117
     21 C15         8.3954    0.3219   -4.3969 C.ar      1 <0>        -0.1104
     22 C16         7.5906    0.3551   -3.2772 C.ar      1 <0>        -0.0559
     23 Cl1         9.0971   -0.5492   -6.8615 Cl        1 <0>        -0.0552
     24 C17         5.0239    0.9930    1.2308 C.2       1 <0>         0.6073
     25 O3          4.2238    0.9140    2.1443 O.2       1 <0>        -0.4653
     26 C18         6.1738    1.9094    1.3354 C.ar      1 <0>        -0.1960
     27 C19         6.0657    3.2285    0.8796 C.ar      1 <0>         0.2015
     28 C20         7.1456    4.0827    0.9858 C.ar      1 <0>        -0.1990
     29 C21         8.3376    3.6338    1.5323 C.ar      1 <0>         0.1863
     30 C22         8.4539    2.3274    1.9805 C.ar      1 <0>        -0.1991
     31 C23         7.3810    1.4631    1.8858 C.ar      1 <0>         0.2041
     32 F1          7.4964    0.1900    2.3228 F         1 <0>        -0.1100
     33 F2          9.3914    4.4736    1.6282 F         1 <0>        -0.1123
     34 F3          4.9063    3.6661    0.3415 F         1 <0>        -0.1117
     35 H2         -2.4176    0.6920   -0.8621 H         1 <0>         0.0572
     36 H3         -3.2297   -0.6179    0.0283 H         1 <0>         0.1045
     37 H4         -2.4013    0.6825    0.9178 H         1 <0>         0.0585
     38 H5         -0.9592    1.9087    0.0170 H         1 <0>         0.1396
     39 H6          1.1550    3.1687    0.0080 H         1 <0>         0.1353
     40 H7          3.3049    1.9732   -0.0189 H         1 <0>         0.1223
     41 H8          1.2613   -3.7626   -1.1617 H         1 <0>         0.0998
     42 H9          0.3410   -2.4009   -1.8452 H         1 <0>         0.0532
     43 H10         2.1207   -2.3698   -1.8617 H         1 <0>         0.0516
     44 H11         5.2705   -1.9297   -4.2347 H         1 <0>         0.1405
     45 H12         6.7127   -1.9670   -6.2264 H         1 <0>         0.1458
     46 H13         9.2742    0.9477   -4.4476 H         1 <0>         0.1451
     47 H14         7.8381    1.0065   -2.4520 H         1 <0>         0.1443
     48 H15         7.0624    5.1019    0.6383 H         1 <0>         0.1668
     49 H16         9.3859    1.9847    2.4053 H         1 <0>         0.1669
@<TRIPOS>BOND
     1    1    2 1
     2    1   35 1
     3    1   36 1
     4    1   37 1
     5    2    3 1
     6    3    8 ar
     7    3    4 ar
     8    4    5 ar
     9    4   38 1
    10    5    6 ar
    11    5   39 1
    12    6    7 ar
    13    6   40 1
    14    7    8 ar
    15    7   11 1
    16    8    9 1
    17    9   10 1
    18   10   41 1
    19   10   42 1
    20   10   43 1
    21   11   12 1
    22   11   16 1
    23   11   13 1
    24   13   14 1
    25   13   24 am
    26   14   15 2
    27   15   16 1
    28   15   17 1
    29   17   22 ar
    30   17   18 ar
    31   18   19 ar
    32   18   44 1
    33   19   20 ar
    34   19   45 1
    35   20   21 ar
    36   20   23 1
    37   21   22 ar
    38   21   46 1
    39   22   47 1
    40   24   25 2
    41   24   26 1
    42   26   31 ar
    43   26   27 ar
    44   27   28 ar
    45   27   34 1
    46   28   29 ar
    47   28   48 1
    48   29   30 ar
    49   29   33 1
    50   30   31 ar
    51   30   49 1
    52   31   32 1
@<TRIPOS>MOLECULE
ZINC04096816
   75    78     0     0     0
SMALL
USER_CHARGES

@<TRIPOS>ATOM
      1 C1         -0.0769    1.5206    0.0532 C.3       1 <0>        -0.1606
      2 C2          0.0023   -0.0064    0.0017 C.3       1 <0>        -0.1136
      3 H1          0.4607   -0.3150   -0.9379 H         1 <0>         0.0757
      4 C3          0.8476   -0.5131    1.1721 C.3       1 <0>        -0.0658
      5 H2          0.3737   -0.2548    2.1191 H         1 <0>         0.0674
      6 C4          1.0417   -2.0465    1.0697 C.3       1 <0>        -0.1118
      7 C5          2.5748   -2.2924    1.0337 C.3       1 <0>        -0.1209
      8 C6          3.1388   -1.0409    1.7153 C.3       1 <0>        -0.0823
      9 H3          2.9898   -1.0970    2.7936 H         1 <0>         0.0707
     10 C7          2.2518    0.0789    1.1050 C.3       1 <0>        -0.0556
     11 C8          2.4941    1.3354    1.9195 C.3       1 <0>        -0.1077
     12 C9          3.9606    1.7395    1.7030 C.3       1 <0>        -0.1199
     13 C10         4.9202    0.6201    2.0973 C.3       1 <0>        -0.0670
     14 H4          4.8331    0.4553    3.1713 H         1 <0>         0.0625
     15 C11         4.5872   -0.7130    1.4000 C.3       1 <0>        -0.0684
     16 H5          4.7250   -0.6119    0.3235 H         1 <0>         0.0805
     17 C12         5.4961   -1.8080    1.9693 C.3       1 <0>        -0.0827
     18 C13         6.9297   -1.3949    1.8052 C.2       1 <0>        -0.1535
     19 C14         7.3060   -0.1514    1.7420 C.2       1 <0>        -0.1063
     20 C15         6.3489    1.0376    1.7914 C.3       1 <0>        -0.0114
     21 C16         6.8445    2.0255    2.8515 C.3       1 <0>        -0.1054
     22 C17         8.2882    2.4239    2.5387 C.3       1 <0>        -0.1126
     23 C18         9.1913    1.1916    2.6142 C.3       1 <0>         0.1096
     24 H6          9.0926    0.7284    3.5959 H         1 <0>         0.0484
     25 C19         8.7880    0.1449    1.5836 C.3       1 <0>        -0.1196
     26 O1         10.5498    1.5833    2.4066 O.3       1 <0>        -0.5681
     27 C20         6.3564    1.7636    0.4446 C.3       1 <0>        -0.1483
     28 C21         2.6463    0.3157   -0.3541 C.3       1 <0>        -0.1551
     29 C22        -1.4071   -0.5938    0.0987 C.3       1 <0>         0.1110
     30 H7         -1.8655   -0.2852    1.0382 H         1 <0>         0.0936
     31 C23        -2.2524   -0.0871   -1.0717 C.3       1 <0>        -0.1546
     32 C24        -3.6939   -0.5730   -0.9076 C.3       1 <0>        -0.1105
     33 C25        -4.5392   -0.0663   -2.0780 C.3       1 <0>        -0.0983
     34 C26        -4.0432   -0.7023   -3.3782 C.3       1 <0>        -0.1488
     35 C27        -6.0039   -0.4456   -1.8511 C.3       1 <0>        -0.1488
     36 O2         -1.3332   -2.0200    0.0506 O.3       1 <0>        -0.5536
     37 H8          0.9301    1.9353    0.1013 H         1 <0>         0.0735
     38 H9         -0.5791    1.8888   -0.8414 H         1 <0>         0.0547
     39 H10        -0.6380    1.8258    0.9365 H         1 <0>         0.0539
     40 H11         0.6043   -2.5378    1.9388 H         1 <0>         0.0601
     41 H12         0.5810   -2.4217    0.1559 H         1 <0>         0.0748
     42 H13         2.8350   -3.1887    1.5968 H         1 <0>         0.0599
     43 H14         2.9298   -2.3648    0.0057 H         1 <0>         0.0634
     44 H15         1.8347    2.1329    1.5770 H         1 <0>         0.0675
     45 H16         2.3166    1.1333    2.9758 H         1 <0>         0.0606
     46 H17         4.1107    1.9819    0.6509 H         1 <0>         0.0741
     47 H18         4.1784    2.6223    2.3041 H         1 <0>         0.0596
     48 H19         5.2768   -1.9494    3.0276 H         1 <0>         0.0718
     49 H20         5.3223   -2.7408    1.4329 H         1 <0>         0.0705
     50 H21         7.6834   -2.1654    1.7368 H         1 <0>         0.1030
     51 H22         6.2126    2.9136    2.8446 H         1 <0>         0.0730
     52 H23         6.8016    1.5560    3.8343 H         1 <0>         0.0635
     53 H24         8.3379    2.8491    1.5363 H         1 <0>         0.0740
     54 H25         8.6249    3.1652    3.2634 H         1 <0>         0.0708
     55 H26         9.3610   -0.7747    1.7021 H         1 <0>         0.0725
     56 H27         8.9742    0.5696    0.5972 H         1 <0>         0.0759
     57 H28        11.1800    0.8506    2.4411 H         1 <0>         0.3779
     58 H29         5.7134    2.6419    0.5017 H         1 <0>         0.0650
     59 H30         7.3736    2.0729    0.2043 H         1 <0>         0.0567
     60 H31         5.9875    1.0931   -0.3316 H         1 <0>         0.0545
     61 H32         2.0132    1.0942   -0.7799 H         1 <0>         0.0628
     62 H33         3.6893    0.6288   -0.4024 H         1 <0>         0.0613
     63 H34         2.5175   -0.6071   -0.9197 H         1 <0>         0.0539
     64 H35        -2.2358    1.0026   -1.0870 H         1 <0>         0.0725
     65 H36        -1.8442   -0.4699   -2.0071 H         1 <0>         0.0657
     66 H37        -3.7105   -1.6627   -0.8924 H         1 <0>         0.0678
     67 H38        -4.1021   -0.1902    0.0278 H         1 <0>         0.0590
     68 H39        -4.4511    1.0179   -2.1472 H         1 <0>         0.0664
     69 H40        -4.6454   -0.3414   -4.2120 H         1 <0>         0.0520
     70 H41        -2.9997   -0.4321   -3.5399 H         1 <0>         0.0545
     71 H42        -4.1312   -1.7865   -3.3090 H         1 <0>         0.0540
     72 H43        -6.3572    0.0074   -0.9248 H         1 <0>         0.0534
     73 H44        -6.6061   -0.0847   -2.6849 H         1 <0>         0.0533
     74 H45        -6.0919   -1.5299   -1.7819 H         1 <0>         0.0542
     75 H46        -0.9350   -2.3661   -0.7598 H         1 <0>         0.3700
@<TRIPOS>BOND
     1    1    2 1
     2    1   37 1
     3    1   38 1
     4    1   39 1
     5    2    3 1
     6    2    4 1
     7    2   29 1
     8    4    5 1
     9    4   10 1
    10    4    6 1
    11    6    7 1
    12    6   40 1
    13    6   41 1
    14    7    8 1
    15    7   42 1
    16    7   43 1
    17    8    9 1
    18    8   15 1
    19    8   10 1
    20   10   11 1
    21   10   28 1
    22   11   12 1
    23   11   44 1
    24   11   45 1
    25   12   13 1
    26   12   46 1
    27   12   47 1
    28   13   14 1
    29   13   20 1
    30   13   15 1
    31   15   16 1
    32   15   17 1
    33   17   18 1
    34   17   48 1
    35   17   49 1
    36   18   19 2
    37   18   50 1
    38   19   25 1
    39   19   20 1
    40   20   21 1
    41   20   27 1
    42   21   22 1
    43   21   51 1
    44   21   52 1
    45   22   23 1
    46   22   53 1
    47   22   54 1
    48   23   24 1
    49   23   25 1
    50   23   26 1
    51   25   55 1
    52   25   56 1
    53   26   57 1
    54   27   58 1
    55   27   59 1
    56   27   60 1
    57   28   61 1
    58   28   62 1
    59   28   63 1
    60   29   30 1
    61   29   31 1
    62   29   36 1
    63   31   32 1
    64   31   64 1
    65   31   65 1
    66   32   33 1
    67   32   66 1
    68   32   67 1
    69   33   34 1
    70   33   35 1
    71   33   68 1
    72   34   69 1
    73   34   70 1
    74   34   71 1
    75   35   72 1
    76   35   73 1
    77   35   74 1
    78   36   75 1
@<TRIPOS>MOLECULE
ZINC40379749
   41    44     0     0     0
SMALL
USER_CHARGES

@<TRIPOS>ATOM
      1 C1          0.0926    0.8228    1.0450 C.ar      1 <0>        -0.1691
      2 C2          1.0412    1.5614    0.4125 C.ar      1 <0>         0.0001
      3 C3          2.3310    1.0294    0.2346 C.ar      1 <0>        -0.1907
      4 C4          2.6185   -0.3198    0.7414 C.ar      1 <0>         0.1322
      5 C5          1.5855   -1.0310    1.3893 C.ar      1 <0>        -0.1786
      6 C6          0.3628   -0.4589    1.5273 C.ar      1 <0>        -0.0037
      7 C7          1.8386   -2.4173    1.9233 C.3       1 <0>         0.5148
      8 F1          0.6710   -2.9088    2.5169 F         1 <0>        -0.1791
      9 F2          2.2179   -3.2597    0.8727 F         1 <0>        -0.1749
     10 F3          2.8620   -2.3703    2.8760 F         1 <0>        -0.1746
     11 N1          3.8813   -0.5800    0.4511 N.2       1 <0>        -0.2869
     12 N2          4.4384    0.5170   -0.2151 N.pl3     1 <0>        -0.3017
     13 C8          3.5129    1.4896   -0.3496 C.2       1 <0>         0.1688
     14 C9          3.7132    2.8007   -0.9966 C.ar      1 <0>        -0.0528
     15 C10         2.8751    3.2033   -2.0395 C.ar      1 <0>        -0.0503
     16 C11         3.0672    4.4294   -2.6403 C.ar      1 <0>        -0.1486
     17 C12         4.0894    5.2618   -2.2118 C.ar      1 <0>         0.1160
     18 C13         4.9242    4.8676   -1.1779 C.ar      1 <0>        -0.1517
     19 C14         4.7379    3.6466   -0.5650 C.ar      1 <0>        -0.0679
     20 F4          4.2730    6.4618   -2.8045 F         1 <0>        -0.1324
     21 C15         5.8203    0.5978   -0.6946 C.3       1 <0>         0.1560
     22 C16         5.9329   -0.1045   -2.0233 C.ar      1 <0>        -0.1276
     23 C17         6.0542   -1.4808   -2.0691 C.ar      1 <0>        -0.0413
     24 C18         6.1575   -2.1259   -3.2867 C.ar      1 <0>        -0.1503
     25 C19         6.1394   -1.3937   -4.4621 C.ar      1 <0>         0.1317
     26 C20         6.0175   -0.0157   -4.4162 C.ar      1 <0>        -0.1512
     27 C21         5.9089    0.6281   -3.1966 C.ar      1 <0>         0.0089
     28 Cl1         5.7499    2.3558   -3.1381 Cl        1 <0>        -0.0396
     29 F5          6.2413   -2.0239   -5.6527 F         1 <0>        -0.1261
     30 H1         -0.8943    1.2395    1.1820 H         1 <0>         0.1379
     31 H2          0.8063    2.5506    0.0483 H         1 <0>         0.1330
     32 H3         -0.4222   -1.0098    2.0239 H         1 <0>         0.1442
     33 H4          2.0788    2.5553   -2.3747 H         1 <0>         0.1402
     34 H5          2.4200    4.7418   -3.4465 H         1 <0>         0.1448
     35 H6          5.7192    5.5202   -0.8486 H         1 <0>         0.1440
     36 H7          5.3857    3.3428    0.2439 H         1 <0>         0.1362
     37 H8          6.1039    1.6437   -0.8113 H         1 <0>         0.1184
     38 H9          6.4836    0.1198    0.0263 H         1 <0>         0.1217
     39 H10         6.0686   -2.0521   -1.1527 H         1 <0>         0.1501
     40 H11         6.2526   -3.2012   -3.3218 H         1 <0>         0.1488
     41 H12         6.0037    0.5563   -5.3322 H         1 <0>         0.1513
@<TRIPOS>BOND
     1    1    6 ar
     2    1    2 ar
     3    1   30 1
     4    2    3 ar
     5    2   31 1
     6    3   13 2
     7    3    4 ar
     8    4    5 ar
     9    4   11 2
    10    5    6 ar
    11    5    7 1
    12    6   32 1
    13    7    8 1
    14    7    9 1
    15    7   10 1
    16   11   12 1
    17   12   13 1
    18   12   21 1
    19   13   14 1
    20   14   19 ar
    21   14   15 ar
    22   15   16 ar
    23   15   33 1
    24   16   17 ar
    25   16   34 1
    26   17   18 ar
    27   17   20 1
    28   18   19 ar
    29   18   35 1
    30   19   36 1
    31   21   22 1
    32   21   37 1
    33   21   38 1
    34   22   27 ar
    35   22   23 ar
    36   23   24 ar
    37   23   39 1
    38   24   25 ar
    39   24   40 1
    40   25   26 ar
    41   25   29 1
    42   26   27 ar
    43   26   41 1
    44   27   28 1
@<TRIPOS>MOLECULE
ZINC34946707
   50    51     0     0     0
SMALL
USER_CHARGES

@<TRIPOS>ATOM
      1 C1          0.3857    1.2650    0.2091 C.3       1 <0>        -0.1534
      2 C2          0.2594   -0.2569    0.1149 C.3       1 <0>        -0.1226
      3 C3         -1.2199   -0.6473    0.1215 C.3       1 <0>        -0.1399
      4 C4         -1.3462   -2.1692    0.0273 C.3       1 <0>         0.1179
      5 N1         -2.7627   -2.5430    0.0336 N.pl3     1 <0>        -0.6143
      6 C5         -3.4978   -2.6493   -1.2292 C.3       1 <0>         0.1608
      7 C6         -3.3885   -4.0566   -1.7571 C.ar      1 <0>        -0.0956
      8 C7         -2.3448   -4.3995   -2.5964 C.ar      1 <0>        -0.0782
      9 C8         -2.2417   -5.6900   -3.0819 C.ar      1 <0>        -0.0537
     10 C9         -3.1874   -6.6415   -2.7260 C.ar      1 <0>         0.1307
     11 C10        -4.2341   -6.2943   -1.8833 C.ar      1 <0>        -0.0522
     12 C11        -4.3291   -5.0037   -1.3966 C.ar      1 <0>        -0.0783
     13 Cl1        -5.4195   -7.4810   -1.4359 Cl        1 <0>        -0.0377
     14 O1         -3.0888   -7.9110   -3.2022 O.3       1 <0>        -0.4744
     15 Cl2        -0.9311   -6.1196   -4.1362 Cl        1 <0>        -0.0400
     16 C12        -3.4123   -2.7980    1.2434 C.ar      1 <0>         0.2470
     17 C13        -2.7182   -2.6920    2.4421 C.ar      1 <0>        -0.1935
     18 C14        -3.3637   -2.9444    3.6366 C.ar      1 <0>        -0.0236
     19 C15        -4.6993   -3.3027    3.6404 C.ar      1 <0>        -0.2210
     20 C16        -5.3933   -3.4091    2.4490 C.ar      1 <0>        -0.0431
     21 C17        -4.7554   -3.1525    1.2512 C.ar      1 <0>        -0.1968
     22 C18        -5.4001   -3.5783    4.9457 C.3       1 <0>         0.1119
     23 C19        -6.5899   -2.6282    5.0964 C.3       1 <0>         0.4778
     24 F1         -7.5402   -2.9108    4.1094 F         1 <0>        -0.1600
     25 F2         -7.1653   -2.7983    6.3602 F         1 <0>        -0.1596
     26 F3         -6.1519   -1.3068    4.9574 F         1 <0>        -0.1535
     27 C20        -5.8975   -5.0251    4.9620 C.3       1 <0>         0.4328
     28 F4         -4.8097   -5.8939    4.8242 F         1 <0>        -0.1631
     29 F5         -6.5481   -5.2810    6.1738 F         1 <0>        -0.1615
     30 F6         -6.7897   -5.2234    3.9028 F         1 <0>        -0.1618
     31 O2         -4.4888   -3.3758    6.0276 O.3       1 <0>        -0.5019
     32 H1          1.4396    1.5431    0.2044 H         1 <0>         0.0556
     33 H2         -0.1151    1.7245   -0.6430 H         1 <0>         0.0539
     34 H3         -0.0774    1.6115    1.1330 H         1 <0>         0.0546
     35 H4          0.7226   -0.6034   -0.8090 H         1 <0>         0.0627
     36 H5          0.7603   -0.7165    0.9670 H         1 <0>         0.0630
     37 H6         -1.6830   -0.3008    1.0453 H         1 <0>         0.0685
     38 H7         -1.7207   -0.1877   -0.7306 H         1 <0>         0.0659
     39 H8         -0.8831   -2.5157   -0.8966 H         1 <0>         0.0774
     40 H9         -0.8453   -2.6287    0.8794 H         1 <0>         0.0799
     41 H10        -4.5466   -2.4048   -1.0607 H         1 <0>         0.0948
     42 H11        -3.0750   -1.9550   -1.9553 H         1 <0>         0.0959
     43 H12        -1.6094   -3.6586   -2.8733 H         1 <0>         0.1426
     44 H13        -5.1409   -4.7341   -0.7373 H         1 <0>         0.1448
     45 H14        -2.5707   -8.5030   -2.6398 H         1 <0>         0.3977
     46 H15        -1.6749   -2.4129    2.4398 H         1 <0>         0.1333
     47 H16        -2.8247   -2.8622    4.5688 H         1 <0>         0.1332
     48 H17        -6.4363   -3.6891    2.4554 H         1 <0>         0.1399
     49 H18        -5.2991   -3.2314    0.3214 H         1 <0>         0.1311
     50 H19        -3.7085   -3.9461    5.9967 H         1 <0>         0.4062
@<TRIPOS>BOND
     1    1    2 1
     2    1   32 1
     3    1   33 1
     4    1   34 1
     5    2    3 1
     6    2   35 1
     7    2   36 1
     8    3    4 1
     9    3   37 1
    10    3   38 1
    11    4    5 1
    12    4   39 1
    13    4   40 1
    14    5    6 1
    15    5   16 1
    16    6    7 1
    17    6   41 1
    18    6   42 1
    19    7   12 ar
    20    7    8 ar
    21    8    9 ar
    22    8   43 1
    23    9   10 ar
    24    9   15 1
    25   10   11 ar
    26   10   14 1
    27   11   12 ar
    28   11   13 1
    29   12   44 1
    30   14   45 1
    31   16   21 ar
    32   16   17 ar
    33   17   18 ar
    34   17   46 1
    35   18   19 ar
    36   18   47 1
    37   19   20 ar
    38   19   22 1
    39   20   21 ar
    40   20   48 1
    41   21   49 1
    42   22   23 1
    43   22   27 1
    44   22   31 1
    45   23   24 1
    46   23   25 1
    47   23   26 1
    48   27   28 1
    49   27   29 1
    50   27   30 1
    51   31   50 1
@<TRIPOS>MOLECULE
ZINC02072446
   50    52     0     0     0
SMALL
USER_CHARGES
2-(4-dibenzylaminophenyl)-1,1,1,3,3,3-hexafluoro-propan-2-ol
@<TRIPOS>ATOM
      1 C1          5.6019   -2.0699    3.2371 C.ar      1 <0>        -0.1147
      2 C2          4.4420   -2.6367    2.7427 C.ar      1 <0>        -0.1201
      3 C3          3.7984   -2.0630    1.6622 C.ar      1 <0>        -0.1069
      4 C4          4.3142   -0.9219    1.0766 C.ar      1 <0>        -0.1107
      5 C5          5.4737   -0.3548    1.5713 C.ar      1 <0>        -0.1028
      6 C6          6.1176   -0.9288    2.6515 C.ar      1 <0>        -0.1187
      7 C7          3.6125   -0.2964   -0.1013 C.3       1 <0>         0.1587
      8 N1          4.1586   -0.8475   -1.3440 N.pl3     1 <0>        -0.6061
      9 C8          3.6191   -2.0946   -1.8916 C.3       1 <0>         0.1584
     10 C9          2.4338   -1.7863   -2.7697 C.ar      1 <0>        -0.1098
     11 C10         1.1738   -1.6683   -2.2135 C.ar      1 <0>        -0.1064
     12 C11         0.0873   -1.3803   -3.0182 C.ar      1 <0>        -0.1201
     13 C12         0.2591   -1.2212   -4.3806 C.ar      1 <0>        -0.1149
     14 C13         1.5183   -1.3449   -4.9375 C.ar      1 <0>        -0.1184
     15 C14         2.6056   -1.6272   -4.1320 C.ar      1 <0>        -0.1033
     16 C15         5.1937   -0.1839   -2.0067 C.ar      1 <0>         0.2520
     17 C16         5.7025    1.0018   -1.4919 C.ar      1 <0>        -0.1992
     18 C17         6.7292    1.6528   -2.1471 C.ar      1 <0>        -0.0233
     19 C18         7.2436    1.1312   -3.3200 C.ar      1 <0>        -0.2238
     20 C19         6.7358   -0.0461   -3.8381 C.ar      1 <0>        -0.0430
     21 C20         5.7127   -0.7050   -3.1851 C.ar      1 <0>        -0.1936
     22 C21         8.3603    1.8472   -4.0351 C.3       1 <0>         0.1128
     23 C22         9.5712    0.9188   -4.1485 C.3       1 <0>         0.4776
     24 F1          9.2525   -0.1644   -4.9744 F         1 <0>        -0.1602
     25 F2         10.6486    1.6225   -4.6973 F         1 <0>        -0.1600
     26 F3          9.9196    0.4495   -2.8774 F         1 <0>        -0.1536
     27 C23         7.8937    2.2501   -5.4354 C.3       1 <0>         0.4330
     28 F4          6.7865    3.0990   -5.3317 F         1 <0>        -0.1631
     29 F5          8.9304    2.9148   -6.0991 F         1 <0>        -0.1619
     30 F6          7.5374    1.1049   -6.1557 F         1 <0>        -0.1621
     31 O1          8.7242    3.0170   -3.2993 O.3       1 <0>        -0.5023
     32 H1          6.1075   -2.5211    4.0780 H         1 <0>         0.1222
     33 H2          4.0393   -3.5284    3.1999 H         1 <0>         0.1225
     34 H3          2.8925   -2.5060    1.2757 H         1 <0>         0.1191
     35 H4          5.8768    0.5365    1.1137 H         1 <0>         0.1217
     36 H5          7.0237   -0.4859    3.0378 H         1 <0>         0.1229
     37 H6          2.5457   -0.5130   -0.0457 H         1 <0>         0.0855
     38 H7          3.7655    0.7827   -0.0843 H         1 <0>         0.0890
     39 H8          4.3875   -2.5950   -2.4809 H         1 <0>         0.0885
     40 H9          3.3067   -2.7450   -1.0746 H         1 <0>         0.0864
     41 H10         1.0388   -1.7969   -1.1497 H         1 <0>         0.1187
     42 H11        -0.8964   -1.2833   -2.5830 H         1 <0>         0.1224
     43 H12        -0.5903   -0.9999   -5.0098 H         1 <0>         0.1222
     44 H13         1.6525   -1.2205   -6.0019 H         1 <0>         0.1230
     45 H14         3.5894   -1.7238   -4.5671 H         1 <0>         0.1214
     46 H15         5.2983    1.4120   -0.5783 H         1 <0>         0.1320
     47 H16         7.1281    2.5725   -1.7453 H         1 <0>         0.1327
     48 H17         7.1400   -0.4509   -4.7541 H         1 <0>         0.1389
     49 H18         5.3168   -1.6247   -3.5900 H         1 <0>         0.1315
     50 H19         8.0033    3.6518   -3.1882 H         1 <0>         0.4062
@<TRIPOS>BOND
     1    1    6 ar
     2    1    2 ar
     3    1   32 1
     4    2    3 ar
     5    2   33 1
     6    3    4 ar
     7    3   34 1
     8    4    5 ar
     9    4    7 1
    10    5    6 ar
    11    5   35 1
    12    6   36 1
    13    7    8 1
    14    7   37 1
    15    7   38 1
    16    8    9 1
    17    8   16 1
    18    9   10 1
    19    9   39 1
    20    9   40 1
    21   10   15 ar
    22   10   11 ar
    23   11   12 ar
    24   11   41 1
    25   12   13 ar
    26   12   42 1
    27   13   14 ar
    28   13   43 1
    29   14   15 ar
    30   14   44 1
    31   15   45 1
    32   16   21 ar
    33   16   17 ar
    34   17   18 ar
    35   17   46 1
    36   18   19 ar
    37   18   47 1
    38   19   20 ar
    39   19   22 1
    40   20   21 ar
    41   20   48 1
    42   21   49 1
    43   22   23 1
    44   22   27 1
    45   22   31 1
    46   23   24 1
    47   23   25 1
    48   23   26 1
    49   27   28 1
    50   27   29 1
    51   27   30 1
    52   31   50 1
@<TRIPOS>MOLECULE
ZINC24780352
   71    74     0     0     0
SMALL
USER_CHARGES
2-[3-[3-[[2-chloro-3-(trifluoromethyl)phenyl]methyl-(2,2-diphenylethyl)amino]propoxy]phenyl]acetic acid
@<TRIPOS>ATOM
      1 C1         -1.8849   -8.5621    2.0779 C.ar      1 <0>        -0.1241
      2 C2         -2.8758   -7.8587    2.7370 C.ar      1 <0>        -0.1175
      3 C3         -3.0188   -6.5007    2.5224 C.ar      1 <0>        -0.1109
      4 C4         -2.1712   -5.8460    1.6483 C.ar      1 <0>        -0.0675
      5 C5         -1.1840   -6.5505    0.9848 C.ar      1 <0>        -0.1144
      6 C6         -1.0377   -7.9076    1.2035 C.ar      1 <0>        -0.1188
      7 C7         -2.3274   -4.3656    1.4140 C.3       1 <0>        -0.0043
      8 C8         -2.3804   -4.0901   -0.0901 C.3       1 <0>         0.0638
      9 N1         -2.7378   -2.6836   -0.3180 N.3       1 <0>        -0.5204
     10 C9         -1.5726   -1.8080   -0.1352 C.3       1 <0>         0.0426
     11 C10        -2.0224   -0.3461   -0.1715 C.3       1 <0>        -0.1165
     12 C11        -0.8088    0.5659    0.0189 C.3       1 <0>         0.0641
     13 O1         -1.2290    1.9313   -0.0149 O.3       1 <0>        -0.3156
     14 C12        -0.2657    2.8773    0.1404 C.ar      1 <0>         0.1273
     15 C13         1.0561    2.4990    0.3274 C.ar      1 <0>        -0.2257
     16 C14         2.0340    3.4625    0.4798 C.ar      1 <0>        -0.0830
     17 C15         1.6951    4.8030    0.4565 C.ar      1 <0>        -0.1497
     18 C16         0.3781    5.1824    0.2761 C.ar      1 <0>         0.0088
     19 C17        -0.6031    4.2225    0.1179 C.ar      1 <0>        -0.1441
     20 C18         0.0122    6.6441    0.2523 C.3       1 <0>        -0.1340
     21 C19        -0.3098    7.1041    1.6507 C.2       1 <0>         0.4665
     22 O2         -0.2485    6.3250    2.5722 O.co2     1 <0>        -0.6290
     23 O3         -0.6648    8.3795    1.8727 O.co2     1 <0>        -0.7722
     24 C20        -3.3305   -2.5001   -1.6496 C.3       1 <0>         0.0814
     25 C21        -4.7103   -3.1055   -1.6730 C.ar      1 <0>        -0.0705
     26 C22        -4.9296   -4.3011   -2.3315 C.ar      1 <0>        -0.0729
     27 C23        -6.1952   -4.8562   -2.3535 C.ar      1 <0>        -0.1182
     28 C24        -7.2426   -4.2162   -1.7171 C.ar      1 <0>        -0.0625
     29 C25        -7.0245   -3.0212   -1.0582 C.ar      1 <0>        -0.1811
     30 C26        -5.7566   -2.4679   -1.0309 C.ar      1 <0>         0.0292
     31 Cl1        -5.4803   -0.9704   -0.1973 Cl        1 <0>        -0.0211
     32 C27        -8.1664   -2.3235   -0.3650 C.3       1 <0>         0.5086
     33 F1         -9.3192   -3.1107   -0.4577 F         1 <0>        -0.1773
     34 F2         -7.8436   -2.1261    0.9819 F         1 <0>        -0.1678
     35 F3         -8.3964   -1.0860   -0.9757 F         1 <0>        -0.1696
     36 C28        -1.1556   -3.6351    2.0175 C.ar      1 <0>        -0.0620
     37 C29         0.1079   -3.7908    1.4786 C.ar      1 <0>        -0.1240
     38 C30         1.1820   -3.1169    2.0293 C.ar      1 <0>        -0.1178
     39 C31         0.9943   -2.2953    3.1249 C.ar      1 <0>        -0.1220
     40 C32        -0.2682   -2.1440    3.6673 C.ar      1 <0>        -0.1120
     41 C33        -1.3432   -2.8138    3.1135 C.ar      1 <0>        -0.1104
     42 H1         -1.7730   -9.6231    2.2458 H         1 <0>         0.1191
     43 H2         -3.5379   -8.3702    3.4199 H         1 <0>         0.1207
     44 H3         -3.7929   -5.9512    3.0373 H         1 <0>         0.1216
     45 H4         -0.5247   -6.0399    0.2986 H         1 <0>         0.1195
     46 H5         -0.2638   -8.4572    0.6882 H         1 <0>         0.1196
     47 H6         -3.2533   -4.0211    1.8978 H         1 <0>         0.0972
     48 H7         -1.3956   -4.2950   -0.5353 H         1 <0>         0.0448
     49 H8         -3.1356   -4.7404   -0.5556 H         1 <0>         0.0798
     50 H9         -1.1014   -2.0226    0.8353 H         1 <0>         0.1063
     51 H10        -0.8478   -1.9888   -0.9427 H         1 <0>         0.0349
     52 H11        -2.4936   -0.1315   -1.1420 H         1 <0>         0.0711
     53 H12        -2.7472   -0.1653    0.6360 H         1 <0>         0.0836
     54 H13        -0.3375    0.3512    0.9894 H         1 <0>         0.0602
     55 H14        -0.0840    0.3852   -0.7886 H         1 <0>         0.0553
     56 H15         1.3206    1.4521    0.3501 H         1 <0>         0.1175
     57 H16         3.0636    3.1686    0.6212 H         1 <0>         0.1166
     58 H17         2.4606    5.5548    0.5799 H         1 <0>         0.1172
     59 H18        -1.6318    4.5195   -0.0234 H         1 <0>         0.1231
     60 H19         0.8582    7.2275   -0.1399 H         1 <0>         0.0787
     61 H20        -0.8658    6.7918   -0.3936 H         1 <0>         0.0780
     62 H21        -3.3975   -1.4258   -1.8762 H         1 <0>         0.1013
     63 H22        -2.7001   -2.9951   -2.4030 H         1 <0>         0.0531
     64 H23        -4.1119   -4.8013   -2.8290 H         1 <0>         0.1374
     65 H24        -6.3661   -5.7901   -2.8683 H         1 <0>         0.1398
     66 H25        -8.2313   -4.6505   -1.7347 H         1 <0>         0.1450
     67 H26         0.2552   -4.4360    0.6251 H         1 <0>         0.1174
     68 H27         2.1684   -3.2354    1.6057 H         1 <0>         0.1194
     69 H28         1.8341   -1.7717    3.5574 H         1 <0>         0.1210
     70 H29        -0.4147   -1.5023    4.5236 H         1 <0>         0.1229
     71 H30        -2.3295   -2.6956    3.5372 H         1 <0>         0.1221
@<TRIPOS>BOND
     1    1    6 ar
     2    1    2 ar
     3    1   42 1
     4    2    3 ar
     5    2   43 1
     6    3    4 ar
     7    3   44 1
     8    4    5 ar
     9    4    7 1
    10    5    6 ar
    11    5   45 1
    12    6   46 1
    13    7    8 1
    14    7   36 1
    15    7   47 1
    16    8    9 1
    17    8   48 1
    18    8   49 1
    19    9   10 1
    20    9   24 1
    21   10   11 1
    22   10   50 1
    23   10   51 1
    24   11   12 1
    25   11   52 1
    26   11   53 1
    27   12   13 1
    28   12   54 1
    29   12   55 1
    30   13   14 1
    31   14   19 ar
    32   14   15 ar
    33   15   16 ar
    34   15   56 1
    35   16   17 ar
    36   16   57 1
    37   17   18 ar
    38   17   58 1
    39   18   19 ar
    40   18   20 1
    41   19   59 1
    42   20   21 1
    43   20   60 1
    44   20   61 1
    45   21   22 2
    46   21   23 1
    47   24   25 1
    48   24   62 1
    49   24   63 1
    50   25   30 ar
    51   25   26 ar
    52   26   27 ar
    53   26   64 1
    54   27   28 ar
    55   27   65 1
    56   28   29 ar
    57   28   66 1
    58   29   30 ar
    59   29   32 1
    60   30   31 1
    61   32   33 1
    62   32   34 1
    63   32   35 1
    64   36   41 ar
    65   36   37 ar
    66   37   38 ar
    67   37   67 1
    68   38   39 ar
    69   38   68 1
    70   39   40 ar
    71   39   69 1
    72   40   41 ar
    73   40   70 1
    74   41   71 1
@<TRIPOS>MOLECULE
ZINC01550221
   43    44     0     0     0
SMALL
USER_CHARGES

@<TRIPOS>ATOM
      1 C1         -0.6297    0.7629    2.2158 C.ar      1 <0>        -0.0574
      2 C2          0.4620    1.5482    1.8958 C.ar      1 <0>        -0.1372
      3 C3          1.6604    0.9557    1.5444 C.ar      1 <0>        -0.0160
      4 C4          1.7673   -0.4222    1.5134 C.ar      1 <0>        -0.6780
      5 C5          0.6759   -1.2075    1.8343 C.ar      1 <0>        -0.0229
      6 C6         -0.5230   -0.6149    2.1844 C.ar      1 <0>        -0.1372
      7 S1          3.2945   -1.1775    1.0643 S.o2      1 <0>         2.6737
      8 O1          2.9791   -2.4769    0.5834 O.2       1 <0>        -0.9263
      9 O2          4.0031   -0.2266    0.2813 O.2       1 <0>        -0.9290
     10 N1          4.1655   -1.3868    2.4572 N.pl3     1 <0>        -0.9456
     11 C7          3.9759   -2.5941    3.2651 C.3       1 <0>         0.0784
     12 C8          5.0302   -3.6347    2.8822 C.3       1 <0>         0.4320
     13 F1          6.3070   -3.1129    3.1159 F         1 <0>        -0.1750
     14 F2          4.8492   -4.7876    3.6537 F         1 <0>        -0.1753
     15 F3          4.8982   -3.9552    1.5268 F         1 <0>        -0.1671
     16 C9          5.0807   -0.4124    2.8617 C.ar      1 <0>         0.1498
     17 C10         4.9209    0.2282    4.0838 C.ar      1 <0>        -0.1108
     18 C11         5.8280    1.1909    4.4809 C.ar      1 <0>        -0.0642
     19 C12         6.8942    1.5178    3.6632 C.ar      1 <0>        -0.1536
     20 C13         7.0562    0.8820    2.4459 C.ar      1 <0>        -0.0791
     21 C14         6.1561   -0.0857    2.0452 C.ar      1 <0>        -0.0875
     22 C15         7.8814    2.5695    4.0994 C.3       1 <0>         0.1000
     23 C16         9.2743    1.9464    4.2114 C.3       1 <0>         0.4796
     24 F4          9.7115    1.5508    2.9427 F         1 <0>        -0.1570
     25 F5         10.1650    2.8872    4.7393 F         1 <0>        -0.1557
     26 F6          9.2199    0.8313    5.0545 F         1 <0>        -0.1518
     27 C17         7.9100    3.7006    3.0695 C.3       1 <0>         0.4350
     28 F7          6.6364    4.2704    2.9671 F         1 <0>        -0.1614
     29 F8          8.8265    4.6769    3.4744 F         1 <0>        -0.1572
     30 F9          8.2933    3.1887    1.8252 F         1 <0>        -0.1584
     31 O3          7.4899    3.0924    5.3704 O.3       1 <0>        -0.4973
     32 H1         -1.5647    1.2259    2.4948 H         1 <0>         0.1347
     33 H2          0.3785    2.6247    1.9200 H         1 <0>         0.1364
     34 H3          2.5131    1.5692    1.2936 H         1 <0>         0.1407
     35 H4          0.7593   -2.2840    1.8098 H         1 <0>         0.1413
     36 H5         -1.3758   -1.2285    2.4348 H         1 <0>         0.1369
     37 H6          4.0787   -2.3444    4.3212 H         1 <0>         0.1355
     38 H7          2.9811   -3.0007    3.0830 H         1 <0>         0.1352
     39 H8          4.0880   -0.0260    4.7226 H         1 <0>         0.1426
     40 H9          5.7043    1.6894    5.4310 H         1 <0>         0.1450
     41 H10         7.8900    1.1396    1.8096 H         1 <0>         0.1518
     42 H11         6.2858   -0.5851    1.0964 H         1 <0>         0.1444
     43 H12         6.6147    3.5036    5.3738 H         1 <0>         0.4080
@<TRIPOS>BOND
     1    1    6 ar
     2    1    2 ar
     3    1   32 1
     4    2    3 ar
     5    2   33 1
     6    3    4 ar
     7    3   34 1
     8    4    5 ar
     9    4    7 1
    10    5    6 ar
    11    5   35 1
    12    6   36 1
    13    7    8 2
    14    7    9 2
    15    7   10 1
    16   10   11 1
    17   10   16 1
    18   11   12 1
    19   11   37 1
    20   11   38 1
    21   12   13 1
    22   12   14 1
    23   12   15 1
    24   16   21 ar
    25   16   17 ar
    26   17   18 ar
    27   17   39 1
    28   18   19 ar
    29   18   40 1
    30   19   20 ar
    31   19   22 1
    32   20   21 ar
    33   20   41 1
    34   21   42 1
    35   22   23 1
    36   22   27 1
    37   22   31 1
    38   23   24 1
    39   23   25 1
    40   23   26 1
    41   27   28 1
    42   27   29 1
    43   27   30 1
    44   31   43 1
@<TRIPOS>MOLECULE
ZINC01550221
   42    43     0     0     0
SMALL
USER_CHARGES

@<TRIPOS>ATOM
      1 C1         -0.6209    0.7744    2.1519 C.ar      1 <0>        -0.0628
      2 C2          0.4765    1.5530    1.8350 C.ar      1 <0>        -0.1374
      3 C3          1.6764    0.9532    1.5015 C.ar      1 <0>        -0.0107
      4 C4          1.7790   -0.4252    1.4853 C.ar      1 <0>        -0.6752
      5 C5          0.6819   -1.2038    1.8030 C.ar      1 <0>        -0.0254
      6 C6         -0.5184   -0.6040    2.1352 C.ar      1 <0>        -0.1422
      7 S1          3.3082   -1.1898    1.0590 S.o2      1 <0>         2.6753
      8 O1          2.9933   -2.4930    0.5879 O.2       1 <0>        -0.9404
      9 O2          4.0277   -0.2491    0.2738 O.2       1 <0>        -0.9284
     10 N1          4.1645   -1.3881    2.4625 N.pl3     1 <0>        -0.9347
     11 C7          3.9617   -2.5859    3.2813 C.3       1 <0>         0.0812
     12 C8          5.0151   -3.6351    2.9198 C.3       1 <0>         0.4306
     13 F1          6.2918   -3.1162    3.1605 F         1 <0>        -0.1696
     14 F2          4.8215   -4.7789    3.7017 F         1 <0>        -0.1820
     15 F3          4.8951   -3.9693    1.5666 F         1 <0>        -0.1711
     16 C9          5.0800   -0.4133    2.8657 C.ar      1 <0>         0.1037
     17 C10         4.9095    0.2427    4.0782 C.ar      1 <0>        -0.1270
     18 C11         5.8168    1.2057    4.4740 C.ar      1 <0>        -0.0497
     19 C12         6.8939    1.5174    3.6646 C.ar      1 <0>        -0.0863
     20 C13         7.0666    0.8662    2.4570 C.ar      1 <0>        -0.1086
     21 C14         6.1662   -0.1018    2.0577 C.ar      1 <0>        -0.1002
     22 C15         7.8814    2.5695    4.0994 C.3       1 <0>         0.1648
     23 C16         9.2743    1.9464    4.2114 C.3       1 <0>         0.4170
     24 F4          9.7115    1.5508    2.9427 F         1 <0>        -0.2030
     25 F5         10.1650    2.8872    4.7393 F         1 <0>        -0.1827
     26 F6          9.2199    0.8313    5.0545 F         1 <0>        -0.1838
     27 C17         7.9096    3.6996    3.0684 C.3       1 <0>         0.4172
     28 F7          6.6360    4.2694    2.9660 F         1 <0>        -0.1828
     29 F8          8.8264    4.6763    3.4720 F         1 <0>        -0.1853
     30 F9          8.2923    3.1865    1.8244 F         1 <0>        -0.2014
     31 O3          7.4905    3.0936    5.3701 O.3       1 <0>        -0.7784
     32 H1         -1.5572    1.2431    2.4168 H         1 <0>         0.1311
     33 H2          0.3963    2.6300    1.8477 H         1 <0>         0.1354
     34 H3          2.5336    1.5615    1.2532 H         1 <0>         0.1439
     35 H4          0.7620   -2.2808    1.7900 H         1 <0>         0.1388
     36 H5         -1.3757   -1.2123    2.3830 H         1 <0>         0.1327
     37 H6          4.0552   -2.3255    4.3356 H         1 <0>         0.1333
     38 H7          2.9670   -2.9902    3.0937 H         1 <0>         0.1265
     39 H8          4.0682    0.0003    4.7104 H         1 <0>         0.1237
     40 H9          5.6849    1.7162    5.4166 H         1 <0>         0.1480
     41 H10         7.9088    1.1121    1.8272 H         1 <0>         0.1408
     42 H11         6.3041   -0.6132    1.1165 H         1 <0>         0.1251
@<TRIPOS>BOND
     1    1    6 ar
     2    1    2 ar
     3    1   32 1
     4    2    3 ar
     5    2   33 1
     6    3    4 ar
     7    3   34 1
     8    4    5 ar
     9    4    7 1
    10    5    6 ar
    11    5   35 1
    12    6   36 1
    13    7    8 2
    14    7    9 2
    15    7   10 1
    16   10   11 1
    17   10   16 1
    18   11   12 1
    19   11   37 1
    20   11   38 1
    21   12   13 1
    22   12   14 1
    23   12   15 1
    24   16   21 ar
    25   16   17 ar
    26   17   18 ar
    27   17   39 1
    28   18   19 ar
    29   18   40 1
    30   19   20 ar
    31   19   22 1
    32   20   21 ar
    33   20   41 1
    34   21   42 1
    35   22   23 1
    36   22   27 1
    37   22   31 1
    38   23   24 1
    39   23   25 1
    40   23   26 1
    41   27   28 1
    42   27   29 1
    43   27   30 1
