@<TRIPOS>MOLECULE
ZINC49070819
   53    55     0     0     0
SMALL
USER_CHARGES

@<TRIPOS>ATOM
      1 C1         -0.0187    1.5258    0.0104 C.3       1 <0>        -0.1607
      2 C2          0.0021   -0.0041    0.0020 C.3       1 <0>        -0.1144
      3 C3          0.7421   -0.5109    1.2415 C.3       1 <0>        -0.0618
      4 C4          2.1775    0.0187    1.2307 C.3       1 <0>        -0.1556
      5 C5          0.0259   -0.0175    2.5003 C.3       1 <0>        -0.1534
      6 C6          0.7628   -2.0407    1.2331 C.3       1 <0>        -0.0574
      7 C7          1.4917   -2.5400    2.4540 C.2       1 <0>         0.0768
      8 C8          2.8227   -2.6959    2.5865 C.2       1 <0>        -0.0017
      9 N1          3.0652   -3.1605    3.8211 N.pl3     1 <0>        -0.4694
     10 C9          1.9350   -3.2985    4.4588 C.cat     1 <0>         0.3253
     11 N2          0.9285   -2.9165    3.6434 N.pl3     1 <0>        -0.5070
     12 H1         -0.0171   -2.9118    3.8596 H         1 <0>         0.4620
     13 C10         1.7793   -3.7962    5.8726 C.3       1 <0>        -0.0731
     14 C11         1.8364   -2.6118    6.8395 C.3       1 <0>        -0.0756
     15 C12         1.6806   -3.1095    8.2534 C.ar      1 <0>        -0.0971
     16 C13         0.4195   -3.2148    8.8118 C.ar      1 <0>        -0.1143
     17 C14         0.2709   -3.6701   10.1062 C.ar      1 <0>        -0.0765
     18 C15         1.3945   -4.0240   10.8508 C.ar      1 <0>        -0.0321
     19 C16         2.6626   -3.9158   10.2831 C.ar      1 <0>        -0.0983
     20 C17         2.7989   -3.4648    8.9859 C.ar      1 <0>        -0.1125
     21 C18         1.2412   -4.5135   12.2428 C.ar      1 <0>         0.1528
     22 C19         2.3706   -4.8596   12.9817 C.ar      1 <0>        -0.1605
     23 C20         2.2118   -5.3147   14.2791 C.ar      1 <0>        -0.0708
     24 C21         0.9270   -5.4088   14.7955 C.ar      1 <0>        -0.1664
     25 C22        -0.1491   -5.0483   14.0061 C.ar      1 <0>         0.1070
     26 N3          0.0304   -4.6129   12.7755 N.ar      1 <0>        -0.4776
     27 H2          1.0039    1.9031    0.0027 H         1 <0>         0.0599
     28 H3         -0.5459    1.8868   -0.8726 H         1 <0>         0.0609
     29 H4         -0.5289    1.8773    0.9072 H         1 <0>         0.0584
     30 H5         -1.0205   -0.3814    0.0098 H         1 <0>         0.0679
     31 H6          0.5123   -0.3556   -0.8948 H         1 <0>         0.0704
     32 H7          2.1627    1.1086    1.2367 H         1 <0>         0.0716
     33 H8          2.7046   -0.3424    2.1137 H         1 <0>         0.0500
     34 H9          2.6876   -0.3328    0.3339 H         1 <0>         0.0652
     35 H10        -0.9967   -0.3948    2.5081 H         1 <0>         0.0610
     36 H11         0.5531   -0.3786    3.3834 H         1 <0>         0.0428
     37 H12         0.0111    1.0724    2.5063 H         1 <0>         0.0743
     38 H13        -0.2598   -2.4180    1.2409 H         1 <0>         0.0982
     39 H14         1.2730   -2.3923    0.3363 H         1 <0>         0.1149
     40 H15         3.5649   -2.4839    1.8311 H         1 <0>         0.2239
     41 H16         0.8200   -4.3034    5.9757 H         1 <0>         0.1251
     42 H17         2.5852   -4.4928    6.1035 H         1 <0>         0.1256
     43 H18         2.7956   -2.1046    6.7365 H         1 <0>         0.0859
     44 H19         1.0304   -1.9152    6.6087 H         1 <0>         0.0861
     45 H20        -0.4505   -2.9400    8.2339 H         1 <0>         0.1264
     46 H21        -0.7142   -3.7516   10.5413 H         1 <0>         0.1401
     47 H22         3.5367   -4.1887   10.8557 H         1 <0>         0.1317
     48 H23         3.7808   -3.3851    8.5433 H         1 <0>         0.1271
     49 H24         3.3560   -4.7744   12.5481 H         1 <0>         0.1373
     50 H25         3.0684   -5.5908   14.8761 H         1 <0>         0.1404
     51 H26         0.7694   -5.7607   15.8044 H         1 <0>         0.1410
     52 H27        -1.1502   -5.1204   14.4049 H         1 <0>         0.1623
     53 H28         3.9423   -3.3625    4.1829 H         1 <0>         0.4641
@<TRIPOS>BOND
     1    1    2 1
     2    1   27 1
     3    1   28 1
     4    1   29 1
     5    2    3 1
     6    2   30 1
     7    2   31 1
     8    3    4 1
     9    3    5 1
    10    3    6 1
    11    4   32 1
    12    4   33 1
    13    4   34 1
    14    5   35 1
    15    5   36 1
    16    5   37 1
    17    6    7 1
    18    6   38 1
    19    6   39 1
    20    7   11 1
    21    7    8 2
    22    8    9 1
    23    8   40 1
    24    9   10 2
    25    9   53 1
    26   10   11 1
    27   10   13 1
    28   11   12 1
    29   13   14 1
    30   13   41 1
    31   13   42 1
    32   14   15 1
    33   14   43 1
    34   14   44 1
    35   15   20 ar
    36   15   16 ar
    37   16   17 ar
    38   16   45 1
    39   17   18 ar
    40   17   46 1
    41   18   19 ar
    42   18   21 1
    43   19   20 ar
    44   19   47 1
    45   20   48 1
    46   21   26 ar
    47   21   22 ar
    48   22   23 ar
    49   22   49 1
    50   23   24 ar
    51   23   50 1
    52   24   25 ar
    53   24   51 1
    54   25   26 ar
    55   25   52 1
@<TRIPOS>MOLECULE
ZINC38140940
   91    92     0     0     0
SMALL
USER_CHARGES

@<TRIPOS>ATOM
      1 C1         -3.4926    0.2382   -1.0651 C.3       1 <0>        -0.1434
      2 C2         -2.8767   -1.1570   -0.9427 C.3       1 <0>        -0.1255
      3 C3         -3.7291   -2.1608   -1.7217 C.3       1 <0>        -0.1446
      4 C4         -1.4793   -1.1405   -1.5066 C.2       1 <0>         0.4017
      5 O1         -1.3029   -0.8966   -2.6760 O.2       1 <0>        -0.4160
      6 C5         -0.2969   -1.4295   -0.6071 C.3       1 <0>        -0.1970
      7 C6         -0.3406   -2.8608   -0.1136 C.2       1 <0>         0.4045
      8 C7          0.6118   -3.3117    0.9694 C.3       1 <0>        -0.1820
      9 C8          0.7511   -2.2330    2.0180 C.2       1 <0>         0.3729
     10 O2          0.8223   -2.5365    3.1920 O.2       1 <0>        -0.3842
     11 C9          0.8015   -0.7767    1.6096 C.3       1 <0>        -0.1351
     12 C10        -0.3366   -0.5417    0.6281 C.2       1 <0>         0.3941
     13 O3         -1.2010    0.2793    0.8144 O.2       1 <0>        -0.3961
     14 C11         2.1101   -0.4944    0.8689 C.3       1 <0>        -0.0965
     15 C12         2.2273   -1.2938   -0.4196 C.3       1 <0>        -0.0907
     16 H1          2.3985   -2.3459   -0.1887 H         1 <0>         0.0851
     17 C13         1.0192   -1.1582   -1.3361 C.3       1 <0>        -0.0185
     18 C14         0.9865    0.2605   -1.9237 C.3       1 <0>        -0.1661
     19 C15         1.1638   -2.1522   -2.4994 C.3       1 <0>        -0.1181
     20 C16         1.3715   -3.5621   -1.9427 C.3       1 <0>        -0.1441
     21 C17         1.6631   -4.5117   -3.0759 C.2       1 <0>        -0.1571
     22 C18         2.7739   -5.2060   -3.0792 C.2       1 <0>        -0.1322
     23 C19         3.7639   -5.0493   -1.9538 C.3       1 <0>        -0.1235
     24 C20         3.0619   -6.1615   -4.2085 C.3       1 <0>        -0.1181
     25 C21         3.4690   -0.7966   -1.1847 C.3       1 <0>        -0.0927
     26 C22         4.7109   -1.1364   -0.4017 C.2       1 <0>        -0.1724
     27 C23         5.5708   -0.1963   -0.0969 C.2       1 <0>        -0.1231
     28 C24         5.3882    1.1971   -0.6411 C.3       1 <0>        -0.1245
     29 C25         6.7427   -0.5082    0.7978 C.3       1 <0>        -0.1204
     30 C26         0.6582    0.1383    2.8346 C.3       1 <0>        -0.0634
     31 C27        -0.6611   -0.1311    3.5112 C.2       1 <0>        -0.1834
     32 C28        -0.6959   -0.4124    4.7902 C.2       1 <0>        -0.1042
     33 C29         0.5884   -0.5549    5.5656 C.3       1 <0>        -0.1215
     34 C30        -2.0203   -0.5935    5.4861 C.3       1 <0>        -0.1198
     35 C31         0.0387   -4.5743    1.6348 C.3       1 <0>        -0.0768
     36 C32         1.0315   -5.1103    2.6338 C.2       1 <0>        -0.1730
     37 C33         0.6698   -5.3028    3.8781 C.2       1 <0>        -0.0969
     38 C34        -0.7454   -5.0099    4.3053 C.3       1 <0>        -0.1196
     39 C35         1.6688   -5.8172    4.8823 C.3       1 <0>        -0.1173
     40 O4         -1.1404   -3.6442   -0.5830 O.2       1 <0>        -0.4146
     41 H2         -2.9513    0.9320   -0.4219 H         1 <0>         0.0724
     42 H3         -3.4267    0.5750   -2.0996 H         1 <0>         0.0620
     43 H4         -4.5387    0.2015   -0.7609 H         1 <0>         0.0674
     44 H5         -2.8415   -1.4479    0.1071 H         1 <0>         0.0805
     45 H6         -3.7643   -1.8700   -2.7716 H         1 <0>         0.0647
     46 H7         -3.2903   -3.1548   -1.6346 H         1 <0>         0.0681
     47 H8         -4.7398   -2.1728   -1.3139 H         1 <0>         0.0673
     48 H9          2.1797    0.5752    0.6489 H         1 <0>         0.0883
     49 H10         2.9519   -0.7514    1.5257 H         1 <0>         0.0913
     50 H11         0.8878    0.9860   -1.1162 H         1 <0>         0.0534
     51 H12         1.9106    0.4487   -2.4703 H         1 <0>         0.0752
     52 H13         0.1380    0.3536   -2.6015 H         1 <0>         0.0864
     53 H14         0.2606   -2.1317   -3.1092 H         1 <0>         0.0901
     54 H15         2.0217   -1.8731   -3.1112 H         1 <0>         0.0804
     55 H16         2.2105   -3.5581   -1.2470 H         1 <0>         0.0781
     56 H17         0.4694   -3.8837   -1.4222 H         1 <0>         0.0887
     57 H18         0.9563   -4.6198   -3.8853 H         1 <0>         0.1079
     58 H19         3.4697   -5.6864   -1.1198 H         1 <0>         0.0654
     59 H20         4.7561   -5.3388   -2.2998 H         1 <0>         0.0618
     60 H21         3.7818   -4.0093   -1.6279 H         1 <0>         0.0669
     61 H22         3.6007   -5.6385   -4.9985 H         1 <0>         0.0661
     62 H23         3.6699   -6.9875   -3.8394 H         1 <0>         0.0620
     63 H24         2.1234   -6.5497   -4.6042 H         1 <0>         0.0615
     64 H25         3.5115   -1.2793   -2.1610 H         1 <0>         0.0809
     65 H26         3.4064    0.2837   -1.3159 H         1 <0>         0.0823
     66 H27         4.8921   -2.1550   -0.0919 H         1 <0>         0.1079
     67 H28         4.7546    1.7711    0.0351 H         1 <0>         0.0669
     68 H29         6.3598    1.6832   -0.7288 H         1 <0>         0.0627
     69 H30         4.9180    1.1450   -1.6230 H         1 <0>         0.0668
     70 H31         7.5879   -0.8312    0.1901 H         1 <0>         0.0659
     71 H32         7.0188    0.3843    1.3592 H         1 <0>         0.0638
     72 H33         6.4688   -1.3034    1.4912 H         1 <0>         0.0620
     73 H34         1.4716   -0.0593    3.5328 H         1 <0>         0.0927
     74 H35         0.6974    1.1801    2.5166 H         1 <0>         0.0854
     75 H36        -1.5779   -0.0923    2.9417 H         1 <0>         0.1117
     76 H37         0.9272    0.4286    5.8913 H         1 <0>         0.0615
     77 H38         0.4185   -1.1875    6.4368 H         1 <0>         0.0587
     78 H39         1.3483   -1.0088    4.9296 H         1 <0>         0.0769
     79 H40        -2.3181   -1.6408    5.4338 H         1 <0>         0.0652
     80 H41        -1.9262   -0.2943    6.5300 H         1 <0>         0.0632
     81 H42        -2.7747    0.0235    4.9979 H         1 <0>         0.0611
     82 H43        -0.8919   -4.3256    2.1450 H         1 <0>         0.0825
     83 H44        -0.1550   -5.3301    0.8737 H         1 <0>         0.0913
     84 H45         2.0412   -5.3358    2.3240 H         1 <0>         0.1072
     85 H46        -1.3606   -5.8975    4.1578 H         1 <0>         0.0635
     86 H47        -0.7565   -4.7311    5.3590 H         1 <0>         0.0608
     87 H48        -1.1427   -4.1891    3.7081 H         1 <0>         0.0657
     88 H49         2.1782   -4.9757    5.3518 H         1 <0>         0.0682
     89 H50         1.1510   -6.3996    5.6444 H         1 <0>         0.0608
     90 H51         2.3998   -6.4484    4.3769 H         1 <0>         0.0602
     91 H52         1.5807   -3.5651    0.5480 H         1 <0>         0.1527
@<TRIPOS>BOND
     1    1    2 1
     2    1   41 1
     3    1   42 1
     4    1   43 1
     5    2    3 1
     6    2    4 1
     7    2   44 1
     8    3   45 1
     9    3   46 1
    10    3   47 1
    11    4    5 2
    12    4    6 1
    13    6   12 1
    14    6   17 1
    15    6    7 1
    16    7    8 1
    17    7   40 2
    18    8    9 1
    19    8   35 1
    20    8   91 1
    21    9   10 2
    22    9   11 1
    23   11   12 1
    24   11   14 1
    25   11   30 1
    26   12   13 2
    27   14   15 1
    28   14   48 1
    29   14   49 1
    30   15   16 1
    31   15   17 1
    32   15   25 1
    33   17   18 1
    34   17   19 1
    35   18   50 1
    36   18   51 1
    37   18   52 1
    38   19   20 1
    39   19   53 1
    40   19   54 1
    41   20   21 1
    42   20   55 1
    43   20   56 1
    44   21   22 2
    45   21   57 1
    46   22   23 1
    47   22   24 1
    48   23   58 1
    49   23   59 1
    50   23   60 1
    51   24   61 1
    52   24   62 1
    53   24   63 1
    54   25   26 1
    55   25   64 1
    56   25   65 1
    57   26   27 2
    58   26   66 1
    59   27   28 1
    60   27   29 1
    61   28   67 1
    62   28   68 1
    63   28   69 1
    64   29   70 1
    65   29   71 1
    66   29   72 1
    67   30   31 1
    68   30   73 1
    69   30   74 1
    70   31   32 2
    71   31   75 1
    72   32   33 1
    73   32   34 1
    74   33   76 1
    75   33   77 1
    76   33   78 1
    77   34   79 1
    78   34   80 1
    79   34   81 1
    80   35   36 1
    81   35   82 1
    82   35   83 1
    83   36   37 2
    84   36   84 1
    85   37   38 1
    86   37   39 1
    87   38   85 1
    88   38   86 1
    89   38   87 1
    90   39   88 1
    91   39   89 1
    92   39   90 1
@<TRIPOS>MOLECULE
ZINC04475232
   51    54     0     0     0
SMALL
USER_CHARGES

@<TRIPOS>ATOM
      1 C1          0.1266    1.4493   -0.0038 C.3       1 <0>        -0.1352
      2 C2          0.0875   -0.0572   -0.0003 C.2       1 <0>        -0.0540
      3 C3         -1.0796   -0.6912   -0.0005 C.2       1 <0>        -0.2202
      4 C4         -2.4342   -0.0965   -0.0188 C.2       1 <0>         0.3900
      5 O1         -2.7031    1.0704   -0.2053 O.2       1 <0>        -0.4430
      6 C5         -3.4386   -1.2188    0.2584 C.3       1 <0>        -0.1690
      7 C6         -2.5457   -2.2885    0.9098 C.3       1 <0>        -0.0677
      8 H1         -2.2811   -1.9406    1.9299 H         1 <0>         0.0796
      9 C7         -1.2987   -2.1921    0.0027 C.3       1 <0>        -0.0145
     10 C8         -0.1792   -3.0135    0.5805 C.3       1 <0>        -0.1022
     11 C9         -0.6632   -4.3944    1.0290 C.3       1 <0>        -0.1119
     12 C10        -2.0729   -4.7310    0.5752 C.3       1 <0>        -0.0661
     13 H2         -2.0936   -4.8527   -0.5133 H         1 <0>         0.0832
     14 C11        -3.0947   -3.6799    0.9903 C.3       1 <0>        -0.0679
     15 H3         -3.3359   -3.8761    2.0558 H         1 <0>         0.0675
     16 C12        -4.4026   -3.8468    0.2244 C.3       1 <0>        -0.1101
     17 C13        -4.7228   -5.3326    0.0451 C.3       1 <0>        -0.0967
     18 C14        -4.0187   -6.1197    1.1264 C.2       1 <0>        -0.0155
     19 C15        -4.7138   -6.8171    2.0158 C.2       1 <0>        -0.2401
     20 C16        -4.0460   -7.5731    3.0723 C.2       1 <0>         0.3875
     21 O2         -4.7043   -8.2473    3.8390 O.2       1 <0>        -0.4656
     22 C17        -2.5488   -7.5196    3.2195 C.3       1 <0>        -0.1692
     23 C18        -2.0072   -6.2352    2.5879 C.3       1 <0>        -0.1060
     24 C19        -2.5092   -6.0886    1.1582 C.3       1 <0>        -0.0356
     25 C20        -1.9540   -7.2105    0.2790 C.3       1 <0>        -0.1403
     26 C21        -1.5881   -2.5953   -1.4442 C.3       1 <0>        -0.1461
     27 H4          1.1634    1.7858   -0.0030 H         1 <0>         0.0662
     28 H5         -0.3762    1.8237   -0.8954 H         1 <0>         0.0786
     29 H6         -0.3789    1.8280    0.8845 H         1 <0>         0.0741
     30 H7          1.0085   -0.6213    0.0025 H         1 <0>         0.1257
     31 H8         -4.1981   -0.8774    0.9655 H         1 <0>         0.0924
     32 H9         -3.9008   -1.5678   -0.6566 H         1 <0>         0.1096
     33 H10         0.6151   -3.1335   -0.1709 H         1 <0>         0.0637
     34 H11         0.2606   -2.4884    1.4407 H         1 <0>         0.0646
     35 H12         0.0326   -5.1531    0.6461 H         1 <0>         0.0663
     36 H13        -0.6153   -4.4386    2.1262 H         1 <0>         0.0669
     37 H14        -5.2081   -3.3733    0.7815 H         1 <0>         0.0707
     38 H15        -4.3134   -3.3878   -0.7568 H         1 <0>         0.0723
     39 H16        -5.7987   -5.4809    0.1298 H         1 <0>         0.0776
     40 H17        -4.3798   -5.6622   -0.9330 H         1 <0>         0.0840
     41 H18        -5.7928   -6.8279    1.9574 H         1 <0>         0.1302
     42 H19        -2.2955   -7.5260    4.2855 H         1 <0>         0.0948
     43 H20        -2.0961   -8.3922    2.7522 H         1 <0>         0.1027
     44 H21        -2.3273   -5.3764    3.1818 H         1 <0>         0.0726
     45 H22        -0.9138   -6.2741    2.5900 H         1 <0>         0.0829
     46 H23        -0.8658   -7.1519    0.2593 H         1 <0>         0.0673
     47 H24        -2.2587   -8.1750    0.6852 H         1 <0>         0.0592
     48 H25        -2.3420   -7.1040   -0.7341 H         1 <0>         0.0615
     49 H26        -0.8000   -2.2125   -2.0927 H         1 <0>         0.0582
     50 H27        -1.6236   -3.6822   -1.5183 H         1 <0>         0.0695
     51 H28        -2.5469   -2.1786   -1.7527 H         1 <0>         0.0576
@<TRIPOS>BOND
     1    1    2 1
     2    1   27 1
     3    1   28 1
     4    1   29 1
     5    2    3 2
     6    2   30 1
     7    3    9 1
     8    3    4 1
     9    4    5 2
    10    4    6 1
    11    6    7 1
    12    6   31 1
    13    6   32 1
    14    7    8 1
    15    7   14 1
    16    7    9 1
    17    9   10 1
    18    9   26 1
    19   10   11 1
    20   10   33 1
    21   10   34 1
    22   11   12 1
    23   11   35 1
    24   11   36 1
    25   12   13 1
    26   12   24 1
    27   12   14 1
    28   14   15 1
    29   14   16 1
    30   16   17 1
    31   16   37 1
    32   16   38 1
    33   17   18 1
    34   17   39 1
    35   17   40 1
    36   18   24 1
    37   18   19 2
    38   19   20 1
    39   19   41 1
    40   20   21 2
    41   20   22 1
    42   22   23 1
    43   22   42 1
    44   22   43 1
    45   23   24 1
    46   23   44 1
    47   23   45 1
    48   24   25 1
    49   25   46 1
    50   25   47 1
    51   25   48 1
    52   26   49 1
    53   26   50 1
    54   26   51 1
@<TRIPOS>MOLECULE
ZINC04475234
   51    54     0     0     0
SMALL
USER_CHARGES

@<TRIPOS>ATOM
      1 C1         -0.0184    1.5028    0.0103 C.3       1 <0>        -0.1353
      2 C2          0.0021   -0.0041    0.0020 C.2       1 <0>        -0.0539
      3 C3         -1.1385   -0.6835    0.0093 C.2       1 <0>        -0.2180
      4 C4         -2.5201   -0.1466    0.0096 C.2       1 <0>         0.3902
      5 O1         -2.8416    1.0081   -0.1703 O.2       1 <0>        -0.4423
      6 C5         -3.4731   -1.3136    0.2977 C.3       1 <0>        -0.1677
      7 C6         -2.5201   -2.3335    0.9395 C.3       1 <0>        -0.0708
      8 H1         -2.2472   -1.9480    1.9512 H         1 <0>         0.0789
      9 C7         -1.3045   -2.1857    0.0028 C.3       1 <0>        -0.0196
     10 C8         -0.1586   -3.0188    0.5126 C.3       1 <0>        -0.1038
     11 C9         -0.6143   -4.4932    0.5645 C.3       1 <0>        -0.1091
     12 C10        -1.8242   -4.6466    1.4643 C.3       1 <0>        -0.0637
     13 H2         -1.4904   -4.2669    2.4567 H         1 <0>         0.0651
     14 C11        -2.9975   -3.7534    1.0802 C.3       1 <0>        -0.0563
     15 H3         -3.6813   -3.7654    1.9734 H         1 <0>         0.0643
     16 C12        -3.8431   -4.2273   -0.0784 C.3       1 <0>        -0.1112
     17 C13        -3.5792   -5.6842   -0.4472 C.3       1 <0>        -0.0916
     18 C14        -3.4005   -6.4537    0.8374 C.2       1 <0>        -0.0155
     19 C15        -4.2433   -7.4203    1.1787 C.2       1 <0>        -0.2416
     20 C16        -4.0933   -8.1386    2.4421 C.2       1 <0>         0.3883
     21 O2         -4.7922   -9.1057    2.6718 O.2       1 <0>        -0.4658
     22 C17        -3.0911   -7.6792    3.4685 C.3       1 <0>        -0.1678
     23 C18        -2.6654   -6.2395    3.1862 C.3       1 <0>        -0.1062
     24 C19        -2.2347   -6.0868    1.7223 C.3       1 <0>        -0.0273
     25 C20        -1.0806   -7.0505    1.4396 C.3       1 <0>        -0.1410
     26 C21        -1.6030   -2.5786   -1.4441 C.3       1 <0>        -0.1454
     27 H4          1.0042    1.8801    0.0026 H         1 <0>         0.0663
     28 H5         -0.5455    1.8639   -0.8728 H         1 <0>         0.0785
     29 H6         -0.5286    1.8543    0.9071 H         1 <0>         0.0738
     30 H7          0.9446   -0.5313   -0.0098 H         1 <0>         0.1258
     31 H8         -4.2363   -1.0050    1.0173 H         1 <0>         0.0916
     32 H9         -3.9337   -1.6870   -0.6070 H         1 <0>         0.1084
     33 H10         0.6993   -2.9298   -0.1571 H         1 <0>         0.0678
     34 H11         0.1282   -2.6935    1.5145 H         1 <0>         0.0660
     35 H12        -0.8231   -4.8621   -0.4313 H         1 <0>         0.0703
     36 H13         0.2379   -5.0489    0.9770 H         1 <0>         0.0669
     37 H14        -4.9021   -4.1735    0.2433 H         1 <0>         0.0574
     38 H15        -3.7661   -3.6025   -0.9501 H         1 <0>         0.0786
     39 H16        -4.4283   -6.0801   -0.9998 H         1 <0>         0.0780
     40 H17        -2.6768   -5.7519   -1.0495 H         1 <0>         0.0842
     41 H18        -5.0513   -7.6824    0.5115 H         1 <0>         0.1307
     42 H19        -3.5597   -7.7222    4.4604 H         1 <0>         0.0954
     43 H20        -2.2292   -8.3432    3.4742 H         1 <0>         0.1038
     44 H21        -3.5008   -5.5648    3.3838 H         1 <0>         0.0713
     45 H22        -1.8293   -5.9700    3.8342 H         1 <0>         0.0796
     46 H23        -0.2379   -6.8080    2.0869 H         1 <0>         0.0669
     47 H24        -1.4052   -8.0729    1.6333 H         1 <0>         0.0586
     48 H25        -0.7765   -6.9572    0.3970 H         1 <0>         0.0644
     49 H26        -0.7619   -2.2973   -2.0778 H         1 <0>         0.0586
     50 H27        -1.7583   -3.6558   -1.5034 H         1 <0>         0.0691
     51 H28        -2.5015   -2.0628   -1.7827 H         1 <0>         0.0550
@<TRIPOS>BOND
     1    1    2 1
     2    1   27 1
     3    1   28 1
     4    1   29 1
     5    2    3 2
     6    2   30 1
     7    3    9 1
     8    3    4 1
     9    4    5 2
    10    4    6 1
    11    6    7 1
    12    6   31 1
    13    6   32 1
    14    7    8 1
    15    7   14 1
    16    7    9 1
    17    9   10 1
    18    9   26 1
    19   10   11 1
    20   10   33 1
    21   10   34 1
    22   11   12 1
    23   11   35 1
    24   11   36 1
    25   12   13 1
    26   12   24 1
    27   12   14 1
    28   14   15 1
    29   14   16 1
    30   16   17 1
    31   16   37 1
    32   16   38 1
    33   17   18 1
    34   17   39 1
    35   17   40 1
    36   18   24 1
    37   18   19 2
    38   19   20 1
    39   19   41 1
    40   20   21 2
    41   20   22 1
    42   22   23 1
    43   22   42 1
    44   22   43 1
    45   23   24 1
    46   23   44 1
    47   23   45 1
    48   24   25 1
    49   25   46 1
    50   25   47 1
    51   25   48 1
    52   26   49 1
    53   26   50 1
    54   26   51 1
@<TRIPOS>MOLECULE
ZINC04475235
   51    54     0     0     0
SMALL
USER_CHARGES

@<TRIPOS>ATOM
      1 C1         -0.0184    1.5028    0.0103 C.3       1 <0>        -0.1334
      2 C2          0.0021   -0.0041    0.0020 C.2       1 <0>        -0.0532
      3 C3         -1.1437   -0.6865    0.0093 C.2       1 <0>        -0.2116
      4 C4         -2.4987   -0.1061    0.0105 C.2       1 <0>         0.3897
      5 O1         -2.7671    1.0739   -0.0795 O.2       1 <0>        -0.4460
      6 C5         -3.4986   -1.2425    0.1495 C.3       1 <0>        -0.1810
      7 C6         -2.6567   -2.4154    0.7318 C.3       1 <0>        -0.0649
      8 H1         -3.0910   -3.3884    0.5115 H         1 <0>         0.1016
      9 C7         -1.3161   -2.1830    0.0029 C.3       1 <0>        -0.0123
     10 C8         -0.1729   -2.9564    0.6004 C.3       1 <0>        -0.1049
     11 C9         -0.0654   -2.8530    2.1109 C.3       1 <0>        -0.1071
     12 C10        -1.3920   -3.0179    2.8397 C.3       1 <0>        -0.0593
     13 H2         -1.2181   -2.5767    3.8629 H         1 <0>         0.0612
     14 C11        -2.4721   -2.1558    2.2224 C.3       1 <0>        -0.0708
     15 H3         -2.1458   -1.0993    2.3272 H         1 <0>         0.0681
     16 C12        -3.7937   -2.2800    2.9746 C.3       1 <0>        -0.1151
     17 C13        -4.2542   -3.7382    2.9711 C.3       1 <0>        -0.0976
     18 C14        -3.1691   -4.5773    3.6190 C.2       1 <0>        -0.0138
     19 C15        -3.5177   -5.3654    4.6323 C.2       1 <0>        -0.2438
     20 C16        -2.5366   -6.2231    5.3004 C.2       1 <0>         0.3875
     21 O2         -2.7964   -6.7853    6.3472 O.2       1 <0>        -0.4613
     22 C17        -1.1945   -6.4062    4.6234 C.3       1 <0>        -0.1670
     23 C18        -0.7465   -5.0605    4.0667 C.3       1 <0>        -0.1085
     24 C19        -1.7654   -4.4686    3.0933 C.3       1 <0>        -0.0175
     25 C20        -1.7000   -5.2988    1.8142 C.3       1 <0>        -0.1490
     26 C21        -1.4835   -2.6375   -1.4545 C.3       1 <0>        -0.1460
     27 H4          1.0042    1.8801    0.0026 H         1 <0>         0.0652
     28 H5         -0.5455    1.8639   -0.8728 H         1 <0>         0.0785
     29 H6         -0.5286    1.8543    0.9071 H         1 <0>         0.0756
     30 H7          0.9446   -0.5313   -0.0098 H         1 <0>         0.1248
     31 H8         -4.2969   -0.9592    0.8383 H         1 <0>         0.0964
     32 H9         -3.9247   -1.5058   -0.8177 H         1 <0>         0.1045
     33 H10        -0.2149   -3.9934    0.2761 H         1 <0>         0.0750
     34 H11         0.7647   -2.5568    0.1697 H         1 <0>         0.0567
     35 H12         0.6477   -3.6062    2.4748 H         1 <0>         0.0684
     36 H13         0.3616   -1.8710    2.3711 H         1 <0>         0.0606
     37 H14        -3.6552   -1.9504    4.0084 H         1 <0>         0.0671
     38 H15        -4.5542   -1.6554    2.5073 H         1 <0>         0.0747
     39 H16        -5.1779   -3.8304    3.5442 H         1 <0>         0.0770
     40 H17        -4.4245   -4.0720    1.9501 H         1 <0>         0.0864
     41 H18        -4.5477   -5.3720    4.9695 H         1 <0>         0.1315
     42 H19        -0.4632   -6.7594    5.3582 H         1 <0>         0.0922
     43 H20        -1.2750   -7.1447    3.8265 H         1 <0>         0.1022
     44 H21        -0.6083   -4.3592    4.8891 H         1 <0>         0.0679
     45 H22         0.2000   -5.1861    3.5424 H         1 <0>         0.0819
     46 H23        -0.6867   -5.2699    1.4136 H         1 <0>         0.0704
     47 H24        -1.9736   -6.3303    2.0362 H         1 <0>         0.0571
     48 H25        -2.3930   -4.8892    1.0793 H         1 <0>         0.0649
     49 H26        -0.5873   -2.3820   -2.0199 H         1 <0>         0.0577
     50 H27        -1.6360   -3.7164   -1.4834 H         1 <0>         0.0626
     51 H28        -2.3458   -2.1367   -1.8945 H         1 <0>         0.0567
@<TRIPOS>BOND
     1    1    2 1
     2    1   27 1
     3    1   28 1
     4    1   29 1
     5    2    3 2
     6    2   30 1
     7    3    9 1
     8    3    4 1
     9    4    5 2
    10    4    6 1
    11    6    7 1
    12    6   31 1
    13    6   32 1
    14    7    8 1
    15    7   14 1
    16    7    9 1
    17    9   10 1
    18    9   26 1
    19   10   11 1
    20   10   33 1
    21   10   34 1
    22   11   12 1
    23   11   35 1
    24   11   36 1
    25   12   13 1
    26   12   24 1
    27   12   14 1
    28   14   15 1
    29   14   16 1
    30   16   17 1
    31   16   37 1
    32   16   38 1
    33   17   18 1
    34   17   39 1
    35   17   40 1
    36   18   24 1
    37   18   19 2
    38   19   20 1
    39   19   41 1
    40   20   21 2
    41   20   22 1
    42   22   23 1
    43   22   42 1
    44   22   43 1
    45   23   24 1
    46   23   44 1
    47   23   45 1
    48   24   25 1
    49   25   46 1
    50   25   47 1
    51   25   48 1
    52   26   49 1
    53   26   50 1
    54   26   51 1
@<TRIPOS>MOLECULE
ZINC13783217
   51    54     0     0     0
SMALL
USER_CHARGES

@<TRIPOS>ATOM
      1 C1         -0.0246    1.5012   -0.0652 C.3       1 <0>        -0.1446
      2 C2          0.0021   -0.0041    0.0020 C.2       1 <0>        -0.0544
      3 C3         -1.1391   -0.6875    0.1100 C.2       1 <0>        -0.2100
      4 C4         -1.2761   -2.1485    0.2273 C.2       1 <0>         0.3914
      5 O1         -0.3675   -2.9523    0.2498 O.2       1 <0>        -0.4493
      6 C5         -2.7592   -2.4702    0.3160 C.3       1 <0>        -0.1794
      7 C6         -3.4400   -1.2429   -0.3645 C.3       1 <0>        -0.0670
      8 H1         -4.4754   -1.1126   -0.0498 H         1 <0>         0.0980
      9 C7         -2.5321   -0.1077    0.1414 C.3       1 <0>        -0.0144
     10 C8         -2.6648    1.1552   -0.6785 C.3       1 <0>        -0.1298
     11 C9         -2.4155    0.8605   -2.1550 C.3       1 <0>        -0.1221
     12 C10        -3.4580   -0.1552   -2.6463 C.3       1 <0>        -0.0606
     13 H2         -4.4594    0.2515   -2.5057 H         1 <0>         0.0814
     14 C11        -3.3200   -1.4716   -1.8764 C.3       1 <0>        -0.0731
     15 H3         -2.3360   -1.8923   -2.0835 H         1 <0>         0.0671
     16 C12        -4.3674   -2.5138   -2.2603 C.3       1 <0>        -0.1116
     17 C13        -4.7868   -2.4171   -3.7195 C.3       1 <0>        -0.0935
     18 C14        -3.6671   -1.8028   -4.5220 C.2       1 <0>        -0.0198
     19 C15        -3.1040   -2.4721   -5.5226 C.2       1 <0>        -0.2427
     20 C16        -2.0096   -1.8893   -6.2966 C.2       1 <0>         0.3872
     21 O2         -1.5248   -2.5065   -7.2219 O.2       1 <0>        -0.4644
     22 C17        -1.4837   -0.5201   -5.9450 C.3       1 <0>        -0.1698
     23 C18        -1.7207   -0.2654   -4.4524 C.3       1 <0>        -0.1089
     24 C19        -3.1973   -0.3758   -4.1420 C.3       1 <0>        -0.0304
     25 C20        -3.9843    0.6549   -4.9540 C.3       1 <0>        -0.1414
     26 C21        -2.9009    0.2201    1.5896 C.3       1 <0>        -0.1431
     27 H4         -0.5743    1.8934    0.7904 H         1 <0>         0.0784
     28 H5          0.9959    1.8838   -0.0478 H         1 <0>         0.0662
     29 H6         -0.5146    1.8151   -0.9868 H         1 <0>         0.0910
     30 H7          0.9447   -0.5298   -0.0372 H         1 <0>         0.1230
     31 H8         -2.9864   -3.3862   -0.2293 H         1 <0>         0.0949
     32 H9         -3.0720   -2.5543    1.3567 H         1 <0>         0.1045
     33 H10        -3.6693    1.5603   -0.5564 H         1 <0>         0.0681
     34 H11        -1.9384    1.8893   -0.3299 H         1 <0>         0.0880
     35 H12        -2.5045    1.7818   -2.7308 H         1 <0>         0.0693
     36 H13        -1.4152    0.4460   -2.2803 H         1 <0>         0.0722
     37 H14        -3.9585   -3.5074   -2.0769 H         1 <0>         0.0661
     38 H15        -5.2472   -2.3763   -1.6316 H         1 <0>         0.0714
     39 H16        -5.0038   -3.4144   -4.1023 H         1 <0>         0.0769
     40 H17        -5.6773   -1.7940   -3.8015 H         1 <0>         0.0844
     41 H18        -3.4602   -3.4618   -5.7673 H         1 <0>         0.1302
     42 H19        -0.4157   -0.4735   -6.1582 H         1 <0>         0.0953
     43 H20        -2.0080    0.2341   -6.5318 H         1 <0>         0.1037
     44 H21        -1.1571   -0.9898   -3.8645 H         1 <0>         0.0718
     45 H22        -1.3973    0.7441   -4.1985 H         1 <0>         0.0837
     46 H23        -3.6652    1.6588   -4.6737 H         1 <0>         0.0673
     47 H24        -3.7992    0.4984   -6.0167 H         1 <0>         0.0599
     48 H25        -5.0491    0.5419   -4.7501 H         1 <0>         0.0619
     49 H26        -2.2071    0.9636    1.9819 H         1 <0>         0.0585
     50 H27        -3.9159    0.6158    1.6254 H         1 <0>         0.0628
     51 H28        -2.8425   -0.6855    2.1934 H         1 <0>         0.0559
@<TRIPOS>BOND
     1    1    2 1
     2    1   27 1
     3    1   28 1
     4    1   29 1
     5    2    3 2
     6    2   30 1
     7    3    9 1
     8    3    4 1
     9    4    5 2
    10    4    6 1
    11    6    7 1
    12    6   31 1
    13    6   32 1
    14    7    8 1
    15    7   14 1
    16    7    9 1
    17    9   10 1
    18    9   26 1
    19   10   11 1
    20   10   33 1
    21   10   34 1
    22   11   12 1
    23   11   35 1
    24   11   36 1
    25   12   13 1
    26   12   24 1
    27   12   14 1
    28   14   15 1
    29   14   16 1
    30   16   17 1
    31   16   37 1
    32   16   38 1
    33   17   18 1
    34   17   39 1
    35   17   40 1
    36   18   24 1
    37   18   19 2
    38   19   20 1
    39   19   41 1
    40   20   21 2
    41   20   22 1
    42   22   23 1
    43   22   42 1
    44   22   43 1
    45   23   24 1
    46   23   44 1
    47   23   45 1
    48   24   25 1
    49   25   46 1
    50   25   47 1
    51   25   48 1
    52   26   49 1
    53   26   50 1
    54   26   51 1
@<TRIPOS>MOLECULE
ZINC19132424
   51    54     0     0     0
SMALL
USER_CHARGES

@<TRIPOS>ATOM
      1 C1         -0.6973    1.6727    0.0117 C.3       1 <0>        -0.1349
      2 C2         -0.4090    0.1941   -0.0301 C.2       1 <0>        -0.0497
      3 C3         -1.4126   -0.6834    0.0318 C.2       1 <0>        -0.2144
      4 C4         -2.8557   -0.3722    0.1362 C.2       1 <0>         0.3900
      5 O1         -3.3524    0.7347    0.1227 O.2       1 <0>        -0.4439
      6 C5         -3.6080   -1.6977    0.2632 C.3       1 <0>        -0.1661
      7 C6         -2.5362   -2.6363    0.8312 C.3       1 <0>        -0.0773
      8 H1         -2.3869   -2.4553    1.8956 H         1 <0>         0.0851
      9 C7         -1.3003   -2.1771    0.0028 C.3       1 <0>        -0.0262
     10 C8         -0.0773   -2.7994    0.6443 C.3       1 <0>        -0.1011
     11 C9         -0.2013   -4.3216    0.4683 C.3       1 <0>        -0.1224
     12 C10        -1.4951   -4.8584    1.0727 C.3       1 <0>        -0.0696
     13 H2         -1.4592   -4.7327    2.1549 H         1 <0>         0.0710
     14 C11        -2.7377   -4.1160    0.5601 C.3       1 <0>        -0.0767
     15 H3         -2.8379   -4.2889   -0.5114 H         1 <0>         0.0891
     16 C12        -3.9811   -4.6127    1.3039 C.3       1 <0>        -0.1134
     17 C13        -4.2108   -6.0881    0.9697 C.3       1 <0>        -0.0978
     18 C14        -2.9495   -6.8664    1.2970 C.2       1 <0>        -0.0223
     19 C15        -3.0786   -7.9832    2.0130 C.2       1 <0>        -0.2411
     20 C16        -1.8951   -8.7838    2.3446 C.2       1 <0>         0.3878
     21 O2         -1.8907   -9.5620    3.2755 O.2       1 <0>        -0.4575
     22 C17        -0.6776   -8.5877    1.4623 C.3       1 <0>        -0.1674
     23 C18        -0.4285   -7.0839    1.3553 C.3       1 <0>        -0.1071
     24 C19        -1.6193   -6.3524    0.7491 C.3       1 <0>        -0.0237
     25 C20        -1.5884   -6.5091   -0.7725 C.3       1 <0>        -0.1480
     26 C21        -1.4281   -2.6754   -1.4382 C.3       1 <0>        -0.1484
     27 H4          0.2391    2.2273   -0.0497 H         1 <0>         0.0660
     28 H5         -1.3352    1.9425   -0.8299 H         1 <0>         0.0781
     29 H6         -1.2042    1.9178    0.9450 H         1 <0>         0.0765
     30 H7          0.6097   -0.1554   -0.1101 H         1 <0>         0.1253
     31 H8         -4.4451   -1.6027    0.9548 H         1 <0>         0.0926
     32 H9         -3.9483   -2.0445   -0.7125 H         1 <0>         0.1056
     33 H10         0.8252   -2.4403    0.1497 H         1 <0>         0.0670
     34 H11        -0.0459   -2.5491    1.7047 H         1 <0>         0.0670
     35 H12        -0.1810   -4.5590   -0.5953 H         1 <0>         0.0765
     36 H13         0.6455   -4.8055    0.9550 H         1 <0>         0.0677
     37 H14        -3.8316   -4.5016    2.3779 H         1 <0>         0.0673
     38 H15        -4.8482   -4.0297    0.9937 H         1 <0>         0.0732
     39 H16        -5.0411   -6.4719    1.5624 H         1 <0>         0.0776
     40 H17        -4.4386   -6.1911   -0.0913 H         1 <0>         0.0846
     41 H18        -4.0553   -8.2990    2.3489 H         1 <0>         0.1339
     42 H19         0.1877   -9.0756    1.9111 H         1 <0>         0.0924
     43 H20        -0.8665   -9.0034    0.4726 H         1 <0>         0.0998
     44 H21        -0.2033   -6.6895    2.3461 H         1 <0>         0.0716
     45 H22         0.4270   -6.9109    0.7024 H         1 <0>         0.0807
     46 H23        -0.6479   -6.1165   -1.1592 H         1 <0>         0.0711
     47 H24        -1.6753   -7.5644   -1.0310 H         1 <0>         0.0593
     48 H25        -2.4200   -5.9579   -1.2115 H         1 <0>         0.0647
     49 H26        -0.5748   -2.3270   -2.0201 H         1 <0>         0.0577
     50 H27        -1.4520   -3.7651   -1.4450 H         1 <0>         0.0744
     51 H28        -2.3485   -2.2890   -1.8759 H         1 <0>         0.0550
@<TRIPOS>BOND
     1    1    2 1
     2    1   27 1
     3    1   28 1
     4    1   29 1
     5    2    3 2
     6    2   30 1
     7    3    9 1
     8    3    4 1
     9    4    5 2
    10    4    6 1
    11    6    7 1
    12    6   31 1
    13    6   32 1
    14    7    8 1
    15    7   14 1
    16    7    9 1
    17    9   10 1
    18    9   26 1
    19   10   11 1
    20   10   33 1
    21   10   34 1
    22   11   12 1
    23   11   35 1
    24   11   36 1
    25   12   13 1
    26   12   24 1
    27   12   14 1
    28   14   15 1
    29   14   16 1
    30   16   17 1
    31   16   37 1
    32   16   38 1
    33   17   18 1
    34   17   39 1
    35   17   40 1
    36   18   24 1
    37   18   19 2
    38   19   20 1
    39   19   41 1
    40   20   21 2
    41   20   22 1
    42   22   23 1
    43   22   42 1
    44   22   43 1
    45   23   24 1
    46   23   44 1
    47   23   45 1
    48   24   25 1
    49   25   46 1
    50   25   47 1
    51   25   48 1
    52   26   49 1
    53   26   50 1
    54   26   51 1
@<TRIPOS>MOLECULE
ZINC19132424
   51    54     0     0     0
SMALL
USER_CHARGES

@<TRIPOS>ATOM
      1 C1          0.2301    1.0229    0.1380 C.3       1 <0>        -0.1408
      2 C2         -0.0191   -0.4599    0.0369 C.2       1 <0>        -0.0517
      3 C3         -1.2693   -0.9247   -0.0107 C.2       1 <0>        -0.2128
      4 C4         -1.6839   -2.3424   -0.1033 C.2       1 <0>         0.3918
      5 O1         -0.9470   -3.3062   -0.0914 O.2       1 <0>        -0.4480
      6 C5         -3.2088   -2.3732   -0.2159 C.3       1 <0>        -0.1655
      7 C6         -3.5290   -0.9869   -0.7886 C.3       1 <0>        -0.0776
      8 H1         -3.3086   -0.9477   -1.8554 H         1 <0>         0.0851
      9 C7         -2.5288   -0.1143    0.0256 C.3       1 <0>        -0.0248
     10 C8         -2.4996    1.2538   -0.6238 C.3       1 <0>        -0.1131
     11 C9         -3.8954    1.8708   -0.4382 C.3       1 <0>        -0.1230
     12 C10        -4.9892    0.9855   -1.0275 C.3       1 <0>        -0.0696
     13 H2         -4.8717    0.9513   -2.1106 H         1 <0>         0.0707
     14 C11        -4.9234   -0.4578   -0.5074 C.3       1 <0>        -0.0764
     15 H3         -5.1131   -0.4575    0.5660 H         1 <0>         0.0891
     16 C12        -5.9593   -1.3185   -1.2367 C.3       1 <0>        -0.1135
     17 C13        -7.3628   -0.8159   -0.8921 C.3       1 <0>        -0.0978
     18 C14        -7.4496    0.6619   -1.2269 C.2       1 <0>        -0.0222
     19 C15        -8.4997    1.0764   -1.9354 C.2       1 <0>        -0.2412
     20 C16        -8.6431    2.4965   -2.2736 C.2       1 <0>         0.3878
     21 O2         -9.3340    2.8659   -3.2001 O.2       1 <0>        -0.4575
     22 C17        -7.8826    3.4785   -1.4039 C.3       1 <0>        -0.1675
     23 C18        -6.4407    2.9818   -1.3075 C.3       1 <0>        -0.1069
     24 C19        -6.3589    1.5897   -0.6944 C.3       1 <0>        -0.0237
     25 C20        -6.4677    1.7000    0.8278 C.3       1 <0>        -0.1479
     26 C21        -3.0143    0.0187    1.4704 C.3       1 <0>        -0.1486
     27 H4          1.3036    1.2099    0.1649 H         1 <0>         0.0671
     28 H5         -0.2044    1.5242   -0.7269 H         1 <0>         0.0852
     29 H6         -0.2285    1.4071    1.0491 H         1 <0>         0.0776
     30 H7          0.8139   -1.1465    0.0029 H         1 <0>         0.1231
     31 H8         -3.5304   -3.1583   -0.9002 H         1 <0>         0.0932
     32 H9         -3.6666   -2.5018    0.7649 H         1 <0>         0.1063
     33 H10        -1.7494    1.8791   -0.1397 H         1 <0>         0.0801
     34 H11        -2.2745    1.1564   -1.6859 H         1 <0>         0.0665
     35 H12        -4.0845    2.0077    0.6265 H         1 <0>         0.0762
     36 H13        -3.9221    2.8432   -0.9301 H         1 <0>         0.0674
     37 H14        -5.8005   -1.2461   -2.3127 H         1 <0>         0.0672
     38 H15        -5.8567   -2.3570   -0.9217 H         1 <0>         0.0731
     39 H16        -8.1012   -1.3664   -1.4750 H         1 <0>         0.0775
     40 H17        -7.5519   -0.9613    0.1714 H         1 <0>         0.0846
     41 H18        -9.2457    0.3662   -2.2604 H         1 <0>         0.1339
     42 H19        -7.9037    4.4692   -1.8580 H         1 <0>         0.0923
     43 H20        -8.3287    3.5159   -0.4101 H         1 <0>         0.0998
     44 H21        -5.9959    2.9865   -2.3027 H         1 <0>         0.0715
     45 H22        -5.8750    3.6553   -0.6637 H         1 <0>         0.0807
     46 H23        -5.6711    2.3421    1.2034 H         1 <0>         0.0711
     47 H24        -7.4346    2.1278    1.0929 H         1 <0>         0.0591
     48 H25        -6.3750    0.7087    1.2714 H         1 <0>         0.0647
     49 H26        -2.2962    0.6063    2.0424 H         1 <0>         0.0575
     50 H27        -3.9838    0.5167    1.4836 H         1 <0>         0.0749
     51 H28        -3.1088   -0.9722    1.9146 H         1 <0>         0.0550
@<TRIPOS>BOND
     1    1    2 1
     2    1   27 1
     3    1   28 1
     4    1   29 1
     5    2    3 2
     6    2   30 1
     7    3    9 1
     8    3    4 1
     9    4    5 2
    10    4    6 1
    11    6    7 1
    12    6   31 1
    13    6   32 1
    14    7    8 1
    15    7   14 1
    16    7    9 1
    17    9   10 1
    18    9   26 1
    19   10   11 1
    20   10   33 1
    21   10   34 1
    22   11   12 1
    23   11   35 1
    24   11   36 1
    25   12   13 1
    26   12   24 1
    27   12   14 1
    28   14   15 1
    29   14   16 1
    30   16   17 1
    31   16   37 1
    32   16   38 1
    33   17   18 1
    34   17   39 1
    35   17   40 1
    36   18   24 1
    37   18   19 2
    38   19   20 1
    39   19   41 1
    40   20   21 2
    41   20   22 1
    42   22   23 1
    43   22   42 1
    44   22   43 1
    45   23   24 1
    46   23   44 1
    47   23   45 1
    48   24   25 1
    49   25   46 1
    50   25   47 1
    51   25   48 1
    52   26   49 1
    53   26   50 1
    54   26   51 1
@<TRIPOS>MOLECULE
ZINC40379749
   41    44     0     0     0
SMALL
USER_CHARGES

@<TRIPOS>ATOM
      1 C1          0.0926    0.8228    1.0450 C.ar      1 <0>        -0.1691
      2 C2          1.0412    1.5614    0.4125 C.ar      1 <0>         0.0001
      3 C3          2.3310    1.0294    0.2346 C.ar      1 <0>        -0.1907
      4 C4          2.6185   -0.3198    0.7414 C.ar      1 <0>         0.1322
      5 C5          1.5855   -1.0310    1.3893 C.ar      1 <0>        -0.1786
      6 C6          0.3628   -0.4589    1.5273 C.ar      1 <0>        -0.0037
      7 C7          1.8386   -2.4173    1.9233 C.3       1 <0>         0.5148
      8 F1          0.6710   -2.9088    2.5169 F         1 <0>        -0.1791
      9 F2          2.2179   -3.2597    0.8727 F         1 <0>        -0.1749
     10 F3          2.8620   -2.3703    2.8760 F         1 <0>        -0.1746
     11 N1          3.8813   -0.5800    0.4511 N.2       1 <0>        -0.2869
     12 N2          4.4384    0.5170   -0.2151 N.pl3     1 <0>        -0.3017
     13 C8          3.5129    1.4896   -0.3496 C.2       1 <0>         0.1688
     14 C9          3.7132    2.8007   -0.9966 C.ar      1 <0>        -0.0528
     15 C10         2.8751    3.2033   -2.0395 C.ar      1 <0>        -0.0503
     16 C11         3.0672    4.4294   -2.6403 C.ar      1 <0>        -0.1486
     17 C12         4.0894    5.2618   -2.2118 C.ar      1 <0>         0.1160
     18 C13         4.9242    4.8676   -1.1779 C.ar      1 <0>        -0.1517
     19 C14         4.7379    3.6466   -0.5650 C.ar      1 <0>        -0.0679
     20 F4          4.2730    6.4618   -2.8045 F         1 <0>        -0.1324
     21 C15         5.8203    0.5978   -0.6946 C.3       1 <0>         0.1560
     22 C16         5.9329   -0.1045   -2.0233 C.ar      1 <0>        -0.1276
     23 C17         6.0542   -1.4808   -2.0691 C.ar      1 <0>        -0.0413
     24 C18         6.1575   -2.1259   -3.2867 C.ar      1 <0>        -0.1503
     25 C19         6.1394   -1.3937   -4.4621 C.ar      1 <0>         0.1317
     26 C20         6.0175   -0.0157   -4.4162 C.ar      1 <0>        -0.1512
     27 C21         5.9089    0.6281   -3.1966 C.ar      1 <0>         0.0089
     28 Cl1         5.7499    2.3558   -3.1381 Cl        1 <0>        -0.0396
     29 F5          6.2413   -2.0239   -5.6527 F         1 <0>        -0.1261
     30 H1         -0.8943    1.2395    1.1820 H         1 <0>         0.1379
     31 H2          0.8063    2.5506    0.0483 H         1 <0>         0.1330
     32 H3         -0.4222   -1.0098    2.0239 H         1 <0>         0.1442
     33 H4          2.0788    2.5553   -2.3747 H         1 <0>         0.1402
     34 H5          2.4200    4.7418   -3.4465 H         1 <0>         0.1448
     35 H6          5.7192    5.5202   -0.8486 H         1 <0>         0.1440
     36 H7          5.3857    3.3428    0.2439 H         1 <0>         0.1362
     37 H8          6.1039    1.6437   -0.8113 H         1 <0>         0.1184
     38 H9          6.4836    0.1198    0.0263 H         1 <0>         0.1217
     39 H10         6.0686   -2.0521   -1.1527 H         1 <0>         0.1501
     40 H11         6.2526   -3.2012   -3.3218 H         1 <0>         0.1488
     41 H12         6.0037    0.5563   -5.3322 H         1 <0>         0.1513
@<TRIPOS>BOND
     1    1    6 ar
     2    1    2 ar
     3    1   30 1
     4    2    3 ar
     5    2   31 1
     6    3   13 2
     7    3    4 ar
     8    4    5 ar
     9    4   11 2
    10    5    6 ar
    11    5    7 1
    12    6   32 1
    13    7    8 1
    14    7    9 1
    15    7   10 1
    16   11   12 1
    17   12   13 1
    18   12   21 1
    19   13   14 1
    20   14   19 ar
    21   14   15 ar
    22   15   16 ar
    23   15   33 1
    24   16   17 ar
    25   16   34 1
    26   17   18 ar
    27   17   20 1
    28   18   19 ar
    29   18   35 1
    30   19   36 1
    31   21   22 1
    32   21   37 1
    33   21   38 1
    34   22   27 ar
    35   22   23 ar
    36   23   24 ar
    37   23   39 1
    38   24   25 ar
    39   24   40 1
    40   25   26 ar
    41   25   29 1
    42   26   27 ar
    43   26   41 1
    44   27   28 1
@<TRIPOS>MOLECULE
ZINC01125087
   49    52     0     0     0
SMALL
USER_CHARGES
1-(2-chlorophenyl)-N-[1-[(1S)-1-phenylethyl]benzimidazol-5-yl]methanesulfonamide
@<TRIPOS>ATOM
      1 C1         -1.3197   -0.2601   -0.9639 C.3       1 <0>        -0.1611
      2 C2         -0.4863    0.2063    0.2315 C.3       1 <0>         0.1806
      3 H1          0.5410   -0.1388    0.1150 H         1 <0>         0.1084
      4 C3         -0.5058    1.7116    0.3007 C.ar      1 <0>        -0.1094
      5 C4         -1.7066    2.3815    0.4431 C.ar      1 <0>        -0.1073
      6 C5         -1.7240    3.7621    0.5110 C.ar      1 <0>        -0.1151
      7 C6         -0.5416    4.4732    0.4269 C.ar      1 <0>        -0.1096
      8 C7          0.6588    3.8035    0.2797 C.ar      1 <0>        -0.1158
      9 C8          0.6766    2.4227    0.2161 C.ar      1 <0>        -0.1007
     10 N1         -1.0502   -0.3466    1.4654 N.pl3     1 <0>        -0.4828
     11 C9         -2.3065   -0.1373    1.9423 C.2       1 <0>         0.2672
     12 N2         -2.4732   -0.7798    3.0615 N.2       1 <0>        -0.4908
     13 C10        -1.3338   -1.4465    3.3801 C.ar      1 <0>         0.0515
     14 C11        -0.4058   -1.1831    2.3585 C.ar      1 <0>         0.0600
     15 C12         0.8676   -1.7317    2.4178 C.ar      1 <0>        -0.1002
     16 C13         1.2173   -2.5450    3.4737 C.ar      1 <0>        -0.0830
     17 C14         0.3012   -2.8162    4.4880 C.ar      1 <0>         0.1100
     18 C15        -0.9689   -2.2721    4.4464 C.ar      1 <0>        -0.0593
     19 N3          0.6691   -3.6434    5.5549 N.pl3     1 <0>        -1.0595
     20 S1          1.6707   -3.0680    6.7416 S.o2      1 <0>         2.6026
     21 O1          1.8324   -4.1575    7.6394 O.2       1 <0>        -0.9471
     22 O2          2.7871   -2.5314    6.0451 O.2       1 <0>        -0.9278
     23 C16         0.7322   -1.7358    7.5384 C.3       1 <0>        -0.5911
     24 C17         1.5999   -1.0544    8.5649 C.ar      1 <0>        -0.0849
     25 C18         1.6107   -1.5069    9.8710 C.ar      1 <0>        -0.0947
     26 C19         2.4099   -0.8847   10.8117 C.ar      1 <0>        -0.1123
     27 C20         3.1916    0.1965   10.4490 C.ar      1 <0>        -0.0962
     28 C21         3.1777    0.6530    9.1447 C.ar      1 <0>        -0.1085
     29 C22         2.3816    0.0276    8.2015 C.ar      1 <0>        -0.0223
     30 Cl1         2.3631    0.6008    6.5630 Cl        1 <0>        -0.0494
     31 H2         -0.9002    0.1513   -1.8819 H         1 <0>         0.0833
     32 H3         -1.3056   -1.3488   -1.0139 H         1 <0>         0.0706
     33 H4         -2.3470    0.0850   -0.8473 H         1 <0>         0.0680
     34 H5         -2.6308    1.8261    0.5046 H         1 <0>         0.1214
     35 H6         -2.6617    4.2853    0.6263 H         1 <0>         0.1273
     36 H7         -0.5555    5.5519    0.4765 H         1 <0>         0.1260
     37 H8          1.5826    4.3591    0.2140 H         1 <0>         0.1270
     38 H9          1.6143    1.8995    0.1008 H         1 <0>         0.1248
     39 H10        -3.0565    0.4736    1.4621 H         1 <0>         0.2100
     40 H11         1.5823   -1.5250    1.6348 H         1 <0>         0.1291
     41 H12         2.2073   -2.9746    3.5155 H         1 <0>         0.1447
     42 H13        -1.6761   -2.4846    5.2345 H         1 <0>         0.1376
     43 H14         0.3375   -4.5538    5.5994 H         1 <0>         0.4254
     44 H15         0.4211   -1.0105    6.7865 H         1 <0>         0.1466
     45 H16        -0.1484   -2.1534    8.0266 H         1 <0>         0.1487
     46 H17         0.9971   -2.3488   10.1558 H         1 <0>         0.1410
     47 H18         2.4205   -1.2407   11.8313 H         1 <0>         0.1378
     48 H19         3.8130    0.6845   11.1853 H         1 <0>         0.1387
     49 H20         3.7879    1.4980    8.8617 H         1 <0>         0.1406
@<TRIPOS>BOND
     1    1    2 1
     2    1   31 1
     3    1   32 1
     4    1   33 1
     5    2    3 1
     6    2    4 1
     7    2   10 1
     8    4    9 ar
     9    4    5 ar
    10    5    6 ar
    11    5   34 1
    12    6    7 ar
    13    6   35 1
    14    7    8 ar
    15    7   36 1
    16    8    9 ar
    17    8   37 1
    18    9   38 1
    19   10   14 1
    20   10   11 1
    21   11   12 2
    22   11   39 1
    23   12   13 1
    24   13   18 ar
    25   13   14 ar
    26   14   15 ar
    27   15   16 ar
    28   15   40 1
    29   16   17 ar
    30   16   41 1
    31   17   18 ar
    32   17   19 1
    33   18   42 1
    34   19   20 1
    35   19   43 1
    36   20   21 2
    37   20   22 2
    38   20   23 1
    39   23   24 1
    40   23   44 1
    41   23   45 1
    42   24   29 ar
    43   24   25 ar
    44   25   26 ar
    45   25   46 1
    46   26   27 ar
    47   26   47 1
    48   27   28 ar
    49   27   48 1
    50   28   29 ar
    51   28   49 1
    52   29   30 1
@<TRIPOS>MOLECULE
ZINC01125090
   49    52     0     0     0
SMALL
USER_CHARGES
1-(2-chlorophenyl)-N-[1-[(1R)-1-phenylethyl]benzimidazol-5-yl]methanesulfonamide
@<TRIPOS>ATOM
      1 C1         -2.8345    7.7847    4.6329 C.3       1 <0>        -0.1613
      2 C2         -1.8320    6.6522    4.8639 C.3       1 <0>         0.1815
      3 H1         -2.3282    5.6926    4.7194 H         1 <0>         0.1077
      4 C3         -1.2967    6.7343    6.2702 C.ar      1 <0>        -0.1098
      5 C4         -0.6186    7.8646    6.6868 C.ar      1 <0>        -0.1071
      6 C5         -0.1314    7.9416    7.9782 C.ar      1 <0>        -0.1146
      7 C6         -0.3144    6.8847    8.8501 C.ar      1 <0>        -0.1095
      8 C7         -0.9880    5.7523    8.4319 C.ar      1 <0>        -0.1163
      9 C8         -1.4789    5.6770    7.1419 C.ar      1 <0>        -0.1011
     10 N1         -0.7254    6.7780    3.9121 N.pl3     1 <0>        -0.4833
     11 C9          0.1202    7.8365    3.7941 C.2       1 <0>         0.2662
     12 N2          0.9855    7.6149    2.8479 N.2       1 <0>        -0.4867
     13 C10         0.7543    6.3973    2.2929 C.ar      1 <0>         0.0542
     14 C11        -0.3465    5.8421    2.9670 C.ar      1 <0>         0.0584
     15 C12        -0.8181    4.5862    2.6117 C.ar      1 <0>        -0.1021
     16 C13        -0.2084    3.8857    1.5937 C.ar      1 <0>        -0.0999
     17 C14         0.8871    4.4265    0.9236 C.ar      1 <0>         0.1025
     18 C15         1.3682    5.6764    1.2656 C.ar      1 <0>        -0.0372
     19 N3          1.4999    3.7027   -0.1053 N.pl3     1 <0>        -1.0589
     20 S1          2.9705    2.9850    0.1494 S.o2      1 <0>         2.6000
     21 O1          3.8008    4.0259    0.6459 O.2       1 <0>        -0.9267
     22 O2          3.2757    2.3381   -1.0784 O.2       1 <0>        -0.9459
     23 C16         2.6696    1.7533    1.4467 C.3       1 <0>        -0.5892
     24 C17         3.9144    0.9301    1.6562 C.ar      1 <0>        -0.0855
     25 C18         4.1066   -0.2298    0.9293 C.ar      1 <0>        -0.0902
     26 C19         5.2503   -0.9827    1.1182 C.ar      1 <0>        -0.1122
     27 C20         6.1982   -0.5812    2.0412 C.ar      1 <0>        -0.0961
     28 C21         6.0047    0.5755    2.7723 C.ar      1 <0>        -0.1083
     29 C22         4.8622    1.3321    2.5801 C.ar      1 <0>        -0.0287
     30 Cl1         4.6181    2.7849    3.4986 Cl        1 <0>        -0.0475
     31 H2         -3.2217    7.7253    3.6157 H         1 <0>         0.0705
     32 H3         -3.6579    7.6911    5.3410 H         1 <0>         0.0830
     33 H4         -2.3383    8.7444    4.7774 H         1 <0>         0.0683
     34 H5         -0.4723    8.6888    6.0044 H         1 <0>         0.1218
     35 H6          0.3946    8.8264    8.3050 H         1 <0>         0.1276
     36 H7          0.0685    6.9438    9.8582 H         1 <0>         0.1261
     37 H8         -1.1310    4.9265    9.1132 H         1 <0>         0.1267
     38 H9         -2.0052    4.7923    6.8152 H         1 <0>         0.1243
     39 H10         0.0791    8.7313    4.3976 H         1 <0>         0.2106
     40 H11        -1.6642    4.1599    3.1301 H         1 <0>         0.1284
     41 H12        -0.5793    2.9101    1.3163 H         1 <0>         0.1380
     42 H13         2.2147    6.0941    0.7408 H         1 <0>         0.1449
     43 H14         1.0634    3.6214   -0.9677 H         1 <0>         0.4252
     44 H15         1.8494    1.1015    1.1457 H         1 <0>         0.1478
     45 H16         2.4086    2.2603    2.3756 H         1 <0>         0.1466
     46 H17         3.3646   -0.5461    0.2111 H         1 <0>         0.1403
     47 H18         5.4017   -1.8870    0.5476 H         1 <0>         0.1376
     48 H19         7.0899   -1.1718    2.1912 H         1 <0>         0.1388
     49 H20         6.7449    0.8886    3.4938 H         1 <0>         0.1410
@<TRIPOS>BOND
     1    1    2 1
     2    1   31 1
     3    1   32 1
     4    1   33 1
     5    2    3 1
     6    2    4 1
     7    2   10 1
     8    4    9 ar
     9    4    5 ar
    10    5    6 ar
    11    5   34 1
    12    6    7 ar
    13    6   35 1
    14    7    8 ar
    15    7   36 1
    16    8    9 ar
    17    8   37 1
    18    9   38 1
    19   10   14 1
    20   10   11 1
    21   11   12 2
    22   11   39 1
    23   12   13 1
    24   13   18 ar
    25   13   14 ar
    26   14   15 ar
    27   15   16 ar
    28   15   40 1
    29   16   17 ar
    30   16   41 1
    31   17   18 ar
    32   17   19 1
    33   18   42 1
    34   19   20 1
    35   19   43 1
    36   20   21 2
    37   20   22 2
    38   20   23 1
    39   23   24 1
    40   23   44 1
    41   23   45 1
    42   24   29 ar
    43   24   25 ar
    44   25   26 ar
    45   25   46 1
    46   26   27 ar
    47   26   47 1
    48   27   28 ar
    49   27   48 1
    50   28   29 ar
    51   28   49 1
    52   29   30 1
@<TRIPOS>MOLECULE
ZINC34946707
   50    51     0     0     0
SMALL
USER_CHARGES

@<TRIPOS>ATOM
      1 C1          0.3857    1.2650    0.2091 C.3       1 <0>        -0.1534
      2 C2          0.2594   -0.2569    0.1149 C.3       1 <0>        -0.1226
      3 C3         -1.2199   -0.6473    0.1215 C.3       1 <0>        -0.1399
      4 C4         -1.3462   -2.1692    0.0273 C.3       1 <0>         0.1179
      5 N1         -2.7627   -2.5430    0.0336 N.pl3     1 <0>        -0.6143
      6 C5         -3.4978   -2.6493   -1.2292 C.3       1 <0>         0.1608
      7 C6         -3.3885   -4.0566   -1.7571 C.ar      1 <0>        -0.0956
      8 C7         -2.3448   -4.3995   -2.5964 C.ar      1 <0>        -0.0782
      9 C8         -2.2417   -5.6900   -3.0819 C.ar      1 <0>        -0.0537
     10 C9         -3.1874   -6.6415   -2.7260 C.ar      1 <0>         0.1307
     11 C10        -4.2341   -6.2943   -1.8833 C.ar      1 <0>        -0.0522
     12 C11        -4.3291   -5.0037   -1.3966 C.ar      1 <0>        -0.0783
     13 Cl1        -5.4195   -7.4810   -1.4359 Cl        1 <0>        -0.0377
     14 O1         -3.0888   -7.9110   -3.2022 O.3       1 <0>        -0.4744
     15 Cl2        -0.9311   -6.1196   -4.1362 Cl        1 <0>        -0.0400
     16 C12        -3.4123   -2.7980    1.2434 C.ar      1 <0>         0.2470
     17 C13        -2.7182   -2.6920    2.4421 C.ar      1 <0>        -0.1935
     18 C14        -3.3637   -2.9444    3.6366 C.ar      1 <0>        -0.0236
     19 C15        -4.6993   -3.3027    3.6404 C.ar      1 <0>        -0.2210
     20 C16        -5.3933   -3.4091    2.4490 C.ar      1 <0>        -0.0431
     21 C17        -4.7554   -3.1525    1.2512 C.ar      1 <0>        -0.1968
     22 C18        -5.4001   -3.5783    4.9457 C.3       1 <0>         0.1119
     23 C19        -6.5899   -2.6282    5.0964 C.3       1 <0>         0.4778
     24 F1         -7.5402   -2.9108    4.1094 F         1 <0>        -0.1600
     25 F2         -7.1653   -2.7983    6.3602 F         1 <0>        -0.1596
     26 F3         -6.1519   -1.3068    4.9574 F         1 <0>        -0.1535
     27 C20        -5.8975   -5.0251    4.9620 C.3       1 <0>         0.4328
     28 F4         -4.8097   -5.8939    4.8242 F         1 <0>        -0.1631
     29 F5         -6.5481   -5.2810    6.1738 F         1 <0>        -0.1615
     30 F6         -6.7897   -5.2234    3.9028 F         1 <0>        -0.1618
     31 O2         -4.4888   -3.3758    6.0276 O.3       1 <0>        -0.5019
     32 H1          1.4396    1.5431    0.2044 H         1 <0>         0.0556
     33 H2         -0.1151    1.7245   -0.6430 H         1 <0>         0.0539
     34 H3         -0.0774    1.6115    1.1330 H         1 <0>         0.0546
     35 H4          0.7226   -0.6034   -0.8090 H         1 <0>         0.0627
     36 H5          0.7603   -0.7165    0.9670 H         1 <0>         0.0630
     37 H6         -1.6830   -0.3008    1.0453 H         1 <0>         0.0685
     38 H7         -1.7207   -0.1877   -0.7306 H         1 <0>         0.0659
     39 H8         -0.8831   -2.5157   -0.8966 H         1 <0>         0.0774
     40 H9         -0.8453   -2.6287    0.8794 H         1 <0>         0.0799
     41 H10        -4.5466   -2.4048   -1.0607 H         1 <0>         0.0948
     42 H11        -3.0750   -1.9550   -1.9553 H         1 <0>         0.0959
     43 H12        -1.6094   -3.6586   -2.8733 H         1 <0>         0.1426
     44 H13        -5.1409   -4.7341   -0.7373 H         1 <0>         0.1448
     45 H14        -2.5707   -8.5030   -2.6398 H         1 <0>         0.3977
     46 H15        -1.6749   -2.4129    2.4398 H         1 <0>         0.1333
     47 H16        -2.8247   -2.8622    4.5688 H         1 <0>         0.1332
     48 H17        -6.4363   -3.6891    2.4554 H         1 <0>         0.1399
     49 H18        -5.2991   -3.2314    0.3214 H         1 <0>         0.1311
     50 H19        -3.7085   -3.9461    5.9967 H         1 <0>         0.4062
@<TRIPOS>BOND
     1    1    2 1
     2    1   32 1
     3    1   33 1
     4    1   34 1
     5    2    3 1
     6    2   35 1
     7    2   36 1
     8    3    4 1
     9    3   37 1
    10    3   38 1
    11    4    5 1
    12    4   39 1
    13    4   40 1
    14    5    6 1
    15    5   16 1
    16    6    7 1
    17    6   41 1
    18    6   42 1
    19    7   12 ar
    20    7    8 ar
    21    8    9 ar
    22    8   43 1
    23    9   10 ar
    24    9   15 1
    25   10   11 ar
    26   10   14 1
    27   11   12 ar
    28   11   13 1
    29   12   44 1
    30   14   45 1
    31   16   21 ar
    32   16   17 ar
    33   17   18 ar
    34   17   46 1
    35   18   19 ar
    36   18   47 1
    37   19   20 ar
    38   19   22 1
    39   20   21 ar
    40   20   48 1
    41   21   49 1
    42   22   23 1
    43   22   27 1
    44   22   31 1
    45   23   24 1
    46   23   25 1
    47   23   26 1
    48   27   28 1
    49   27   29 1
    50   27   30 1
    51   31   50 1
@<TRIPOS>MOLECULE
ZINC24780352
   71    74     0     0     0
SMALL
USER_CHARGES
2-[3-[3-[[2-chloro-3-(trifluoromethyl)phenyl]methyl-(2,2-diphenylethyl)amino]propoxy]phenyl]acetic acid
@<TRIPOS>ATOM
      1 C1         -1.8849   -8.5621    2.0779 C.ar      1 <0>        -0.1241
      2 C2         -2.8758   -7.8587    2.7370 C.ar      1 <0>        -0.1175
      3 C3         -3.0188   -6.5007    2.5224 C.ar      1 <0>        -0.1109
      4 C4         -2.1712   -5.8460    1.6483 C.ar      1 <0>        -0.0675
      5 C5         -1.1840   -6.5505    0.9848 C.ar      1 <0>        -0.1144
      6 C6         -1.0377   -7.9076    1.2035 C.ar      1 <0>        -0.1188
      7 C7         -2.3274   -4.3656    1.4140 C.3       1 <0>        -0.0043
      8 C8         -2.3804   -4.0901   -0.0901 C.3       1 <0>         0.0638
      9 N1         -2.7378   -2.6836   -0.3180 N.3       1 <0>        -0.5204
     10 C9         -1.5726   -1.8080   -0.1352 C.3       1 <0>         0.0426
     11 C10        -2.0224   -0.3461   -0.1715 C.3       1 <0>        -0.1165
     12 C11        -0.8088    0.5659    0.0189 C.3       1 <0>         0.0641
     13 O1         -1.2290    1.9313   -0.0149 O.3       1 <0>        -0.3156
     14 C12        -0.2657    2.8773    0.1404 C.ar      1 <0>         0.1273
     15 C13         1.0561    2.4990    0.3274 C.ar      1 <0>        -0.2257
     16 C14         2.0340    3.4625    0.4798 C.ar      1 <0>        -0.0830
     17 C15         1.6951    4.8030    0.4565 C.ar      1 <0>        -0.1497
     18 C16         0.3781    5.1824    0.2761 C.ar      1 <0>         0.0088
     19 C17        -0.6031    4.2225    0.1179 C.ar      1 <0>        -0.1441
     20 C18         0.0122    6.6441    0.2523 C.3       1 <0>        -0.1340
     21 C19        -0.3098    7.1041    1.6507 C.2       1 <0>         0.4665
     22 O2         -0.2485    6.3250    2.5722 O.co2     1 <0>        -0.6290
     23 O3         -0.6648    8.3795    1.8727 O.co2     1 <0>        -0.7722
     24 C20        -3.3305   -2.5001   -1.6496 C.3       1 <0>         0.0814
     25 C21        -4.7103   -3.1055   -1.6730 C.ar      1 <0>        -0.0705
     26 C22        -4.9296   -4.3011   -2.3315 C.ar      1 <0>        -0.0729
     27 C23        -6.1952   -4.8562   -2.3535 C.ar      1 <0>        -0.1182
     28 C24        -7.2426   -4.2162   -1.7171 C.ar      1 <0>        -0.0625
     29 C25        -7.0245   -3.0212   -1.0582 C.ar      1 <0>        -0.1811
     30 C26        -5.7566   -2.4679   -1.0309 C.ar      1 <0>         0.0292
     31 Cl1        -5.4803   -0.9704   -0.1973 Cl        1 <0>        -0.0211
     32 C27        -8.1664   -2.3235   -0.3650 C.3       1 <0>         0.5086
     33 F1         -9.3192   -3.1107   -0.4577 F         1 <0>        -0.1773
     34 F2         -7.8436   -2.1261    0.9819 F         1 <0>        -0.1678
     35 F3         -8.3964   -1.0860   -0.9757 F         1 <0>        -0.1696
     36 C28        -1.1556   -3.6351    2.0175 C.ar      1 <0>        -0.0620
     37 C29         0.1079   -3.7908    1.4786 C.ar      1 <0>        -0.1240
     38 C30         1.1820   -3.1169    2.0293 C.ar      1 <0>        -0.1178
     39 C31         0.9943   -2.2953    3.1249 C.ar      1 <0>        -0.1220
     40 C32        -0.2682   -2.1440    3.6673 C.ar      1 <0>        -0.1120
     41 C33        -1.3432   -2.8138    3.1135 C.ar      1 <0>        -0.1104
     42 H1         -1.7730   -9.6231    2.2458 H         1 <0>         0.1191
     43 H2         -3.5379   -8.3702    3.4199 H         1 <0>         0.1207
     44 H3         -3.7929   -5.9512    3.0373 H         1 <0>         0.1216
     45 H4         -0.5247   -6.0399    0.2986 H         1 <0>         0.1195
     46 H5         -0.2638   -8.4572    0.6882 H         1 <0>         0.1196
     47 H6         -3.2533   -4.0211    1.8978 H         1 <0>         0.0972
     48 H7         -1.3956   -4.2950   -0.5353 H         1 <0>         0.0448
     49 H8         -3.1356   -4.7404   -0.5556 H         1 <0>         0.0798
     50 H9         -1.1014   -2.0226    0.8353 H         1 <0>         0.1063
     51 H10        -0.8478   -1.9888   -0.9427 H         1 <0>         0.0349
     52 H11        -2.4936   -0.1315   -1.1420 H         1 <0>         0.0711
     53 H12        -2.7472   -0.1653    0.6360 H         1 <0>         0.0836
     54 H13        -0.3375    0.3512    0.9894 H         1 <0>         0.0602
     55 H14        -0.0840    0.3852   -0.7886 H         1 <0>         0.0553
     56 H15         1.3206    1.4521    0.3501 H         1 <0>         0.1175
     57 H16         3.0636    3.1686    0.6212 H         1 <0>         0.1166
     58 H17         2.4606    5.5548    0.5799 H         1 <0>         0.1172
     59 H18        -1.6318    4.5195   -0.0234 H         1 <0>         0.1231
     60 H19         0.8582    7.2275   -0.1399 H         1 <0>         0.0787
     61 H20        -0.8658    6.7918   -0.3936 H         1 <0>         0.0780
     62 H21        -3.3975   -1.4258   -1.8762 H         1 <0>         0.1013
     63 H22        -2.7001   -2.9951   -2.4030 H         1 <0>         0.0531
     64 H23        -4.1119   -4.8013   -2.8290 H         1 <0>         0.1374
     65 H24        -6.3661   -5.7901   -2.8683 H         1 <0>         0.1398
     66 H25        -8.2313   -4.6505   -1.7347 H         1 <0>         0.1450
     67 H26         0.2552   -4.4360    0.6251 H         1 <0>         0.1174
     68 H27         2.1684   -3.2354    1.6057 H         1 <0>         0.1194
     69 H28         1.8341   -1.7717    3.5574 H         1 <0>         0.1210
     70 H29        -0.4147   -1.5023    4.5236 H         1 <0>         0.1229
     71 H30        -2.3295   -2.6956    3.5372 H         1 <0>         0.1221
@<TRIPOS>BOND
     1    1    6 ar
     2    1    2 ar
     3    1   42 1
     4    2    3 ar
     5    2   43 1
     6    3    4 ar
     7    3   44 1
     8    4    5 ar
     9    4    7 1
    10    5    6 ar
    11    5   45 1
    12    6   46 1
    13    7    8 1
    14    7   36 1
    15    7   47 1
    16    8    9 1
    17    8   48 1
    18    8   49 1
    19    9   10 1
    20    9   24 1
    21   10   11 1
    22   10   50 1
    23   10   51 1
    24   11   12 1
    25   11   52 1
    26   11   53 1
    27   12   13 1
    28   12   54 1
    29   12   55 1
    30   13   14 1
    31   14   19 ar
    32   14   15 ar
    33   15   16 ar
    34   15   56 1
    35   16   17 ar
    36   16   57 1
    37   17   18 ar
    38   17   58 1
    39   18   19 ar
    40   18   20 1
    41   19   59 1
    42   20   21 1
    43   20   60 1
    44   20   61 1
    45   21   22 2
    46   21   23 1
    47   24   25 1
    48   24   62 1
    49   24   63 1
    50   25   30 ar
    51   25   26 ar
    52   26   27 ar
    53   26   64 1
    54   27   28 ar
    55   27   65 1
    56   28   29 ar
    57   28   66 1
    58   29   30 ar
    59   29   32 1
    60   30   31 1
    61   32   33 1
    62   32   34 1
    63   32   35 1
    64   36   41 ar
    65   36   37 ar
    66   37   38 ar
    67   37   67 1
    68   38   39 ar
    69   38   68 1
    70   39   40 ar
    71   39   69 1
    72   40   41 ar
    73   40   70 1
    74   41   71 1
