@<TRIPOS>MOLECULE
ZINC04352598
   50    53     0     0     0
SMALL
USER_CHARGES

@<TRIPOS>ATOM
      1 C1         -0.0187    1.5258    0.0104 C.3       1 <0>        -0.1502
      2 C2          0.0021   -0.0041    0.0020 C.3       1 <0>        -0.0446
      3 C3         -1.4014   -0.5179    0.2133 C.3       1 <0>        -0.1019
      4 C4         -1.9436    0.1663    1.4815 C.3       1 <0>        -0.1192
      5 C5         -1.0421   -0.0823    2.6851 C.3       1 <0>        -0.0668
      6 H1         -1.0721   -1.1431    2.9340 H         1 <0>         0.0655
      7 C6          0.4155    0.3211    2.4081 C.3       1 <0>        -0.0762
      8 H2          0.4720    1.3888    2.1962 H         1 <0>         0.0869
      9 C7          0.8657   -0.5042    1.1984 C.3       1 <0>        -0.0829
     10 H3          0.7309   -1.5709    1.3775 H         1 <0>         0.0808
     11 C8          2.2464   -0.1831    0.6072 C.3       1 <0>        -0.0917
     12 C9          2.0512   -0.5626   -0.8606 C.2       1 <0>        -0.1691
     13 C10         0.7695   -0.4741   -1.1863 C.2       1 <0>        -0.1532
     14 C11         1.2661   -0.0126    3.6347 C.3       1 <0>        -0.1132
     15 C12         0.7493    0.7742    4.8411 C.3       1 <0>        -0.1186
     16 C13        -0.7080    0.3965    5.1141 C.3       1 <0>        -0.0671
     17 H4         -0.7720   -0.6691    5.3341 H         1 <0>         0.0776
     18 C14        -1.5434    0.7203    3.8868 C.3       1 <0>        -0.0451
     19 C15        -3.0037    0.3613    4.1682 C.3       1 <0>        -0.1063
     20 C16        -3.5040    1.1675    5.3686 C.3       1 <0>        -0.1556
     21 C17        -2.6516    0.8368    6.5955 C.3       1 <0>         0.1071
     22 H5         -3.0080    1.4108    7.4508 H         1 <0>         0.0506
     23 C18        -1.2252    1.1966    6.3117 C.3       1 <0>        -0.1125
     24 O1         -2.7525   -0.5592    6.8833 O.3       1 <0>        -0.5628
     25 C19        -1.4377    2.2156    3.5807 C.3       1 <0>        -0.1540
     26 H6          1.0037    1.9031   -0.0116 H         1 <0>         0.0546
     27 H7         -0.5582    1.8866   -0.8653 H         1 <0>         0.0512
     28 H8         -0.5163    1.8774    0.9142 H         1 <0>         0.0726
     29 H9         -2.0245   -0.2611   -0.6434 H         1 <0>         0.0617
     30 H10        -1.3849   -1.5990    0.3518 H         1 <0>         0.0625
     31 H11        -2.0125    1.2396    1.3046 H         1 <0>         0.0695
     32 H12        -2.9392   -0.2218    1.6968 H         1 <0>         0.0616
     33 H13         2.4774    0.8773    0.7088 H         1 <0>         0.0776
     34 H14         3.0208   -0.7956    1.0690 H         1 <0>         0.0664
     35 H15         2.8419   -0.8594   -1.5338 H         1 <0>         0.1227
     36 H16         0.3498   -0.7051   -2.1543 H         1 <0>         0.1235
     37 H17         1.2012   -1.0807    3.8424 H         1 <0>         0.0601
     38 H18         2.3042    0.2580    3.4418 H         1 <0>         0.0611
     39 H19         1.3555    0.5375    5.7155 H         1 <0>         0.0592
     40 H20         0.8146    1.8421    4.6329 H         1 <0>         0.0633
     41 H21        -3.6108    0.5965    3.2940 H         1 <0>         0.0626
     42 H22        -3.0803   -0.7035    4.3882 H         1 <0>         0.0667
     43 H23        -3.4269    2.2323    5.1489 H         1 <0>         0.0732
     44 H24        -4.5445    0.9123    5.5696 H         1 <0>         0.0610
     45 H25        -0.6195    0.9697    7.1890 H         1 <0>         0.0662
     46 H26        -1.1609    2.2622    6.0917 H         1 <0>         0.0771
     47 H27        -3.6527   -0.8578    7.0723 H         1 <0>         0.3748
     48 H28        -2.0452    2.4515    2.7070 H         1 <0>         0.0548
     49 H29        -1.7949    2.7879    4.4368 H         1 <0>         0.0572
     50 H30        -0.3976    2.4728    3.3801 H         1 <0>         0.0611
@<TRIPOS>BOND
     1    1    2 1
     2    1   26 1
     3    1   27 1
     4    1   28 1
     5    2    9 1
     6    2   13 1
     7    2    3 1
     8    3    4 1
     9    3   29 1
    10    3   30 1
    11    4    5 1
    12    4   31 1
    13    4   32 1
    14    5    6 1
    15    5   18 1
    16    5    7 1
    17    7    8 1
    18    7    9 1
    19    7   14 1
    20    9   10 1
    21    9   11 1
    22   11   12 1
    23   11   33 1
    24   11   34 1
    25   12   13 2
    26   12   35 1
    27   13   36 1
    28   14   15 1
    29   14   37 1
    30   14   38 1
    31   15   16 1
    32   15   39 1
    33   15   40 1
    34   16   17 1
    35   16   23 1
    36   16   18 1
    37   18   19 1
    38   18   25 1
    39   19   20 1
    40   19   41 1
    41   19   42 1
    42   20   21 1
    43   20   43 1
    44   20   44 1
    45   21   22 1
    46   21   23 1
    47   21   24 1
    48   23   45 1
    49   23   46 1
    50   24   47 1
    51   25   48 1
    52   25   49 1
    53   25   50 1
