@<TRIPOS>MOLECULE
ZINC03929508
   51    51     0     0     0
SMALL
USER_CHARGES

@<TRIPOS>ATOM
      1 C1         -0.0187    1.5258    0.0104 C.3       1 <0>        -0.1532
      2 C2          0.0021   -0.0041    0.0020 C.3       1 <0>        -0.1222
      3 C3          0.7182   -0.4975   -1.2568 C.3       1 <0>         0.0857
      4 C4          0.8493   -2.0210   -1.2049 C.3       1 <0>        -0.1497
      5 C5          1.6735   -2.5029   -2.4004 C.3       1 <0>        -0.1692
      6 O1         -0.0359   -0.1233   -2.4115 O.3       1 <0>        -0.3300
      7 C6          0.7591    0.1000   -3.5777 C.3       1 <0>         0.0980
      8 H1          1.6460   -0.5323   -3.5369 H         1 <0>         0.1073
      9 C7          1.1771    1.5408   -3.6266 C.2       1 <0>        -0.0678
     10 C8          1.1660    2.2692   -4.7231 C.2       1 <0>        -0.1450
     11 C9          0.7250    1.7548   -6.0624 C.3       1 <0>        -0.0925
     12 C10         0.7119    0.2247   -6.0606 C.3       1 <0>         0.0229
     13 H2          1.7348   -0.1501   -6.0243 H         1 <0>         0.1580
     14 C11        -0.0574   -0.2513   -4.8231 C.3       1 <0>         0.1266
     15 H3         -1.0261    0.2463   -4.7782 H         1 <0>         0.1328
     16 N1         -0.2479   -1.7021   -4.8936 N.am      1 <0>        -0.7551
     17 C12        -1.2641   -2.2817   -4.2244 C.2       1 <0>         0.5147
     18 O2         -2.0208   -1.6022   -3.5637 O.2       1 <0>        -0.4878
     19 C13        -1.4600   -3.7742   -4.2969 C.3       1 <0>        -0.1755
     20 N2          0.0500   -0.2646   -7.2773 N.4       1 <0>        -0.6302
     21 C14         1.6106    3.6668   -4.6304 C.2       1 <0>         0.4950
     22 O3          1.9746    4.1191   -3.5627 O.2       1 <0>        -0.4879
     23 O4          1.6147    4.4471   -5.7296 O.3       1 <0>        -0.3516
     24 C15         2.0593    5.7953   -5.5664 C.3       1 <0>         0.0602
     25 C16         1.9942    6.5202   -6.9122 C.3       1 <0>        -0.1533
     26 H4          1.0039    1.9031    0.0027 H         1 <0>         0.0518
     27 H5         -0.5459    1.8868   -0.8726 H         1 <0>         0.0584
     28 H6         -0.5289    1.8773    0.9072 H         1 <0>         0.0603
     29 H7          0.5293   -0.3651    0.8851 H         1 <0>         0.0805
     30 H8         -1.0205   -0.3814    0.0098 H         1 <0>         0.0757
     31 H9          1.7103   -0.0491   -1.3098 H         1 <0>         0.0644
     32 H10         1.3468   -2.3116   -0.2797 H         1 <0>         0.0787
     33 H11        -0.1422   -2.4724   -1.2416 H         1 <0>         0.0743
     34 H12         1.7669   -3.5883   -2.3635 H         1 <0>         0.0624
     35 H13         1.1760   -2.2123   -3.3257 H         1 <0>         0.0583
     36 H14         2.6650   -2.0515   -2.3638 H         1 <0>         0.0543
     37 H15         1.5062    2.0066   -2.7095 H         1 <0>         0.1485
     38 H16        -0.2772    2.1244   -6.2793 H         1 <0>         0.1118
     39 H17         1.4127    2.1094   -6.8301 H         1 <0>         0.1204
     40 H18         0.3573   -2.2457   -5.4220 H         1 <0>         0.3997
     41 H19        -0.6897   -4.2113   -4.9323 H         1 <0>         0.0773
     42 H20        -1.3894   -4.1990   -3.2956 H         1 <0>         0.1038
     43 H21        -2.4427   -3.9917   -4.7154 H         1 <0>         0.1026
     44 H22         0.5511    0.0653   -8.0887 H         1 <0>         0.4440
     45 H23         0.0428   -1.2735   -7.2737 H         1 <0>         0.4357
     46 H24         1.4175    6.3051   -4.8478 H         1 <0>         0.0733
     47 H25         3.0865    5.7976   -5.2018 H         1 <0>         0.0730
     48 H26         2.6360    6.0105   -7.6308 H         1 <0>         0.0671
     49 H27         0.9670    6.5180   -7.2768 H         1 <0>         0.0677
     50 H28         2.3333    7.5486   -6.7877 H         1 <0>         0.0864
     51 H29        -0.8985    0.0785   -7.3054 H         1 <0>         0.4394
@<TRIPOS>BOND
     1    1    2 1
     2    1   26 1
     3    1   27 1
     4    1   28 1
     5    2    3 1
     6    2   29 1
     7    2   30 1
     8    3    4 1
     9    3    6 1
    10    3   31 1
    11    4    5 1
    12    4   32 1
    13    4   33 1
    14    5   34 1
    15    5   35 1
    16    5   36 1
    17    6    7 1
    18    7    8 1
    19    7   14 1
    20    7    9 1
    21    9   10 2
    22    9   37 1
    23   10   11 1
    24   10   21 1
    25   11   12 1
    26   11   38 1
    27   11   39 1
    28   12   13 1
    29   12   14 1
    30   12   20 1
    31   14   15 1
    32   14   16 1
    33   16   17 am
    34   16   40 1
    35   17   18 2
    36   17   19 1
    37   19   41 1
    38   19   42 1
    39   19   43 1
    40   20   44 1
    41   20   45 1
    42   20   51 1
    43   21   22 2
    44   21   23 1
    45   23   24 1
    46   24   25 1
    47   24   46 1
    48   24   47 1
    49   25   48 1
    50   25   49 1
    51   25   50 1
@<TRIPOS>MOLECULE
ZINC03981610
   51    51     0     0     0
SMALL
USER_CHARGES
(1S,2S,3R,4R)-3-[(1S)-1-acetamido-2-ethyl-butyl]-4-guanidino-2-hydroxy-cyclopentane-1-carboxylic acid
@<TRIPOS>ATOM
      1 C1          2.0442    3.1149   -3.3090 C.3       1 <0>        -0.1558
      2 C2          1.3118    3.0489   -1.9673 C.3       1 <0>        -0.1163
      3 C3          2.2126    2.3807   -0.9268 C.3       1 <0>        -0.0962
      4 C4          3.4256    3.2725   -0.6543 C.3       1 <0>        -0.1174
      5 C5          4.4209    2.5227    0.2333 C.3       1 <0>        -0.1573
      6 C6          1.4284    2.1761    0.3708 C.3       1 <0>         0.1619
      7 H1          1.1817    3.1458    0.8031 H         1 <0>         0.1159
      8 C7          0.1391    1.4084    0.0718 C.3       1 <0>        -0.0926
      9 H2          0.3142    0.6785   -0.7186 H         1 <0>         0.1018
     10 C8         -0.3601    0.6971    1.3465 C.3       1 <0>         0.1250
     11 H3          0.0161    1.2011    2.2368 H         1 <0>         0.1015
     12 C9         -1.9025    0.8149    1.2678 C.3       1 <0>        -0.1096
     13 C10        -2.1076    2.2345    0.6832 C.3       1 <0>        -0.1624
     14 H4         -2.0159    2.9867    1.4668 H         1 <0>         0.0900
     15 C11        -0.9710    2.3866   -0.3504 C.3       1 <0>         0.1231
     16 H5         -1.3347    2.1316   -1.3457 H         1 <0>         0.0888
     17 O1         -0.4736    3.7262   -0.3387 O.3       1 <0>        -0.5629
     18 C12        -3.4513    2.3382    0.0090 C.2       1 <0>         0.4628
     19 O2         -3.5171    2.5840   -1.1722 O.co2     1 <0>        -0.6280
     20 N1          0.0503   -0.7092    1.3430 N.pl3     1 <0>        -0.6751
     21 C13         0.1838   -1.3893    2.5304 C.cat     1 <0>         0.7299
     22 N2          0.5689   -2.7090    2.5272 N.pl3     1 <0>        -0.8130
     23 N3          2.2431    1.4119    1.3187 N.am      1 <0>        -0.7266
     24 C14         2.6809    0.1801    0.9908 C.2       1 <0>         0.5058
     25 O3          2.4788   -0.2591   -0.1216 O.2       1 <0>        -0.5330
     26 C15         3.4215   -0.6515    2.0062 C.3       1 <0>        -0.1812
     27 H6          1.4023    3.5910   -4.0502 H         1 <0>         0.0530
     28 H7          2.9598    3.6951   -3.1950 H         1 <0>         0.0503
     29 H8          2.2922    2.1057   -3.6376 H         1 <0>         0.0467
     30 H9          0.3961    2.4687   -2.0814 H         1 <0>         0.0670
     31 H10         1.0638    4.0582   -1.6387 H         1 <0>         0.0823
     32 H11         2.5492    1.4150   -1.3041 H         1 <0>         0.0914
     33 H12         3.9048    3.5327   -1.5982 H         1 <0>         0.0638
     34 H13         3.1016    4.1822   -0.1486 H         1 <0>         0.0605
     35 H14         3.9705    2.3376    1.2085 H         1 <0>         0.0583
     36 H15         4.6798    1.5723   -0.2336 H         1 <0>         0.0470
     37 H16         5.3218    3.1237    0.3574 H         1 <0>         0.0458
     38 H17        -2.3140    0.0587    0.5994 H         1 <0>         0.0819
     39 H18        -2.3469    0.7379    2.2601 H         1 <0>         0.0785
     40 H19        -1.1272    4.3907   -0.5961 H         1 <0>         0.3879
     41 H20         0.2278   -1.1606    0.5030 H         1 <0>         0.4354
     42 H21         0.0117   -1.1773    4.5488 H         1 <0>         0.4459
     43 H22         0.7465   -3.1605    1.6872 H         1 <0>         0.4390
     44 H23         0.6631   -3.1888    3.3650 H         1 <0>         0.4345
     45 H24         2.4675    1.7925    2.1822 H         1 <0>         0.3997
     46 H25         2.7100   -1.2535    2.5713 H         1 <0>         0.0745
     47 H26         4.1264   -1.3068    1.4946 H         1 <0>         0.0972
     48 H27         3.9638    0.0046    2.6871 H         1 <0>         0.0828
     49 O4         -4.5750    2.1575    0.7205 O.co2     1 <0>        -0.7574
     50 N4         -0.0732   -0.7164    3.6427 N.pl3     1 <0>        -0.8004
     51 H28        -0.3578    0.2689    3.5926 H         1 <0>         0.4551
@<TRIPOS>BOND
     1    1    2 1
     2    1   27 1
     3    1   28 1
     4    1   29 1
     5    2    3 1
     6    2   30 1
     7    2   31 1
     8    3    4 1
     9    3    6 1
    10    3   32 1
    11    4    5 1
    12    4   33 1
    13    4   34 1
    14    5   35 1
    15    5   36 1
    16    5   37 1
    17    6    7 1
    18    6    8 1
    19    6   23 1
    20    8    9 1
    21    8   15 1
    22    8   10 1
    23   10   11 1
    24   10   12 1
    25   10   20 1
    26   12   13 1
    27   12   38 1
    28   12   39 1
    29   13   14 1
    30   13   15 1
    31   13   18 1
    32   15   16 1
    33   15   17 1
    34   17   40 1
    35   18   19 2
    36   18   49 1
    37   20   21 1
    38   20   41 1
    39   21   22 1
    40   21   50 2
    41   22   43 1
    42   22   44 1
    43   23   24 am
    44   23   45 1
    45   24   25 2
    46   24   26 1
    47   26   46 1
    48   26   47 1
    49   26   48 1
    50   42   50 1
    51   50   51 1
@<TRIPOS>MOLECULE
ZINC03918138
   43    43     0     0     0
SMALL
USER_CHARGES
5-acetylamino-4-guanidino-6-(1,2,3-trihydroxypropyl)-5,6-dihydro-4H-pyran-2-carboxylic acid
@<TRIPOS>ATOM
      1 C1          0.2032    2.2938   -0.1348 C.3       1 <0>        -0.1769
      2 C2         -0.5558    2.7953    1.0666 C.2       1 <0>         0.5219
      3 O1         -0.7477    2.0611    2.0126 O.2       1 <0>        -0.5468
      4 N1         -1.0214    4.0599    1.0898 N.am      1 <0>        -0.7221
      5 C3         -1.7593    4.5476    2.2577 C.3       1 <0>         0.1104
      6 H1         -1.3490    4.1019    3.1640 H         1 <0>         0.1229
      7 C4         -3.2403    4.1775    2.1247 C.3       1 <0>         0.1762
      8 H2         -3.5893    4.4292    1.1232 H         1 <0>         0.0961
      9 C5         -4.0413    4.9441    3.1422 C.2       1 <0>        -0.3423
     10 C6         -3.5666    6.0201    3.7521 C.2       1 <0>         0.1380
     11 O2         -2.3263    6.5141    3.5195 O.3       1 <0>        -0.2715
     12 C7         -1.6503    6.0763    2.3375 C.3       1 <0>         0.0517
     13 H3         -2.1170    6.5241    1.4602 H         1 <0>         0.0962
     14 C8         -0.1776    6.4854    2.4044 C.3       1 <0>         0.0983
     15 H4          0.3184    6.2110    1.4734 H         1 <0>         0.1143
     16 C9         -0.0773    7.9983    2.6091 C.3       1 <0>         0.0758
     17 H5         -0.5732    8.2727    3.5402 H         1 <0>         0.1273
     18 C10         1.3956    8.4074    2.6761 C.3       1 <0>         0.0493
     19 O3          1.4896    9.7999    2.9829 O.3       1 <0>        -0.5605
     20 O4         -0.7090    8.6697    1.5172 O.3       1 <0>        -0.5361
     21 O5          0.4542    5.8140    3.4964 O.3       1 <0>        -0.5482
     22 C11        -4.4266    6.7113    4.7287 C.2       1 <0>         0.4904
     23 O6         -5.5437    6.2919    4.9585 O.co2     1 <0>        -0.6036
     24 N2         -3.4070    2.7401    2.3531 N.pl3     1 <0>        -0.6719
     25 C12        -4.4826    2.0778    1.8100 C.cat     1 <0>         0.7371
     26 N3         -4.6390    0.7289    2.0243 N.pl3     1 <0>        -0.8109
     27 H6          0.4973    1.2569    0.0282 H         1 <0>         0.0968
     28 H7          1.0935    2.9049   -0.2832 H         1 <0>         0.0946
     29 H8         -0.4321    2.3567   -1.0183 H         1 <0>         0.0893
     30 H9         -0.8679    4.6472    0.3332 H         1 <0>         0.4059
     31 H10        -5.0378    4.6051    3.3838 H         1 <0>         0.1467
     32 H11         1.8982    7.8296    3.4516 H         1 <0>         0.0639
     33 H12         1.8703    8.2145    1.7140 H         1 <0>         0.0448
     34 H13         2.3969   10.1293    3.0413 H         1 <0>         0.3803
     35 H14        -0.3184    8.4719    0.6550 H         1 <0>         0.3658
     36 H15         0.0636    6.0118    4.3586 H         1 <0>         0.3935
     37 H16        -2.7586    2.2555    2.8876 H         1 <0>         0.4382
     38 H17        -6.1457    2.3503    0.6663 H         1 <0>         0.4452
     39 H18        -3.9906    0.2443    2.5588 H         1 <0>         0.4385
     40 H19        -5.3978    0.2617    1.6411 H         1 <0>         0.4339
     41 O7         -3.9742    7.8087    5.3673 O.co2     1 <0>        -0.7079
     42 N4         -5.3320    2.7963    1.0901 N.pl3     1 <0>        -0.7998
     43 H20        -5.1712    3.8019    0.9590 H         1 <0>         0.4554
@<TRIPOS>BOND
     1    1    2 1
     2    1   27 1
     3    1   28 1
     4    1   29 1
     5    2    3 2
     6    2    4 am
     7    4    5 1
     8    4   30 1
     9    5    6 1
    10    5   12 1
    11    5    7 1
    12    7    8 1
    13    7    9 1
    14    7   24 1
    15    9   10 2
    16    9   31 1
    17   10   11 1
    18   10   22 1
    19   11   12 1
    20   12   13 1
    21   12   14 1
    22   14   15 1
    23   14   16 1
    24   14   21 1
    25   16   17 1
    26   16   18 1
    27   16   20 1
    28   18   19 1
    29   18   32 1
    30   18   33 1
    31   19   34 1
    32   20   35 1
    33   21   36 1
    34   22   23 2
    35   22   41 1
    36   24   25 1
    37   24   37 1
    38   25   26 1
    39   25   42 2
    40   26   39 1
    41   26   40 1
    42   38   42 1
    43   42   43 1
@<TRIPOS>MOLECULE
ZINC12503116
   43    43     0     0     0
SMALL
USER_CHARGES
(4S,5R,6R)-5-acetamido-4-guanidino-6-[(1R,2R)-1,2,3-trihydroxypropyl]-5,6-dihydro-4H-pyran-2-carboxylic acid
@<TRIPOS>ATOM
      1 C1         -4.1414    4.7859    0.3505 C.3       1 <0>        -0.1767
      2 C2         -3.1218    3.9854   -0.4180 C.2       1 <0>         0.5136
      3 O1         -3.4332    3.4460   -1.4585 O.2       1 <0>        -0.5375
      4 N1         -1.8636    3.8690    0.0512 N.am      1 <0>        -0.7255
      5 C3         -0.8724    3.0908   -0.6959 C.3       1 <0>         0.1008
      6 H1         -1.0522    3.1969   -1.7658 H         1 <0>         0.1236
      7 C4         -0.9707    1.6140   -0.3056 C.3       1 <0>         0.1807
      8 H2         -1.0181    1.5313    0.7802 H         1 <0>         0.1073
      9 C5          0.2396    0.8778   -0.8125 C.2       1 <0>        -0.3310
     10 C6          1.3445    1.5057   -1.1868 C.2       1 <0>         0.1380
     11 O2          1.4773    2.8537   -1.1474 O.3       1 <0>        -0.2716
     12 C7          0.5391    3.5886   -0.3564 C.3       1 <0>         0.0502
     13 H3          0.7425    3.4242    0.7018 H         1 <0>         0.0950
     14 C8          0.6508    5.0803   -0.6772 C.3       1 <0>         0.0991
     15 H4         -0.0010    5.6451   -0.0109 H         1 <0>         0.1137
     16 C9          2.0981    5.5368   -0.4826 C.3       1 <0>         0.0757
     17 H5          2.7501    4.9719   -1.1490 H         1 <0>         0.1274
     18 C10         2.2099    7.0286   -0.8034 C.3       1 <0>         0.0494
     19 O3          3.5799    7.4292   -0.7348 O.3       1 <0>        -0.5602
     20 O4          2.4908    5.3104    0.8726 O.3       1 <0>        -0.5355
     21 O5          0.2583    5.3067   -2.0325 O.3       1 <0>        -0.5485
     22 C11         2.4811    0.7013   -1.6686 C.2       1 <0>         0.4903
     23 O6          2.3917   -0.5097   -1.7159 O.co2     1 <0>        -0.6012
     24 C12        -3.2091    0.5912   -0.2152 C.cat     1 <0>         0.7402
     25 N2         -3.2727    0.7955    1.1429 N.pl3     1 <0>        -0.8158
     26 N3         -4.2259   -0.0737   -0.8587 N.pl3     1 <0>        -0.8144
     27 H6         -4.1156    5.8232    0.0167 H         1 <0>         0.1013
     28 H7         -5.1347    4.3726    0.1756 H         1 <0>         0.0945
     29 H8         -3.9115    4.7409    1.4151 H         1 <0>         0.0817
     30 H9         -1.6145    4.3004    0.8835 H         1 <0>         0.4049
     31 H10         0.2048   -0.1997   -0.8778 H         1 <0>         0.1515
     32 H11         1.8270    7.2141   -1.8069 H         1 <0>         0.0634
     33 H12         1.6275    7.6003   -0.0809 H         1 <0>         0.0444
     34 H13         3.7260    8.3656   -0.9274 H         1 <0>         0.3802
     35 H14         1.9527    5.7831    1.5223 H         1 <0>         0.3653
     36 H15         0.7964    4.8340   -2.6821 H         1 <0>         0.3932
     37 H16        -2.6431    1.3950    1.5732 H         1 <0>         0.4314
     38 H17        -3.9472    0.3401    1.6708 H         1 <0>         0.4350
     39 H18        -4.1809   -0.2179   -1.8168 H         1 <0>         0.4368
     40 H19        -4.9882   -0.3987   -0.3545 H         1 <0>         0.4310
     41 O7          3.6199    1.3087   -2.0570 O.co2     1 <0>        -0.7082
     42 N4         -2.1868    1.0234   -0.9634 N.pl3     1 <0>        -0.6482
     43 H20        -2.2332    0.9516   -1.9866 H         1 <0>         0.4548
@<TRIPOS>BOND
     1    1    2 1
     2    1   27 1
     3    1   28 1
     4    1   29 1
     5    2    3 2
     6    2    4 am
     7    4    5 1
     8    4   30 1
     9    5    6 1
    10    5   12 1
    11    5    7 1
    12    7    8 1
    13    7    9 1
    14    7   42 1
    15    9   10 2
    16    9   31 1
    17   10   11 1
    18   10   22 1
    19   11   12 1
    20   12   13 1
    21   12   14 1
    22   14   15 1
    23   14   16 1
    24   14   21 1
    25   16   17 1
    26   16   18 1
    27   16   20 1
    28   18   19 1
    29   18   32 1
    30   18   33 1
    31   19   34 1
    32   20   35 1
    33   21   36 1
    34   22   23 2
    35   22   41 1
    36   24   25 1
    37   24   26 1
    38   24   42 2
    39   25   37 1
    40   25   38 1
    41   26   39 1
    42   26   40 1
    43   42   43 1
@<TRIPOS>MOLECULE
ZINC26284236
   43    43     0     0     0
SMALL
USER_CHARGES

@<TRIPOS>ATOM
      1 C1         -0.0184    1.5028    0.0103 C.3       1 <0>        -0.1750
      2 C2          0.0021   -0.0041    0.0020 C.2       1 <0>         0.5219
      3 O1          0.0203   -0.6160    1.0489 O.2       1 <0>        -0.5492
      4 N1          0.0001   -0.6716   -1.1688 N.am      1 <0>        -0.7215
      5 C3          0.0199   -2.1365   -1.1769 C.3       1 <0>         0.1103
      6 H1         -0.5556   -2.5164   -0.3328 H         1 <0>         0.1212
      7 C4          1.4661   -2.6341   -1.0822 C.3       1 <0>         0.1753
      8 H2          2.0870   -2.0832   -1.7886 H         1 <0>         0.0934
      9 C5          1.5135   -4.1016   -1.4109 C.2       1 <0>        -0.3476
     10 C6          0.5244   -4.7176   -2.0442 C.2       1 <0>         0.1097
     11 O2         -0.6069   -4.0844   -2.4391 O.3       1 <0>        -0.2565
     12 C7         -0.5828   -2.6550   -2.4895 C.3       1 <0>         0.0509
     13 H3          0.0296   -2.3274   -3.3296 H         1 <0>         0.0875
     14 C8         -2.0073   -2.1200   -2.6495 C.3       1 <0>         0.0920
     15 H4         -1.9784   -1.0357   -2.7562 H         1 <0>         0.1195
     16 C9         -2.6474   -2.7381   -3.8941 C.3       1 <0>         0.0753
     17 H5         -2.1121   -2.4029   -4.7825 H         1 <0>         0.1100
     18 C10        -4.1109   -2.3012   -3.9854 C.3       1 <0>         0.0499
     19 O3         -4.6763   -2.7819   -5.2066 O.3       1 <0>        -0.5623
     20 O4         -2.5803   -4.1628   -3.8067 O.3       1 <0>        -0.5114
     21 O5         -2.7779   -2.4648   -1.4965 O.3       1 <0>        -0.5501
     22 C11         0.6613   -6.1542   -2.3308 C.2       1 <0>         0.5240
     23 O6          1.6710   -6.7533   -1.9862 O.co2     1 <0>        -0.6625
     24 O7         -0.2345   -6.7499   -2.9137 O.co2     1 <0>        -0.6383
     25 N2          1.9676   -2.4217    0.2778 N.pl3     1 <0>        -0.6676
     26 C12         3.3114   -2.2934    0.4990 C.cat     1 <0>         0.7394
     27 N3          3.7674   -2.1003    1.7355 N.pl3     1 <0>        -0.8001
     28 N4          4.1639   -2.3617   -0.5221 N.pl3     1 <0>        -0.7969
     29 H6          1.0042    1.8801    0.0026 H         1 <0>         0.0941
     30 H7         -0.5455    1.8639   -0.8728 H         1 <0>         0.0846
     31 H8         -0.5286    1.8543    0.9071 H         1 <0>         0.0991
     32 H9         -0.0145   -0.1822   -2.0061 H         1 <0>         0.4056
     33 H10         2.3828   -4.6731   -1.1208 H         1 <0>         0.1438
     34 H11        -4.6659   -2.7115   -3.1418 H         1 <0>         0.0553
     35 H12        -4.1672   -1.2129   -3.9626 H         1 <0>         0.0493
     36 H13        -5.6045   -2.5415   -5.3317 H         1 <0>         0.3799
     37 H14        -3.0366   -4.5317   -3.0381 H         1 <0>         0.3714
     38 H15        -2.8464   -3.4165   -1.3394 H         1 <0>         0.3867
     39 H16         1.3468   -2.3720    1.0215 H         1 <0>         0.4394
     40 H17         3.1465   -2.0506    2.4791 H         1 <0>         0.4390
     41 H18         3.8318   -2.5023   -1.4226 H         1 <0>         0.4398
     42 H19         5.1168   -2.2707   -0.3653 H         1 <0>         0.4350
     43 H20         4.7203   -2.0094    1.8923 H         1 <0>         0.4356
@<TRIPOS>BOND
     1    1    2 1
     2    1   29 1
     3    1   30 1
     4    1   31 1
     5    2    3 2
     6    2    4 am
     7    4    5 1
     8    4   32 1
     9    5    6 1
    10    5   12 1
    11    5    7 1
    12    7    8 1
    13    7    9 1
    14    7   25 1
    15    9   10 2
    16    9   33 1
    17   10   11 1
    18   10   22 1
    19   11   12 1
    20   12   13 1
    21   12   14 1
    22   14   15 1
    23   14   16 1
    24   14   21 1
    25   16   17 1
    26   16   18 1
    27   16   20 1
    28   18   19 1
    29   18   34 1
    30   18   35 1
    31   19   36 1
    32   20   37 1
    33   21   38 1
    34   22   23 2
    35   22   24 1
    36   25   26 1
    37   25   39 1
    38   26   27 2
    39   26   28 1
    40   27   40 1
    41   27   43 1
    42   28   41 1
    43   28   42 1
@<TRIPOS>MOLECULE
ZINC40641191
   43    43     0     0     0
SMALL
USER_CHARGES

@<TRIPOS>ATOM
      1 C1         -0.0184    1.5028    0.0103 C.3       1 <0>        -0.1756
      2 C2          0.0021   -0.0041    0.0020 C.2       1 <0>         0.5203
      3 O1          0.0203   -0.6160    1.0489 O.2       1 <0>        -0.5477
      4 N1          0.0001   -0.6716   -1.1688 N.am      1 <0>        -0.7132
      5 C3          0.0199   -2.1365   -1.1769 C.3       1 <0>         0.1142
      6 H1         -0.5556   -2.5164   -0.3328 H         1 <0>         0.1194
      7 C4          1.4661   -2.6341   -1.0822 C.3       1 <0>         0.1665
      8 H2          1.9825   -2.1004   -0.2843 H         1 <0>         0.1070
      9 C5          2.1685   -2.3845   -2.3891 C.2       1 <0>        -0.3358
     10 C6          1.5077   -2.1400   -3.5127 C.2       1 <0>         0.1110
     11 O2          0.1549   -2.0872   -3.5769 O.3       1 <0>        -0.2730
     12 C7         -0.5828   -2.6550   -2.4895 C.3       1 <0>         0.0444
     13 H3         -0.5094   -3.7420   -2.5233 H         1 <0>         0.0878
     14 C8         -2.0505   -2.2334   -2.5849 C.3       1 <0>         0.0890
     15 H4         -2.1185   -1.1458   -2.5608 H         1 <0>         0.1242
     16 C9         -2.6463   -2.7528   -3.8949 C.3       1 <0>         0.0783
     17 H5         -2.1517   -2.2677   -4.7365 H         1 <0>         0.1315
     18 C10        -4.1434   -2.4398   -3.9338 C.3       1 <0>         0.0510
     19 O3         -4.6766   -2.8196   -5.2041 O.3       1 <0>        -0.5620
     20 O4         -2.4528   -4.1661   -3.9789 O.3       1 <0>        -0.5388
     21 O5         -2.7759   -2.7805   -1.4818 O.3       1 <0>        -0.5387
     22 C11         2.2783   -1.9153   -4.7457 C.2       1 <0>         0.5239
     23 O6          3.5008   -1.9562   -4.7191 O.co2     1 <0>        -0.6566
     24 O7          1.6965   -1.6874   -5.7977 O.co2     1 <0>        -0.6442
     25 N2          1.4704   -4.0700   -0.7917 N.pl3     1 <0>        -0.6805
     26 C12         2.5481   -4.6389   -0.1703 C.cat     1 <0>         0.7468
     27 N3          2.5520   -5.9444    0.0937 N.pl3     1 <0>        -0.8004
     28 N4          3.5935   -3.8873    0.1707 N.pl3     1 <0>        -0.7909
     29 H6          1.0042    1.8801    0.0026 H         1 <0>         0.0994
     30 H7         -0.5455    1.8639   -0.8728 H         1 <0>         0.0851
     31 H8         -0.5286    1.8543    0.9071 H         1 <0>         0.0976
     32 H9         -0.0145   -0.1822   -2.0061 H         1 <0>         0.4142
     33 H10         3.2481   -2.4047   -2.4131 H         1 <0>         0.1432
     34 H11        -4.6514   -2.9956   -3.1457 H         1 <0>         0.0533
     35 H12        -4.2953   -1.3713   -3.7807 H         1 <0>         0.0566
     36 H13        -5.6237   -2.6494   -5.2999 H         1 <0>         0.3813
     37 H14        -2.8670   -4.6632   -3.2602 H         1 <0>         0.3612
     38 H15        -2.7586   -3.7464   -1.4400 H         1 <0>         0.3723
     39 H16         0.7091   -4.6174   -1.0401 H         1 <0>         0.4256
     40 H17         1.7907   -6.4917   -0.1546 H         1 <0>         0.4376
     41 H18         3.5906   -2.9365   -0.0216 H         1 <0>         0.4409
     42 H19         4.3577   -4.2907    0.6114 H         1 <0>         0.4366
     43 H20         3.3162   -6.3478    0.5344 H         1 <0>         0.4373
@<TRIPOS>BOND
     1    1    2 1
     2    1   29 1
     3    1   30 1
     4    1   31 1
     5    2    3 2
     6    2    4 am
     7    4    5 1
     8    4   32 1
     9    5    6 1
    10    5   12 1
    11    5    7 1
    12    7    8 1
    13    7    9 1
    14    7   25 1
    15    9   10 2
    16    9   33 1
    17   10   11 1
    18   10   22 1
    19   11   12 1
    20   12   13 1
    21   12   14 1
    22   14   15 1
    23   14   16 1
    24   14   21 1
    25   16   17 1
    26   16   18 1
    27   16   20 1
    28   18   19 1
    29   18   34 1
    30   18   35 1
    31   19   36 1
    32   20   37 1
    33   21   38 1
    34   22   23 2
    35   22   24 1
    36   25   26 1
    37   25   39 1
    38   26   27 2
    39   26   28 1
    40   27   40 1
    41   27   43 1
    42   28   41 1
    43   28   42 1
@<TRIPOS>MOLECULE
ZINC01532590
   39    39     0     0     0
SMALL
USER_CHARGES
5-acetylamino-2,4-dihydroxy-6-(1,2,3-trihydroxypropyl)tetrahydropyran-2-carboxylic acid
@<TRIPOS>ATOM
      1 C1         -0.0353   -4.1958   -1.6915 C.3       1 <0>        -0.1708
      2 C2         -0.1267   -2.6917   -1.7125 C.2       1 <0>         0.5140
      3 O1         -1.1016   -2.1500   -2.1888 O.2       1 <0>        -0.5337
      4 N1          0.8751   -1.9485   -1.2019 N.am      1 <0>        -0.7055
      5 H1          1.6548   -2.3818   -0.8209 H         1 <0>         0.3949
      6 C3          0.7862   -0.4864   -1.2223 C.3       1 <0>         0.1319
      7 H2          0.2769   -0.1650   -2.1308 H         1 <0>         0.0936
      8 C4          0.0021   -0.0041    0.0020 C.3       1 <0>         0.0982
      9 H3          0.4824   -0.3672    0.9106 H         1 <0>         0.0629
     10 C5         -0.0187    1.5275    0.0104 C.3       1 <0>        -0.1483
     11 C6          1.4204    2.0497   -0.0005 C.3       1 <0>         0.2574
     12 O2          2.1023    1.5392   -1.1479 O.3       1 <0>        -0.3685
     13 C7          2.1942    0.1136   -1.1856 C.3       1 <0>         0.0653
     14 H4          2.7172   -0.2406   -0.2973 H         1 <0>         0.1072
     15 C8          2.9642   -0.3151   -2.4362 C.3       1 <0>         0.0941
     16 H5          2.4413    0.0396   -3.3243 H         1 <0>         0.1041
     17 C9          4.3713    0.2846   -2.3994 C.3       1 <0>         0.0892
     18 H6          4.8943   -0.0702   -1.5112 H         1 <0>         0.1071
     19 C10         5.1414   -0.1442   -3.6500 C.3       1 <0>         0.0466
     20 O3          6.4906    0.3182   -3.5605 O.3       1 <0>        -0.5632
     21 O4          4.2807    1.7102   -2.3612 O.3       1 <0>        -0.5183
     22 O5          3.0549   -1.7408   -2.4744 O.3       1 <0>        -0.5428
     23 C11         2.1295    1.5951    1.2491 C.2       1 <0>         0.4290
     24 O6          3.1675    0.9823    1.1657 O.co2     1 <0>        -0.6168
     25 O7          1.4088    3.4778   -0.0493 O.3       1 <0>        -0.5274
     26 O8         -1.3366   -0.5000   -0.0619 O.3       1 <0>        -0.5451
     27 H7          0.0493   -4.5403   -0.6609 H         1 <0>         0.0823
     28 H8         -0.9312   -4.6206   -2.1443 H         1 <0>         0.0856
     29 H9          0.8422   -4.5144   -2.2542 H         1 <0>         0.0846
     30 H10        -0.5443    1.8896   -0.8732 H         1 <0>         0.0746
     31 H11        -0.5273    1.8800    0.9078 H         1 <0>         0.0902
     32 H12         5.1342   -1.2315   -3.7262 H         1 <0>         0.0593
     33 H13         4.6680    0.2850   -4.5331 H         1 <0>         0.0444
     34 H14         7.0386    0.0818   -4.3213 H         1 <0>         0.3735
     35 H15         3.8260    2.0959   -3.1224 H         1 <0>         0.3654
     36 H16         3.5096   -2.1265   -1.7131 H         1 <0>         0.3747
     37 H17         2.2889    3.8782   -0.0588 H         1 <0>         0.3813
     38 H18        -1.8931   -0.2269    0.6803 H         1 <0>         0.3710
     39 O9          1.6079    1.8709    2.4548 O.co2     1 <0>        -0.7420
@<TRIPOS>BOND
     1    1    2 1
     2    1   27 1
     3    1   28 1
     4    1   29 1
     5    2    3 2
     6    2    4 am
     7    4    5 1
     8    4    6 1
     9    6    7 1
    10    6   13 1
    11    6    8 1
    12    8    9 1
    13    8   10 1
    14    8   26 1
    15   10   11 1
    16   10   30 1
    17   10   31 1
    18   11   12 1
    19   11   23 1
    20   11   25 1
    21   12   13 1
    22   13   14 1
    23   13   15 1
    24   15   16 1
    25   15   17 1
    26   15   22 1
    27   17   18 1
    28   17   19 1
    29   17   21 1
    30   19   20 1
    31   19   32 1
    32   19   33 1
    33   20   34 1
    34   21   35 1
    35   22   36 1
    36   23   24 2
    37   23   39 1
    38   25   37 1
    39   26   38 1
@<TRIPOS>MOLECULE
ZINC01538308
   38    39     0     0     0
SMALL
USER_CHARGES
1,7-diphenylhepta-4,6-dien-3-one
@<TRIPOS>ATOM
      1 C1         -6.9590   -8.6647    0.0220 C.ar      1 <0>        -0.1247
      2 C2         -6.3766   -8.3046   -1.1789 C.ar      1 <0>        -0.1179
      3 C3         -5.1892   -7.5969   -1.1864 C.ar      1 <0>        -0.1177
      4 C4         -4.5839   -7.2496    0.0069 C.ar      1 <0>        -0.0839
      5 C5         -5.1634   -7.6146    1.2077 C.ar      1 <0>        -0.1178
      6 C6         -6.3537   -8.3174    1.2153 C.ar      1 <0>        -0.1179
      7 C7         -3.2892   -6.4784   -0.0013 C.3       1 <0>        -0.0733
      8 C8         -3.5892   -4.9781    0.0096 C.3       1 <0>        -0.1519
      9 C9         -2.2944   -4.2069    0.0014 C.2       1 <0>         0.3793
     10 O1         -1.2339   -4.8002   -0.0119 O.2       1 <0>        -0.4672
     11 C10        -2.3135   -2.8032    0.0091 C.2       1 <0>        -0.2546
     12 C11        -1.1427   -2.1059    0.0017 C.2       1 <0>        -0.0068
     13 C12        -1.1618   -0.6973    0.0094 C.2       1 <0>        -0.1578
     14 C13         0.0021   -0.0041    0.0020 C.2       1 <0>        -0.0534
     15 C14        -0.0179    1.4657    0.0101 C.ar      1 <0>        -0.0769
     16 C15        -1.2371    2.1527    0.0196 C.ar      1 <0>        -0.1034
     17 C16        -1.2470    3.5312    0.0320 C.ar      1 <0>        -0.1216
     18 C17        -0.0554    4.2358    0.0239 C.ar      1 <0>        -0.1092
     19 C18         1.1548    3.5639    0.0097 C.ar      1 <0>        -0.1219
     20 C19         1.1823    2.1857    0.0025 C.ar      1 <0>        -0.0986
     21 H1         -7.8870   -9.2170    0.0279 H         1 <0>         0.1212
     22 H2         -6.8494   -8.5759   -2.1112 H         1 <0>         0.1219
     23 H3         -4.7341   -7.3155   -2.1246 H         1 <0>         0.1215
     24 H4         -4.6882   -7.3471    2.1399 H         1 <0>         0.1212
     25 H5         -6.8089   -8.5985    2.1535 H         1 <0>         0.1219
     26 H6         -2.7226   -6.7291   -0.8981 H         1 <0>         0.0785
     27 H7         -2.7057   -6.7387    0.8817 H         1 <0>         0.0782
     28 H8         -4.1090   -4.7481    0.8323 H         1 <0>         0.0885
     29 H9         -4.1727   -4.7178   -0.8735 H         1 <0>         0.0976
     30 H10        -3.2560   -2.2760    0.0209 H         1 <0>         0.1308
     31 H11        -0.2002   -2.6331   -0.0102 H         1 <0>         0.1297
     32 H12        -2.1043   -0.1701    0.0212 H         1 <0>         0.1255
     33 H13         0.9446   -0.5313   -0.0098 H         1 <0>         0.1285
     34 H14        -2.1677    1.6045    0.0214 H         1 <0>         0.1271
     35 H15        -2.1870    4.0629    0.0434 H         1 <0>         0.1261
     36 H16        -0.0701    5.3157    0.0291 H         1 <0>         0.1249
     37 H17         2.0800    4.1210    0.0039 H         1 <0>         0.1265
     38 H18         2.1273    1.6629   -0.0086 H         1 <0>         0.1273
@<TRIPOS>BOND
     1    1    6 ar
     2    1    2 ar
     3    1   21 1
     4    2    3 ar
     5    2   22 1
     6    3    4 ar
     7    3   23 1
     8    4    5 ar
     9    4    7 1
    10    5    6 ar
    11    5   24 1
    12    6   25 1
    13    7    8 1
    14    7   26 1
    15    7   27 1
    16    8    9 1
    17    8   28 1
    18    8   29 1
    19    9   10 2
    20    9   11 1
    21   11   12 2
    22   11   30 1
    23   12   13 1
    24   12   31 1
    25   13   14 2
    26   13   32 1
    27   14   15 1
    28   14   33 1
    29   15   20 ar
    30   15   16 ar
    31   16   17 ar
    32   16   34 1
    33   17   18 ar
    34   17   35 1
    35   18   19 ar
    36   18   36 1
    37   19   20 ar
    38   19   37 1
    39   20   38 1
@<TRIPOS>MOLECULE
ZINC05884083
   38    38     0     0     0
SMALL
USER_CHARGES
5-acetylamino-4-amino-6-(1,2,3-trihydroxypropyl)-5,6-dihydro-4H-pyran-2-carboxylic acid
@<TRIPOS>ATOM
      1 C1         -2.5311    1.3966   -2.8583 C.3       1 <0>        -0.1770
      2 C2         -1.7909    0.8918   -1.6466 C.2       1 <0>         0.5163
      3 O1         -2.1476   -0.1306   -1.1004 O.2       1 <0>        -0.5525
      4 N1         -0.7324    1.5765   -1.1699 N.am      1 <0>        -0.7295
      5 H1         -0.4471    2.3943   -1.6068 H         1 <0>         0.4168
      6 C3         -0.0127    1.0858    0.0080 C.3       1 <0>         0.0763
      7 H2          0.0021   -0.0041    0.0020 H         1 <0>         0.1268
      8 C4         -0.7023    1.5863    1.2816 C.3       1 <0>         0.0889
      9 H3         -0.9146    2.6510    1.1854 H         1 <0>         0.1425
     10 C5          0.2016    1.3601    2.4629 C.2       1 <0>        -0.3718
     11 C6          1.4995    1.1317    2.3273 C.2       1 <0>         0.1635
     12 O2          2.1177    1.0761    1.1226 O.3       1 <0>        -0.2524
     13 C7          1.4249    1.6230   -0.0028 C.3       1 <0>         0.0534
     14 H4          1.4111    2.7107    0.0666 H         1 <0>         0.1038
     15 C8          2.1245    1.1977   -1.2954 C.3       1 <0>         0.0930
     16 H5          1.6351    1.6717   -2.1462 H         1 <0>         0.0783
     17 C9          3.5919    1.6279   -1.2463 C.3       1 <0>         0.1120
     18 H6          4.0813    1.1539   -0.3954 H         1 <0>         0.1347
     19 C10         4.2915    1.2027   -2.5389 C.3       1 <0>         0.0514
     20 O3          5.6862    1.4997   -2.4456 O.3       1 <0>        -0.5595
     21 O4          3.6676    3.0483   -1.1088 O.3       1 <0>        -0.5322
     22 O5          2.0488   -0.2226   -1.4329 O.3       1 <0>        -0.5358
     23 C11         2.3083    0.9294    3.5422 C.2       1 <0>         0.4866
     24 O6          1.7821    0.9735    4.6367 O.co2     1 <0>        -0.5968
     25 H7         -2.0691    2.3199   -3.2078 H         1 <0>         0.0848
     26 H8         -2.4883    0.6471   -3.6486 H         1 <0>         0.1084
     27 H9         -3.5714    1.5879   -2.5949 H         1 <0>         0.1056
     28 H10        -0.2224    1.3844    3.4559 H         1 <0>         0.1623
     29 H11         4.1574    0.1314   -2.6891 H         1 <0>         0.0662
     30 H12         3.8602    1.7444   -3.3806 H         1 <0>         0.0431
     31 H13         6.1937    1.2561   -3.2318 H         1 <0>         0.3812
     32 H14         3.2512    3.5362   -1.8325 H         1 <0>         0.3659
     33 H15         1.1458   -0.5666   -1.4707 H         1 <0>         0.3744
     34 H16        -2.4334    1.1641    2.3130 H         1 <0>         0.4360
     35 H17        -2.5574    0.9354    0.6703 H         1 <0>         0.4249
     36 O7          3.6317    0.6953    3.4396 O.co2     1 <0>        -0.6978
     37 N2         -1.9503    0.8285    1.4813 N.4       1 <0>        -0.6327
     38 H18        -1.7255   -0.1659    1.6028 H         1 <0>         0.4410
@<TRIPOS>BOND
     1    1    2 1
     2    1   25 1
     3    1   26 1
     4    1   27 1
     5    2    3 2
     6    2    4 am
     7    4    5 1
     8    4    6 1
     9    6    7 1
    10    6   13 1
    11    6    8 1
    12    8    9 1
    13    8   10 1
    14    8   37 1
    15   10   11 2
    16   10   28 1
    17   11   12 1
    18   11   23 1
    19   12   13 1
    20   13   14 1
    21   13   15 1
    22   15   16 1
    23   15   17 1
    24   15   22 1
    25   17   18 1
    26   17   19 1
    27   17   21 1
    28   19   20 1
    29   19   29 1
    30   19   30 1
    31   20   31 1
    32   21   32 1
    33   22   33 1
    34   23   24 2
    35   23   36 1
    36   34   37 1
    37   35   37 1
    38   37   38 1
@<TRIPOS>MOLECULE
ZINC03929509
   44    44     0     0     0
SMALL
USER_CHARGES
4-acetylamino-5-amino-3-(1-ethylpropoxy)cyclohexene-1-carboxylic acid
@<TRIPOS>ATOM
      1 C1         -1.1633   -0.1373    2.2080 C.3       1 <0>        -0.1531
      2 C2         -1.2332   -0.5349    0.7323 C.3       1 <0>        -0.1179
      3 C3          0.0021   -0.0041    0.0020 C.3       1 <0>         0.0869
      4 C4         -0.0048   -0.5063   -1.4432 C.3       1 <0>        -0.1462
      5 C5          1.2904   -0.0801   -2.1374 C.3       1 <0>        -0.1679
      6 O1         -0.0173    1.4248    0.0099 O.3       1 <0>        -0.3381
      7 C6          1.2801    2.0237    0.0007 C.3       1 <0>         0.1113
      8 H1          1.9754    1.3716   -0.5279 H         1 <0>         0.0858
      9 C7          1.7524    2.2095    1.4133 C.2       1 <0>        -0.1587
     10 C8          2.3580    3.2954    1.8457 C.2       1 <0>        -0.1351
     11 C9          2.6455    4.4901    0.9836 C.3       1 <0>        -0.0818
     12 C10         2.5376    4.1109   -0.4948 C.3       1 <0>         0.0249
     13 H2          3.3670    3.4580   -0.7668 H         1 <0>         0.1521
     14 C11         1.2098    3.3752   -0.7132 C.3       1 <0>         0.1276
     15 H3          0.3919    3.9655   -0.3000 H         1 <0>         0.1263
     16 N1          0.9895    3.1641   -2.1461 N.am      1 <0>        -0.7531
     17 C12        -0.2618    2.9975   -2.6181 C.2       1 <0>         0.5115
     18 O2         -1.2055    3.0224   -1.8567 O.2       1 <0>        -0.4912
     19 C13        -0.4884    2.7803   -4.0921 C.3       1 <0>        -0.1735
     20 C14         2.7767    3.3407    3.2535 C.2       1 <0>         0.4783
     21 O3          2.5611    2.3923    3.9824 O.co2     1 <0>        -0.6153
     22 H4         -0.2655   -0.5622    2.6567 H         1 <0>         0.0543
     23 H5         -1.1314    0.9492    2.2905 H         1 <0>         0.0636
     24 H6         -2.0434   -0.5154    2.7283 H         1 <0>         0.0543
     25 H7         -2.1311   -0.1099    0.2836 H         1 <0>         0.0701
     26 H8         -1.2651   -1.6213    0.6498 H         1 <0>         0.0732
     27 H9          0.9018   -0.3580    0.5054 H         1 <0>         0.0636
     28 H10        -0.0796   -1.5937   -1.4496 H         1 <0>         0.0723
     29 H11        -0.8575   -0.0803   -1.9718 H         1 <0>         0.0693
     30 H12         2.1431   -0.5061   -1.6087 H         1 <0>         0.0542
     31 H13         1.2855   -0.4379   -3.1670 H         1 <0>         0.0557
     32 H14         1.3652    1.0073   -2.1309 H         1 <0>         0.0618
     33 H15         1.5857    1.4060    2.1154 H         1 <0>         0.1356
     34 H16         3.6525    4.8517    1.1914 H         1 <0>         0.1144
     35 H17         1.9271    5.2787    1.2077 H         1 <0>         0.0976
     36 H18         1.7443    3.1442   -2.7550 H         1 <0>         0.3955
     37 H19         0.4694    2.7891   -4.6121 H         1 <0>         0.0747
     38 H20        -0.9770    1.8183   -4.2467 H         1 <0>         0.1001
     39 H21        -1.1217    3.5765   -4.4835 H         1 <0>         0.0982
     40 H22         3.4365    5.8270   -1.1915 H         1 <0>         0.4425
     41 H23         2.4197    5.1066   -2.2929 H         1 <0>         0.4283
     42 N2          2.5504    5.3386   -1.3096 N.4       1 <0>        -0.6389
     43 H24         1.7860    5.9532   -1.0060 H         1 <0>         0.4402
     44 O4          3.4000    4.4340    3.7366 O.co2     1 <0>        -0.7535
@<TRIPOS>BOND
     1    1    2 1
     2    1   22 1
     3    1   23 1
     4    1   24 1
     5    2    3 1
     6    2   25 1
     7    2   26 1
     8    3    4 1
     9    3    6 1
    10    3   27 1
    11    4    5 1
    12    4   28 1
    13    4   29 1
    14    5   30 1
    15    5   31 1
    16    5   32 1
    17    6    7 1
    18    7    8 1
    19    7   14 1
    20    7    9 1
    21    9   10 2
    22    9   33 1
    23   10   11 1
    24   10   20 1
    25   11   12 1
    26   11   34 1
    27   11   35 1
    28   12   13 1
    29   12   14 1
    30   12   42 1
    31   14   15 1
    32   14   16 1
    33   16   17 am
    34   16   36 1
    35   17   18 2
    36   17   19 1
    37   19   37 1
    38   19   38 1
    39   19   39 1
    40   20   21 2
    41   20   44 1
    42   40   42 1
    43   41   42 1
    44   42   43 1
@<TRIPOS>MOLECULE
ZINC03870798
   36    36     0     0     0
SMALL
USER_CHARGES
5-acetylamino-4-hydroxy-6-(1,2,3-trihydroxypropyl)-5,6-dihydro-4H-pyran-2-carboxylic acid
@<TRIPOS>ATOM
      1 C1          4.4808    4.9487   -0.7350 C.3       1 <0>        -0.1683
      2 C2          3.2557    4.1220   -1.0295 C.2       1 <0>         0.5099
      3 O1          3.1797    3.4986   -2.0670 O.2       1 <0>        -0.5268
      4 N1          2.2443    4.0755   -0.1398 N.am      1 <0>        -0.7087
      5 C3          1.0533    3.2720   -0.4260 C.3       1 <0>         0.1270
      6 H1          0.8309    3.3103   -1.4924 H         1 <0>         0.1044
      7 C4          1.2952    1.8199   -0.0005 C.3       1 <0>         0.1436
      8 H2          1.7301    1.8017    0.9988 H         1 <0>         0.0528
      9 C5         -0.0126    1.0758    0.0080 C.2       1 <0>        -0.3108
     10 C6         -1.1814    1.6994    0.0170 C.2       1 <0>         0.0832
     11 O2         -1.2982    3.0495    0.0232 O.3       1 <0>        -0.2600
     12 C7         -0.1406    3.8139    0.3715 C.3       1 <0>         0.0553
     13 H3          0.0562    3.7167    1.4392 H         1 <0>         0.0723
     14 C8         -0.3698    5.2854    0.0207 C.3       1 <0>         0.0919
     15 H4         -0.5762    5.3768   -1.0457 H         1 <0>         0.1141
     16 C9         -1.5608    5.8204    0.8183 C.3       1 <0>         0.0822
     17 H5         -1.3544    5.7290    1.8847 H         1 <0>         0.1009
     18 C10        -1.7899    7.2919    0.4675 C.3       1 <0>         0.0473
     19 O3         -2.8259    7.8234    1.2959 O.3       1 <0>        -0.5629
     20 O4         -2.7297    5.0655    0.4930 O.3       1 <0>        -0.5122
     21 O5          0.7991    6.0403    0.3460 O.3       1 <0>        -0.5382
     22 C11        -2.4110    0.8876    0.0272 C.2       1 <0>         0.4994
     23 O6         -2.3383   -0.3254    0.0272 O.co2     1 <0>        -0.6163
     24 O7          2.1920    1.1965   -0.9220 O.3       1 <0>        -0.5411
     25 H6          5.2139    4.3372   -0.2089 H         1 <0>         0.0874
     26 H7          4.9108    5.3070   -1.6704 H         1 <0>         0.0881
     27 H8          4.2040    5.7998   -0.1129 H         1 <0>         0.0773
     28 H9          2.3051    4.5742    0.6900 H         1 <0>         0.3945
     29 H10         0.0021   -0.0041    0.0020 H         1 <0>         0.1369
     30 H11        -0.8696    7.8523    0.6321 H         1 <0>         0.0583
     31 H12        -2.0833    7.3745   -0.5791 H         1 <0>         0.0476
     32 H13        -3.0249    8.7547    1.1280 H         1 <0>         0.3753
     33 H14        -2.9733    5.1013   -0.4422 H         1 <0>         0.3762
     34 H15         1.0428    6.0045    1.2811 H         1 <0>         0.3722
     35 H16         2.3905    0.2732   -0.7142 H         1 <0>         0.3720
     36 O8         -3.6165    1.4904    0.0366 O.co2     1 <0>        -0.7246
@<TRIPOS>BOND
     1    1    2 1
     2    1   25 1
     3    1   26 1
     4    1   27 1
     5    2    3 2
     6    2    4 am
     7    4    5 1
     8    4   28 1
     9    5    6 1
    10    5   12 1
    11    5    7 1
    12    7    8 1
    13    7    9 1
    14    7   24 1
    15    9   10 2
    16    9   29 1
    17   10   11 1
    18   10   22 1
    19   11   12 1
    20   12   13 1
    21   12   14 1
    22   14   15 1
    23   14   16 1
    24   14   21 1
    25   16   17 1
    26   16   18 1
    27   16   20 1
    28   18   19 1
    29   18   30 1
    30   18   31 1
    31   19   32 1
    32   20   33 1
    33   21   34 1
    34   22   23 2
    35   22   36 1
    36   24   35 1
@<TRIPOS>MOLECULE
ZINC04096465
   36    36     0     0     0
SMALL
USER_CHARGES
5-acetylamino-4-hydroxy-6-(1,2,3-trihydroxypropyl)-5,6-dihydro-4H-pyran-2-carboxylic acid
@<TRIPOS>ATOM
      1 C1          7.0340    4.9939    1.3546 C.3       1 <0>        -0.1688
      2 C2          6.0364    5.4540    0.3231 C.2       1 <0>         0.5070
      3 O1          6.4185    5.8276   -0.7657 O.2       1 <0>        -0.5174
      4 N1          4.7197    5.4505    0.6105 N.am      1 <0>        -0.7274
      5 C3          3.7499    5.8978   -0.3923 C.3       1 <0>         0.1141
      6 H1          4.0953    5.6200   -1.3881 H         1 <0>         0.1103
      7 C4          3.5840    7.4189   -0.3095 C.3       1 <0>         0.1476
      8 H2          3.4577    7.7138    0.7322 H         1 <0>         0.0553
      9 C5          2.3729    7.8353   -1.0991 C.2       1 <0>        -0.3118
     10 C6          1.4301    6.9752   -1.4549 C.2       1 <0>         0.0855
     11 O2          1.4793    5.6564   -1.1473 O.3       1 <0>        -0.2670
     12 C7          2.3858    5.2500   -0.1183 C.3       1 <0>         0.0528
     13 H3          2.0116    5.5781    0.8515 H         1 <0>         0.0853
     14 C8          2.5273    3.7266   -0.1278 C.3       1 <0>         0.0970
     15 H4          3.1558    3.4149    0.7064 H         1 <0>         0.0709
     16 C9          1.1449    3.0852    0.0077 C.3       1 <0>         0.1138
     17 H5          0.5164    3.3969   -0.8265 H         1 <0>         0.1329
     18 C10         1.2864    1.5618   -0.0018 C.3       1 <0>         0.0517
     19 O3         -0.0110    0.9628    0.0073 O.3       1 <0>        -0.5607
     20 O4          0.5456    3.5002    1.2368 O.3       1 <0>        -0.5333
     21 O5          3.1266    3.3116   -1.3569 O.3       1 <0>        -0.5450
     22 C11         0.2751    7.4755   -2.2209 C.2       1 <0>         0.4995
     23 O6          0.2030    8.6532   -2.5117 O.co2     1 <0>        -0.6142
     24 O7          4.7452    8.0549   -0.8473 O.3       1 <0>        -0.5433
     25 H6          6.5080    4.6987    2.2625 H         1 <0>         0.0725
     26 H7          7.5928    4.1428    0.9654 H         1 <0>         0.0927
     27 H8          7.7229    5.8074    1.5821 H         1 <0>         0.0933
     28 H9          4.4141    5.1518    1.4813 H         1 <0>         0.3968
     29 H10         2.2682    8.8714   -1.3855 H         1 <0>         0.1384
     30 H11         1.8401    1.2428    0.8812 H         1 <0>         0.0414
     31 H12         1.8231    1.2523   -0.8987 H         1 <0>         0.0659
     32 H13         0.0021   -0.0041    0.0020 H         1 <0>         0.3750
     33 H14         1.0519    3.2558    2.0235 H         1 <0>         0.3627
     34 H15         4.0072    3.6809   -1.5095 H         1 <0>         0.3803
     35 H16         4.7095    9.0210   -0.8268 H         1 <0>         0.3741
     36 O8         -0.7014    6.6270   -2.5991 O.co2     1 <0>        -0.7280
@<TRIPOS>BOND
     1    1    2 1
     2    1   25 1
     3    1   26 1
     4    1   27 1
     5    2    3 2
     6    2    4 am
     7    4    5 1
     8    4   28 1
     9    5    6 1
    10    5   12 1
    11    5    7 1
    12    7    8 1
    13    7    9 1
    14    7   24 1
    15    9   10 2
    16    9   29 1
    17   10   11 1
    18   10   22 1
    19   11   12 1
    20   12   13 1
    21   12   14 1
    22   14   15 1
    23   14   16 1
    24   14   21 1
    25   16   17 1
    26   16   18 1
    27   16   20 1
    28   18   19 1
    29   18   30 1
    30   18   31 1
    31   19   32 1
    32   20   33 1
    33   21   34 1
    34   22   23 2
    35   22   36 1
    36   24   35 1
