@<TRIPOS>MOLECULE
ZINC02022527
   54    55     0     0     0
SMALL
USER_CHARGES

@<TRIPOS>ATOM
      1 C1         -3.0730    2.2881   -4.2693 C.3       1 <0>        -0.1569
      2 C2         -2.3049    1.5870   -3.1471 C.3       1 <0>        -0.1270
      3 C3         -2.8110    2.0874   -1.7927 C.3       1 <0>        -0.1231
      4 C4         -2.0429    1.3862   -0.6705 C.3       1 <0>        -0.1174
      5 C5         -2.5490    1.8867    0.6839 C.3       1 <0>        -0.1006
      6 C6         -2.2117    3.3722    0.8391 C.3       1 <0>        -0.1451
      7 C7         -2.6658    3.8518    2.2196 C.3       1 <0>        -0.0114
      8 C8         -2.3347    1.6429    3.1595 C.3       1 <0>        -0.0001
      9 C9         -1.8707    1.0973    1.8070 C.3       1 <0>        -0.1442
     10 C10        -2.2939    3.5901    4.5974 C.3       1 <0>        -0.0052
     11 C11        -2.1583    5.1140    4.5919 C.3       1 <0>        -0.1459
     12 C12        -2.4764    5.6593    5.9856 C.3       1 <0>        -0.1543
     13 C13        -2.3428    7.1604    5.9803 C.2       1 <0>         0.3987
     14 O1         -2.0245    7.7371    4.9623 O.2       1 <0>        -0.4456
     15 C14        -2.5986    7.9263    7.2106 C.ar      1 <0>        -0.1885
     16 C15        -3.0878    7.2813    8.3513 C.ar      1 <0>        -0.0705
     17 C16        -3.3195    8.0047    9.5018 C.ar      1 <0>        -0.1389
     18 C17        -3.0801    9.3679    9.5265 C.ar      1 <0>        -0.0729
     19 C18        -2.6016   10.0143    8.4004 C.ar      1 <0>        -0.1345
     20 C19        -2.3594    9.3036    7.2436 C.ar      1 <0>        -0.0178
     21 C20        -1.8387   10.0095    6.0182 C.3       1 <0>        -0.1264
     22 H1         -4.1363    2.0676   -4.1746 H         1 <0>         0.0549
     23 H2         -2.9175    3.3647   -4.1985 H         1 <0>         0.0540
     24 H3         -2.7125    1.9316   -5.2342 H         1 <0>         0.0581
     25 H4         -1.2417    1.8075   -3.2417 H         1 <0>         0.0621
     26 H5         -2.4605    0.5104   -3.2179 H         1 <0>         0.0631
     27 H6         -3.8743    1.8669   -1.6981 H         1 <0>         0.0644
     28 H7         -2.6555    3.1639   -1.7219 H         1 <0>         0.0632
     29 H8         -2.1984    0.3097   -0.7413 H         1 <0>         0.0733
     30 H9         -0.9796    1.6067   -0.7651 H         1 <0>         0.0688
     31 H10        -3.6287    1.7492    0.7427 H         1 <0>         0.0884
     32 H11        -1.1354    3.5132    0.7407 H         1 <0>         0.0881
     33 H12        -2.7264    3.9447    0.0675 H         1 <0>         0.1133
     34 H13        -3.7442    3.7233    2.3122 H         1 <0>         0.1295
     35 H14        -2.4142    4.9057    2.3388 H         1 <0>         0.1342
     36 H15        -3.4146    1.5248    3.2476 H         1 <0>         0.1293
     37 H16        -1.8426    1.0924    3.9613 H         1 <0>         0.1282
     38 H17        -2.1418    0.0446    1.7270 H         1 <0>         0.1118
     39 H18        -0.7890    1.2025    1.7239 H         1 <0>         0.0880
     40 H19        -3.3133    3.3170    4.8704 H         1 <0>         0.1315
     41 H20        -1.5979    3.1659    5.3211 H         1 <0>         0.1302
     42 H21        -1.1389    5.3871    4.3190 H         1 <0>         0.0944
     43 H22        -2.8542    5.5382    3.8682 H         1 <0>         0.0968
     44 H23        -3.4115    5.4088    6.2361 H         1 <0>         0.0981
     45 H24        -1.7805    5.2352    6.7093 H         1 <0>         0.1100
     46 H25        -3.2793    6.2186    8.3321 H         1 <0>         0.1290
     47 H26        -3.6933    7.5074   10.3846 H         1 <0>         0.1322
     48 H27        -3.2682    9.9300   10.4293 H         1 <0>         0.1326
     49 H28        -2.4176   11.0782    8.4274 H         1 <0>         0.1332
     50 H29        -2.6709   10.2515    5.3572 H         1 <0>         0.0784
     51 H30        -1.3321   10.9277    6.3156 H         1 <0>         0.0652
     52 H31        -1.1365    9.3600    5.4956 H         1 <0>         0.0893
     53 N1         -1.9588    3.0696    3.2558 N.4       1 <0>        -0.3931
     54 H32        -0.9467    3.1581    3.1071 H         1 <0>         0.4272
@<TRIPOS>BOND
     1    1    2 1
     2    1   22 1
     3    1   23 1
     4    1   24 1
     5    2    3 1
     6    2   25 1
     7    2   26 1
     8    3    4 1
     9    3   27 1
    10    3   28 1
    11    4    5 1
    12    4   29 1
    13    4   30 1
    14    5    9 1
    15    5    6 1
    16    5   31 1
    17    6    7 1
    18    6   32 1
    19    6   33 1
    20    7   34 1
    21    7   35 1
    22    7   53 1
    23    8    9 1
    24    8   36 1
    25    8   37 1
    26    8   53 1
    27    9   38 1
    28    9   39 1
    29   10   11 1
    30   10   40 1
    31   10   41 1
    32   10   53 1
    33   11   12 1
    34   11   42 1
    35   11   43 1
    36   12   13 1
    37   12   44 1
    38   12   45 1
    39   13   14 2
    40   13   15 1
    41   15   20 ar
    42   15   16 ar
    43   16   17 ar
    44   16   46 1
    45   17   18 ar
    46   17   47 1
    47   18   19 ar
    48   18   48 1
    49   19   20 ar
    50   19   49 1
    51   20   21 1
    52   21   50 1
    53   21   51 1
    54   21   52 1
    55   53   54 1
@<TRIPOS>MOLECULE
ZINC01482927
   72    78     0     0     0
SMALL
USER_CHARGES
2-[1-(7-chloro-4-quinolyl)-5-(2,6-dimethoxyphenyl)-pyrazol-3-yl]carbonylaminoadamantane-2-carboxylic acid
@<TRIPOS>ATOM
      1 C1         -6.8494   -1.7111   -3.6718 C.3       1 <0>         0.0282
      2 O1         -6.2059   -0.8923   -2.6933 O.3       1 <0>        -0.3038
      3 C2         -6.9242    0.1435   -2.1870 C.ar      1 <0>         0.1903
      4 C3         -8.2540    0.3051   -2.5402 C.ar      1 <0>        -0.2470
      5 C4         -8.9855    1.3618   -2.0302 C.ar      1 <0>        -0.0243
      6 C5         -8.3997    2.2633   -1.1606 C.ar      1 <0>        -0.2464
      7 C6         -7.0725    2.1143   -0.7923 C.ar      1 <0>         0.1987
      8 C7         -6.3246    1.0476   -1.3031 C.ar      1 <0>        -0.1134
      9 C8         -4.9079    0.8802   -0.9160 C.2       1 <0>         0.1476
     10 C9         -3.9254    1.8183   -1.0303 C.2       1 <0>        -0.1728
     11 C10        -2.7299    1.2501   -0.5494 C.2       1 <0>         0.0681
     12 N1         -2.9841    0.0136   -0.1652 N.2       1 <0>        -0.2489
     13 N2         -4.3440   -0.2450   -0.3784 N.pl3     1 <0>        -0.3229
     14 C11        -5.0056   -1.4397   -0.0972 C.ar      1 <0>         0.2491
     15 C12        -6.2012   -1.4466    0.6005 C.ar      1 <0>        -0.1821
     16 C13        -6.8369   -2.6537    0.8654 C.ar      1 <0>         0.1567
     17 N3         -6.3361   -3.8006    0.4715 N.ar      1 <0>        -0.4758
     18 C14        -5.1855   -3.8682   -0.2064 C.ar      1 <0>         0.1542
     19 C15        -4.4793   -2.6816   -0.5209 C.ar      1 <0>        -0.0925
     20 C16        -3.2699   -2.7589   -1.2267 C.ar      1 <0>        -0.0543
     21 C17        -2.7923   -3.9742   -1.6136 C.ar      1 <0>        -0.1186
     22 C18        -3.4875   -5.1443   -1.3109 C.ar      1 <0>        -0.0045
     23 C19        -4.6618   -5.1048   -0.6216 C.ar      1 <0>        -0.0930
     24 Cl1        -2.8471   -6.6752   -1.8209 Cl        1 <0>        -0.0621
     25 C20        -1.4151    1.9213   -0.4910 C.2       1 <0>         0.5948
     26 O2         -1.2997    3.0672   -0.8804 O.2       1 <0>        -0.5096
     27 N4         -0.3435    1.2633   -0.0060 N.am      1 <0>        -0.6781
     28 C21         0.9616    1.9269    0.0462 C.3       1 <0>         0.1493
     29 C22         1.3818    2.3377   -1.3664 C.3       1 <0>        -0.0753
     30 C23         2.7447    3.0307   -1.3118 C.3       1 <0>        -0.1293
     31 C24         3.7829    2.0690   -0.7303 C.3       1 <0>        -0.0821
     32 C25         3.8783    0.8251   -1.6161 C.3       1 <0>        -0.1046
     33 C26         2.5154    0.1321   -1.6707 C.3       1 <0>        -0.0822
     34 C27         1.4772    1.0938   -2.2522 C.3       1 <0>        -0.1064
     35 C28         2.0952   -0.2788   -0.2581 C.3       1 <0>        -0.1065
     36 C29         1.9998    0.9651    0.6277 C.3       1 <0>        -0.0765
     37 C30         3.3627    1.6581    0.6823 C.3       1 <0>        -0.1012
     38 C31         0.8676    3.1520    0.9187 C.2       1 <0>         0.4795
     39 O3          1.4312    4.1700    0.5934 O.co2     1 <0>        -0.6197
     40 O4         -6.4988    3.0012    0.0617 O.3       1 <0>        -0.2959
     41 C32        -7.3231    4.0648    0.5428 C.3       1 <0>         0.0250
     42 H1         -7.6997   -2.2198   -3.2176 H         1 <0>         0.0570
     43 H2         -7.1967   -1.0876   -4.4957 H         1 <0>         0.0604
     44 H3         -6.1426   -2.4504   -4.0487 H         1 <0>         0.1003
     45 H4         -8.7195   -0.3940   -3.2191 H         1 <0>         0.1334
     46 H5        -10.0206    1.4841   -2.3130 H         1 <0>         0.1316
     47 H6         -8.9785    3.0857   -0.7671 H         1 <0>         0.1367
     48 H7         -4.0429    2.8187   -1.4200 H         1 <0>         0.1638
     49 H8         -6.6382   -0.5181    0.9371 H         1 <0>         0.1422
     50 H9         -7.7692   -2.6474    1.4105 H         1 <0>         0.1685
     51 H10        -2.7229   -1.8592   -1.4667 H         1 <0>         0.1450
     52 H11        -1.8633   -4.0324   -2.1614 H         1 <0>         0.1404
     53 H12        -5.1885   -6.0200   -0.3952 H         1 <0>         0.1481
     54 H13        -0.4355    0.3490    0.3047 H         1 <0>         0.3939
     55 H14         0.6421    3.0229   -1.7806 H         1 <0>         0.0845
     56 H15         2.6768    3.9169   -0.6808 H         1 <0>         0.1233
     57 H16         3.0441    3.3234   -2.3182 H         1 <0>         0.0416
     58 H17         4.7539    2.5626   -0.6914 H         1 <0>         0.0616
     59 H18         4.6180    0.1399   -1.2018 H         1 <0>         0.0531
     60 H19         4.1777    1.1178   -2.6225 H         1 <0>         0.0552
     61 H20         2.5833   -0.7541   -2.3017 H         1 <0>         0.0597
     62 H21         1.7765    1.3866   -3.2585 H         1 <0>         0.0538
     63 H22         0.5062    0.6002   -2.2911 H         1 <0>         0.0520
     64 H23         2.8348   -0.9639    0.1562 H         1 <0>         0.0596
     65 H24         1.1242   -0.7725   -0.2970 H         1 <0>         0.0563
     66 H25         1.7004    0.6724    1.6341 H         1 <0>         0.0738
     67 H26         3.2948    2.5442    1.3133 H         1 <0>         0.0726
     68 H27         4.1024    0.9729    1.0966 H         1 <0>         0.0550
     69 H28        -8.1751    3.6492    1.0808 H         1 <0>         0.0576
     70 H29        -6.7436    4.6986    1.2140 H         1 <0>         0.1071
     71 H30        -7.6795    4.6578   -0.2995 H         1 <0>         0.0598
     72 O5          0.1577    3.1123    2.0572 O.co2     1 <0>        -0.7595
@<TRIPOS>BOND
     1    1    2 1
     2    1   42 1
     3    1   43 1
     4    1   44 1
     5    2    3 1
     6    3    8 ar
     7    3    4 ar
     8    4    5 ar
     9    4   45 1
    10    5    6 ar
    11    5   46 1
    12    6    7 ar
    13    6   47 1
    14    7    8 ar
    15    7   40 1
    16    8    9 1
    17    9   13 1
    18    9   10 2
    19   10   11 1
    20   10   48 1
    21   11   12 2
    22   11   25 1
    23   12   13 1
    24   13   14 1
    25   14   19 ar
    26   14   15 ar
    27   15   16 ar
    28   15   49 1
    29   16   17 ar
    30   16   50 1
    31   17   18 ar
    32   18   23 ar
    33   18   19 ar
    34   19   20 ar
    35   20   21 ar
    36   20   51 1
    37   21   22 ar
    38   21   52 1
    39   22   23 ar
    40   22   24 1
    41   23   53 1
    42   25   26 2
    43   25   27 am
    44   27   28 1
    45   27   54 1
    46   28   36 1
    47   28   29 1
    48   28   38 1
    49   29   34 1
    50   29   30 1
    51   29   55 1
    52   30   31 1
    53   30   56 1
    54   30   57 1
    55   31   37 1
    56   31   32 1
    57   31   58 1
    58   32   33 1
    59   32   59 1
    60   32   60 1
    61   33   34 1
    62   33   35 1
    63   33   61 1
    64   34   62 1
    65   34   63 1
    66   35   36 1
    67   35   64 1
    68   35   65 1
    69   36   37 1
    70   36   66 1
    71   37   67 1
    72   37   68 1
    73   38   39 2
    74   38   72 1
    75   40   41 1
    76   41   69 1
    77   41   70 1
    78   41   71 1
