@<TRIPOS>MOLECULE
ZINC24044436
   76    80     0     0     0
SMALL
USER_CHARGES
1-[5-tert-butyl-2-(p-tolyl)pyrazol-3-yl]-3-[4-(2-morpholinoethoxy)-1-naphthyl]urea
@<TRIPOS>ATOM
      1 C1          3.3307    9.5387   -0.3298 C.3       1 <0>        -0.1193
      2 C2          2.0898    8.6848   -0.2813 C.ar      1 <0>        -0.0892
      3 C3          0.9612    9.0673   -0.9828 C.ar      1 <0>        -0.0934
      4 C4         -0.1775    8.2868   -0.9403 C.ar      1 <0>        -0.1062
      5 C5         -0.1884    7.1174   -0.1919 C.ar      1 <0>         0.1564
      6 C6          0.9444    6.7392    0.5163 C.ar      1 <0>        -0.1500
      7 C7          2.0821    7.5207    0.4649 C.ar      1 <0>        -0.0924
      8 N1         -1.3424    6.3233   -0.1469 N.pl3     1 <0>        -0.3448
      9 C8         -1.3788    4.9645   -0.0790 C.2       1 <0>         0.3309
     10 C9         -2.6878    4.5925   -0.0483 C.2       1 <0>        -0.2629
     11 C10        -3.4651    5.7529   -0.1047 C.2       1 <0>         0.1115
     12 N2         -2.6643    6.7861   -0.1672 N.2       1 <0>        -0.2779
     13 C11        -4.9712    5.8052   -0.0954 C.3       1 <0>         0.0134
     14 C12        -5.4824    5.5257    1.3193 C.3       1 <0>        -0.1388
     15 C13        -5.4360    7.1933   -0.5406 C.3       1 <0>        -0.1390
     16 C14        -5.5242    4.7499   -1.0553 C.3       1 <0>        -0.1399
     17 N3         -0.2771    4.1104   -0.0417 N.am      1 <0>        -0.6731
     18 C15        -0.4603    2.7771    0.0314 C.2       1 <0>         0.7165
     19 O1         -1.5862    2.3190    0.0649 O.2       1 <0>        -0.5445
     20 N4          0.6045    1.9516    0.0675 N.am      1 <0>        -0.6819
     21 C16         0.4162    0.5655    0.0407 C.ar      1 <0>         0.1254
     22 C17        -0.6813    0.0024    0.6542 C.ar      1 <0>        -0.0743
     23 C18        -0.8835   -1.3742    0.6299 C.ar      1 <0>        -0.2061
     24 C19         0.0048   -2.2051    0.0082 C.ar      1 <0>         0.1395
     25 C20         1.1426   -1.6672   -0.6254 C.ar      1 <0>        -0.0565
     26 C21         1.3517   -0.2661   -0.6096 C.ar      1 <0>        -0.0251
     27 C22         2.4862    0.2686   -1.2409 C.ar      1 <0>        -0.1232
     28 C23         3.3687   -0.5639   -1.8588 C.ar      1 <0>        -0.0971
     29 C24         3.1636   -1.9422   -1.8742 C.ar      1 <0>        -0.1313
     30 C25         2.0750   -2.4951   -1.2724 C.ar      1 <0>        -0.0739
     31 O2         -0.2080   -3.5475    0.0012 O.3       1 <0>        -0.2916
     32 C26        -1.3823   -4.0216    0.6634 C.3       1 <0>         0.0605
     33 C27        -1.4510   -5.5459    0.5508 C.3       1 <0>         0.0539
     34 N5         -0.3065   -6.1409    1.2538 N.3       1 <0>        -0.5287
     35 C28        -0.1978   -7.5776    0.9617 C.3       1 <0>         0.0167
     36 C29         1.0390   -8.1436    1.6645 C.3       1 <0>         0.0615
     37 O3          0.9456   -7.8818    3.0674 O.3       1 <0>        -0.3849
     38 C30         0.8389   -6.4921    3.3879 C.3       1 <0>         0.0625
     39 C31        -0.3999   -5.9094    2.7026 C.3       1 <0>         0.0120
     40 H1          3.1476   10.4156   -0.9682 H         1 <0>         0.0687
     41 H2          4.1639    8.9515   -0.7434 H         1 <0>         0.0732
     42 H3          3.5863    9.8722    0.6868 H         1 <0>         0.0734
     43 H4          0.9703    9.9770   -1.5648 H         1 <0>         0.1335
     44 H5         -1.0587    8.5861   -1.4884 H         1 <0>         0.1355
     45 H6          0.9374    5.8324    1.1029 H         1 <0>         0.1262
     46 H7          2.9651    7.2245    1.0118 H         1 <0>         0.1343
     47 H8         -3.0598    3.5802    0.0092 H         1 <0>         0.1784
     48 H9         -6.5817    5.5639    1.3261 H         1 <0>         0.0656
     49 H10        -5.0849    6.2845    2.0094 H         1 <0>         0.0565
     50 H11        -5.1481    4.5278    1.6395 H         1 <0>         0.0614
     51 H12        -6.5353    7.2315   -0.5338 H         1 <0>         0.0604
     52 H13        -5.0684    7.3943   -1.5577 H         1 <0>         0.0568
     53 H14        -5.0385    7.9519    0.1496 H         1 <0>         0.0614
     54 H15        -6.6235    4.7882   -1.0484 H         1 <0>         0.0647
     55 H16        -5.1900    3.7520   -0.7351 H         1 <0>         0.0637
     56 H17        -5.1566    4.9509   -2.0724 H         1 <0>         0.0570
     57 H18         0.7414    4.5248   -0.0719 H         1 <0>         0.4294
     58 H19         1.6215    2.3677    0.1180 H         1 <0>         0.4280
     59 H20        -1.3959    0.6376    1.1566 H         1 <0>         0.1450
     60 H21        -1.7537   -1.7925    1.1139 H         1 <0>         0.1296
     61 H22         2.6580    1.3348   -1.2361 H         1 <0>         0.1222
     62 H23         4.2405   -0.1501   -2.3437 H         1 <0>         0.1243
     63 H24         3.8790   -2.5810   -2.3706 H         1 <0>         0.1250
     64 H25         1.9286   -3.5650   -1.2926 H         1 <0>         0.1353
     65 H26        -1.3465   -3.7335    1.7244 H         1 <0>         0.0659
     66 H27        -2.2726   -3.5787    0.1931 H         1 <0>         0.0716
     67 H28        -2.3868   -5.9052    1.0039 H         1 <0>         0.0605
     68 H29        -1.4216   -5.8370   -0.5096 H         1 <0>         0.0912
     69 H30        -1.0977   -8.0949    1.3258 H         1 <0>         0.0437
     70 H31        -0.1044   -7.7249   -0.1244 H         1 <0>         0.0891
     71 H32         1.0925   -9.2291    1.4949 H         1 <0>         0.1001
     72 H33         1.9424   -7.6643    1.2595 H         1 <0>         0.0618
     73 H34         0.7475   -6.3731    4.4776 H         1 <0>         0.0994
     74 H35         1.7375   -5.9645    3.0355 H         1 <0>         0.0616
     75 H36        -0.4553   -4.8284    2.8983 H         1 <0>         0.0869
     76 H37        -1.3031   -6.3997    3.0948 H         1 <0>         0.0443
@<TRIPOS>BOND
     1    1    2 1
     2    1   40 1
     3    1   41 1
     4    1   42 1
     5    2    7 ar
     6    2    3 ar
     7    3    4 ar
     8    3   43 1
     9    4    5 ar
    10    4   44 1
    11    5    6 ar
    12    5    8 1
    13    6    7 ar
    14    6   45 1
    15    7   46 1
    16    8   12 1
    17    8    9 1
    18    9   10 2
    19    9   17 1
    20   10   11 1
    21   10   47 1
    22   11   12 2
    23   11   13 1
    24   13   14 1
    25   13   15 1
    26   13   16 1
    27   14   48 1
    28   14   49 1
    29   14   50 1
    30   15   51 1
    31   15   52 1
    32   15   53 1
    33   16   54 1
    34   16   55 1
    35   16   56 1
    36   17   18 am
    37   17   57 1
    38   18   19 2
    39   18   20 am
    40   20   21 1
    41   20   58 1
    42   21   26 ar
    43   21   22 ar
    44   22   23 ar
    45   22   59 1
    46   23   24 ar
    47   23   60 1
    48   24   25 ar
    49   24   31 1
    50   25   30 ar
    51   25   26 ar
    52   26   27 ar
    53   27   28 ar
    54   27   61 1
    55   28   29 ar
    56   28   62 1
    57   29   30 ar
    58   29   63 1
    59   30   64 1
    60   31   32 1
    61   32   33 1
    62   32   65 1
    63   32   66 1
    64   33   34 1
    65   33   67 1
    66   33   68 1
    67   34   39 1
    68   34   35 1
    69   35   36 1
    70   35   69 1
    71   35   70 1
    72   36   37 1
    73   36   71 1
    74   36   72 1
    75   37   38 1
    76   38   39 1
    77   38   73 1
    78   38   74 1
    79   39   75 1
    80   39   76 1
@<TRIPOS>MOLECULE
ZINC58631551
   38    40     0     0     0
SMALL
USER_CHARGES

@<TRIPOS>ATOM
      1 C1         -0.0184    1.5028    0.0103 C.3       1 <0>        -0.0741
      2 C2          0.0021   -0.0041    0.0020 C.2       1 <0>         0.0868
      3 C3          0.0080   -0.8148   -1.1361 C.2       1 <0>        -0.2704
      4 C4          0.0283   -2.1125   -0.7242 C.2       1 <0>         0.3120
      5 N1          0.0349   -2.1091    0.6338 N.pl3     1 <0>        -0.4958
      6 H1          0.0487   -2.8914    1.2071 H         1 <0>         0.4354
      7 N2          0.0230   -0.7746    1.0591 N.2       1 <0>        -0.2858
      8 N3          0.0394   -3.2378   -1.5456 N.pl3     1 <0>        -0.6217
      9 C5          0.0298   -3.0899   -2.9246 C.ar      1 <0>         0.4936
     10 C6          0.0351   -4.2117   -3.7582 C.ar      1 <0>        -0.2532
     11 C7          0.0252   -4.0159   -5.1259 C.ar      1 <0>         0.2431
     12 N4          0.0110   -2.7797   -5.6037 N.ar      1 <0>        -0.5797
     13 C8          0.0064   -1.7350   -4.7896 C.ar      1 <0>         0.6095
     14 N5          0.0100   -1.8793   -3.4729 N.ar      1 <0>        -0.5867
     15 N6         -0.0080   -0.4597   -5.3285 N.pl3     1 <0>        -0.6801
     16 C9         -0.0178   -0.2789   -6.7823 C.3       1 <0>         0.2337
     17 H2          0.5760   -1.0641   -7.2501 H         1 <0>         0.1249
     18 C10        -1.4571   -0.3534   -7.2958 C.3       1 <0>        -0.1578
     19 C11         0.5688    1.0663   -7.1252 C.ar      1 <0>         0.2983
     20 N7          0.1994    2.1226   -6.4292 N.ar      1 <0>        -0.4844
     21 C12         0.6928    3.3201   -6.7002 C.ar      1 <0>         0.1324
     22 C13         1.6106    3.4535   -7.7331 C.ar      1 <0>        -0.0007
     23 C14         1.9743    2.3171   -8.4426 C.ar      1 <0>         0.1321
     24 N8          1.4411    1.1529   -8.1092 N.ar      1 <0>        -0.4782
     25 F1          2.1365    4.6594   -8.0405 F         1 <0>        -0.1143
     26 Cl1         0.0542   -5.8140   -3.0905 Cl        1 <0>        -0.0482
     27 H3          1.0042    1.8801    0.0026 H         1 <0>         0.0774
     28 H4         -0.5455    1.8639   -0.8728 H         1 <0>         0.0795
     29 H5         -0.5286    1.8543    0.9071 H         1 <0>         0.0730
     30 H6         -0.0022   -0.4728   -2.1605 H         1 <0>         0.1820
     31 H7          0.0539   -4.1247   -1.1531 H         1 <0>         0.4249
     32 H8          0.0292   -4.8611   -5.7983 H         1 <0>         0.1817
     33 H9         -0.0115    0.3141   -4.7435 H         1 <0>         0.4227
     34 H10        -2.0509    0.4319   -6.8279 H         1 <0>         0.0662
     35 H11        -1.4644   -0.2189   -8.3774 H         1 <0>         0.0715
     36 H12        -1.8814   -1.3263   -7.0478 H         1 <0>         0.0782
     37 H13         0.3855    4.1817   -6.1261 H         1 <0>         0.1860
     38 H14         2.6853    2.3817   -9.2530 H         1 <0>         0.1860
@<TRIPOS>BOND
     1    1    2 1
     2    1   27 1
     3    1   28 1
     4    1   29 1
     5    2    7 2
     6    2    3 1
     7    3    4 2
     8    3   30 1
     9    4    5 1
    10    4    8 1
    11    5    6 1
    12    5    7 1
    13    8    9 1
    14    8   31 1
    15    9   14 ar
    16    9   10 ar
    17   10   11 ar
    18   10   26 1
    19   11   12 ar
    20   11   32 1
    21   12   13 ar
    22   13   14 ar
    23   13   15 1
    24   15   16 1
    25   15   33 1
    26   16   17 1
    27   16   18 1
    28   16   19 1
    29   18   34 1
    30   18   35 1
    31   18   36 1
    32   19   24 ar
    33   19   20 ar
    34   20   21 ar
    35   21   22 ar
    36   21   37 1
    37   22   23 ar
    38   22   25 1
    39   23   24 ar
    40   23   38 1
@<TRIPOS>MOLECULE
ZINC03966243
   84    88     0     0     0
SMALL
USER_CHARGES
N-(4-isopropoxyphenyl)-4-[6-methoxy-7-[3-(1-piperidyl)propoxy]quinazolin-4-yl]-piperazine-1-carboxamide
@<TRIPOS>ATOM
      1 C1          6.7701    4.5264   -1.2575 C.3       1 <0>        -0.1499
      2 C2          6.4967    3.0958   -0.7889 C.3       1 <0>         0.0769
      3 C3          7.4744    2.7298    0.3295 C.3       1 <0>        -0.1825
      4 O1          5.1571    3.0025   -0.3001 O.3       1 <0>        -0.3102
      5 C4          4.5717    1.7757   -0.3338 C.ar      1 <0>         0.1230
      6 C5          5.3083    0.6665   -0.7228 C.ar      1 <0>        -0.1923
      7 C6          4.7144   -0.5798   -0.7568 C.ar      1 <0>        -0.0743
      8 C7          3.3799   -0.7224   -0.4016 C.ar      1 <0>         0.1159
      9 C8          2.6432    0.3881   -0.0124 C.ar      1 <0>        -0.1027
     10 C9          3.2383    1.6338    0.0213 C.ar      1 <0>        -0.1355
     11 N1          2.7765   -1.9869   -0.4364 N.am      1 <0>        -0.6831
     12 C10         3.4836   -3.0808   -0.0903 C.2       1 <0>         0.7095
     13 O2          4.6669   -2.9820    0.1717 O.2       1 <0>        -0.5659
     14 N2          2.8793   -4.2842   -0.0346 N.am      1 <0>        -0.6302
     15 C11         1.4784   -4.4454   -0.4527 C.3       1 <0>         0.1163
     16 C12         1.4049   -5.6100   -1.4530 C.3       1 <0>         0.0464
     17 N3          2.0146   -6.8039   -0.8522 N.pl3     1 <0>        -0.4805
     18 C13         3.4424   -6.5929   -0.5788 C.3       1 <0>         0.0482
     19 C14         3.6012   -5.4698    0.4515 C.3       1 <0>         0.1328
     20 C15         1.8226   -7.9122   -1.6510 C.ar      1 <0>         0.3962
     21 C16         0.6195   -8.6545   -1.5866 C.ar      1 <0>        -0.1386
     22 C17        -0.4268   -8.2967   -0.7272 C.ar      1 <0>        -0.1287
     23 C18        -1.5707   -9.0425   -0.7073 C.ar      1 <0>         0.1093
     24 C19        -1.7117  -10.1606   -1.5416 C.ar      1 <0>         0.1588
     25 C20        -0.6998  -10.5302   -2.3993 C.ar      1 <0>        -0.1794
     26 C21         0.4818   -9.7794   -2.4366 C.ar      1 <0>         0.1794
     27 N4          1.4973  -10.0975   -3.2547 N.ar      1 <0>        -0.5194
     28 C22         2.5920   -9.3751   -3.2679 C.ar      1 <0>         0.3256
     29 N5          2.7631   -8.3137   -2.4959 N.ar      1 <0>        -0.5577
     30 O3         -2.8592  -10.8868   -1.5038 O.3       1 <0>        -0.2941
     31 C23        -2.9427  -12.0141   -2.3780 C.3       1 <0>         0.0564
     32 C24        -4.2971  -12.7020   -2.1952 C.3       1 <0>        -0.1506
     33 C25        -4.3865  -13.9090   -3.1312 C.3       1 <0>        -0.0020
     34 C26        -5.8040  -15.1525   -1.6130 C.3       1 <0>        -0.0079
     35 C27        -7.2186  -15.7022   -1.4158 C.3       1 <0>        -0.1471
     36 C28        -7.5007  -16.7656   -2.4807 C.3       1 <0>        -0.1398
     37 C29        -7.3247  -16.1452   -3.8695 C.3       1 <0>        -0.1477
     38 C30        -5.9070  -15.5827   -3.9956 C.3       1 <0>        -0.0015
     39 O4         -2.5839   -8.6973    0.1313 O.3       1 <0>        -0.3038
     40 C31        -2.3802   -7.5484    0.9564 C.3       1 <0>         0.0216
     41 H1          6.6397    5.2137   -0.4216 H         1 <0>         0.0680
     42 H2          7.7918    4.5976   -1.6304 H         1 <0>         0.0781
     43 H3          6.0735    4.7871   -2.0543 H         1 <0>         0.0652
     44 H4          6.6271    2.4085   -1.6248 H         1 <0>         0.0735
     45 H5          7.2796    1.7107    0.6634 H         1 <0>         0.0633
     46 H6          8.4962    2.8010   -0.0433 H         1 <0>         0.0733
     47 H7          7.3440    3.4171    1.1654 H         1 <0>         0.0686
     48 H8          6.3476    0.7769   -0.9947 H         1 <0>         0.1332
     49 H9          5.2879   -1.4432   -1.0601 H         1 <0>         0.1408
     50 H10         1.6050    0.2778    0.2637 H         1 <0>         0.1308
     51 H11         2.6653    2.4978    0.3240 H         1 <0>         0.1354
     52 H12         1.8499   -2.0748   -0.7096 H         1 <0>         0.4030
     53 H13         0.8598   -4.6663    0.4171 H         1 <0>         0.0856
     54 H14         1.1308   -3.5290   -0.9296 H         1 <0>         0.0889
     55 H15         1.9431   -5.3458   -2.3633 H         1 <0>         0.0616
     56 H16         0.3620   -5.8162   -1.6938 H         1 <0>         0.0941
     57 H17         3.9521   -6.3150   -1.5013 H         1 <0>         0.0689
     58 H18         3.8770   -7.5117   -0.1852 H         1 <0>         0.0954
     59 H19         4.6578   -5.2309    0.5728 H         1 <0>         0.1082
     60 H20         3.1850   -5.7851    1.4083 H         1 <0>         0.0782
     61 H21        -0.3280   -7.4373   -0.0806 H         1 <0>         0.1573
     62 H22        -0.8167  -11.3925   -3.0389 H         1 <0>         0.1519
     63 H23         3.3895   -9.6593   -3.9384 H         1 <0>         0.1992
     64 H24        -2.8407  -11.6812   -3.4109 H         1 <0>         0.0778
     65 H25        -2.1435  -12.7168   -2.1421 H         1 <0>         0.0777
     66 H26        -4.3991  -13.0349   -1.1623 H         1 <0>         0.1002
     67 H27        -5.0963  -11.9993   -2.4311 H         1 <0>         0.1003
     68 H28        -4.2845  -13.5761   -4.1641 H         1 <0>         0.1340
     69 H29        -3.5873  -14.6117   -2.8953 H         1 <0>         0.1355
     70 H30        -5.0816  -15.9614   -1.5040 H         1 <0>         0.1310
     71 H31        -5.6051  -14.3849   -0.8651 H         1 <0>         0.1299
     72 H32        -7.9407  -14.8913   -1.5110 H         1 <0>         0.0877
     73 H33        -7.3012  -16.1486   -0.4248 H         1 <0>         0.1122
     74 H34        -8.5225  -17.1289   -2.3709 H         1 <0>         0.0942
     75 H35        -6.8042  -17.5956   -2.3615 H         1 <0>         0.0818
     76 H36        -8.0484  -15.3413   -4.0033 H         1 <0>         0.0877
     77 H37        -7.4825  -16.9083   -4.6316 H         1 <0>         0.1125
     78 H38        -5.7830  -15.1275   -4.9782 H         1 <0>         0.1289
     79 H39        -5.1842  -16.3896   -3.8752 H         1 <0>         0.1307
     80 H40        -3.2625   -7.3845    1.5752 H         1 <0>         0.1075
     81 H41        -1.5126   -7.7098    1.5962 H         1 <0>         0.0622
     82 H42        -2.2103   -6.6748    0.3272 H         1 <0>         0.0599
     83 N6         -5.7075  -14.5479   -2.9586 N.4       1 <0>        -0.3926
     84 H43        -6.4386  -13.8336   -3.0559 H         1 <0>         0.4277
@<TRIPOS>BOND
     1    1    2 1
     2    1   41 1
     3    1   42 1
     4    1   43 1
     5    2    3 1
     6    2    4 1
     7    2   44 1
     8    3   45 1
     9    3   46 1
    10    3   47 1
    11    4    5 1
    12    5   10 ar
    13    5    6 ar
    14    6    7 ar
    15    6   48 1
    16    7    8 ar
    17    7   49 1
    18    8    9 ar
    19    8   11 1
    20    9   10 ar
    21    9   50 1
    22   10   51 1
    23   11   12 am
    24   11   52 1
    25   12   13 2
    26   12   14 am
    27   14   19 1
    28   14   15 1
    29   15   16 1
    30   15   53 1
    31   15   54 1
    32   16   17 1
    33   16   55 1
    34   16   56 1
    35   17   18 1
    36   17   20 1
    37   18   19 1
    38   18   57 1
    39   18   58 1
    40   19   59 1
    41   19   60 1
    42   20   29 ar
    43   20   21 ar
    44   21   26 ar
    45   21   22 ar
    46   22   23 ar
    47   22   61 1
    48   23   24 ar
    49   23   39 1
    50   24   25 ar
    51   24   30 1
    52   25   26 ar
    53   25   62 1
    54   26   27 ar
    55   27   28 ar
    56   28   29 ar
    57   28   63 1
    58   30   31 1
    59   31   32 1
    60   31   64 1
    61   31   65 1
    62   32   33 1
    63   32   66 1
    64   32   67 1
    65   33   68 1
    66   33   69 1
    67   33   83 1
    68   34   35 1
    69   34   70 1
    70   34   71 1
    71   34   83 1
    72   35   36 1
    73   35   72 1
    74   35   73 1
    75   36   37 1
    76   36   74 1
    77   36   75 1
    78   37   38 1
    79   37   76 1
    80   37   77 1
    81   38   78 1
    82   38   79 1
    83   38   83 1
    84   39   40 1
    85   40   80 1
    86   40   81 1
    87   40   82 1
    88   83   84 1
@<TRIPOS>MOLECULE
ZINC20149036
   46    50     0     0     0
SMALL
USER_CHARGES

@<TRIPOS>ATOM
      1 C1         -0.0167    1.3788    0.0096 C.ar      1 <0>        -0.0397
      2 C2          1.1946    2.0581    0.0017 C.ar      1 <0>        -0.2015
      3 C3          2.3728    1.3394   -0.0134 C.ar      1 <0>         0.1467
      4 N1          2.3606    0.0197   -0.0204 N.ar      1 <0>        -0.5267
      5 C4          1.2269   -0.6641   -0.0132 C.ar      1 <0>         0.3792
      6 C5          0.0021   -0.0041    0.0020 C.ar      1 <0>        -0.1980
      7 N2          1.2605   -2.0537   -0.0210 N.pl3     1 <0>        -1.0350
      8 S1          2.7142   -2.8466   -0.0391 S.o2      1 <0>         2.6953
      9 O1          2.4190   -4.2364   -0.0167 O.2       1 <0>        -0.9521
     10 O2          3.4899   -2.2491   -1.0689 O.2       1 <0>        -0.9261
     11 C6          3.5267   -2.4798    1.4807 C.ar      1 <0>        -0.7002
     12 C7          4.3558   -1.3766    1.5710 C.ar      1 <0>         0.0443
     13 C8          4.9945   -1.0865    2.7605 C.ar      1 <0>        -0.1824
     14 C9          4.8031   -1.9040    3.8673 C.ar      1 <0>         0.2126
     15 C10         3.9692   -3.0111    3.7732 C.ar      1 <0>        -0.1953
     16 C11         3.3295   -3.2925    2.5821 C.ar      1 <0>         0.0197
     17 N3          5.4482   -1.6136    5.0723 N.pl3     1 <0>        -0.6271
     18 C12         5.2595   -2.4161    6.1565 C.2       1 <0>         0.2554
     19 C13         5.8897   -2.1324    7.3338 C.2       1 <0>        -0.2847
     20 C14         5.8079   -2.8909    8.6045 C.ar      1 <0>        -0.0205
     21 C15         6.6255   -2.2129    9.5174 C.ar      1 <0>         0.1568
     22 C16         6.7394   -2.7115   10.8156 C.ar      1 <0>        -0.1136
     23 C17         6.0798   -3.8325   11.2108 C.ar      1 <0>        -0.0301
     24 C18         5.2468   -4.5428   10.3178 C.ar      1 <0>         0.0608
     25 C19         5.1365   -4.0308    9.0074 C.ar      1 <0>        -0.1244
     26 S2          4.0294   -5.1909    8.2496 S.3       1 <0>         0.0729
     27 C20         3.7928   -6.1942    9.5801 C.2       1 <0>         0.0769
     28 N4          4.5185   -5.6612   10.5190 N.2       1 <0>        -0.4987
     29 N5          7.1905   -1.1079    8.8930 N.am      1 <0>        -0.6412
     30 C21         6.7986   -1.0149    7.6113 C.2       1 <0>         0.5680
     31 O3          7.1365   -0.1525    6.8194 O.2       1 <0>        -0.5274
     32 H1         -0.9522    1.9182    0.0259 H         1 <0>         0.1408
     33 H2          1.2145    3.1379    0.0070 H         1 <0>         0.1401
     34 H3          3.3170    1.8637   -0.0200 H         1 <0>         0.1659
     35 H4         -0.9214   -0.5640    0.0078 H         1 <0>         0.1397
     36 H5          0.4325   -2.5589   -0.0158 H         1 <0>         0.4355
     37 H6          4.5041   -0.7415    0.7101 H         1 <0>         0.1599
     38 H7          5.6424   -0.2252    2.8301 H         1 <0>         0.1403
     39 H8          3.8182   -3.6487    4.6317 H         1 <0>         0.1376
     40 H9          2.6779   -4.1507    2.5094 H         1 <0>         0.1471
     41 H10         6.0305   -0.8404    5.1367 H         1 <0>         0.4318
     42 H11         4.6112   -3.2769    6.0848 H         1 <0>         0.1664
     43 H12         7.3682   -2.1936   11.5247 H         1 <0>         0.1414
     44 H13         6.1947   -4.1863   12.2247 H         1 <0>         0.1439
     45 H14         3.1788   -7.0807    9.6403 H         1 <0>         0.2249
     46 H15         7.7946   -0.4848    9.3263 H         1 <0>         0.4212
@<TRIPOS>BOND
     1    1    6 ar
     2    1    2 ar
     3    1   32 1
     4    2    3 ar
     5    2   33 1
     6    3    4 ar
     7    3   34 1
     8    4    5 ar
     9    5    6 ar
    10    5    7 1
    11    6   35 1
    12    7    8 1
    13    7   36 1
    14    8    9 2
    15    8   10 2
    16    8   11 1
    17   11   16 ar
    18   11   12 ar
    19   12   13 ar
    20   12   37 1
    21   13   14 ar
    22   13   38 1
    23   14   15 ar
    24   14   17 1
    25   15   16 ar
    26   15   39 1
    27   16   40 1
    28   17   18 1
    29   17   41 1
    30   18   19 2
    31   18   42 1
    32   19   30 1
    33   19   20 1
    34   20   25 ar
    35   20   21 ar
    36   21   22 ar
    37   21   29 1
    38   22   23 ar
    39   22   43 1
    40   23   24 ar
    41   23   44 1
    42   24   28 1
    43   24   25 ar
    44   25   26 1
    45   26   27 1
    46   27   28 2
    47   27   45 1
    48   29   30 am
    49   29   46 1
    50   30   31 2
@<TRIPOS>MOLECULE
ZINC20149036
   44    48     0     0     0
SMALL
USER_CHARGES

@<TRIPOS>ATOM
      1 C1         -0.0167    1.3788    0.0096 C.ar      1 <0>        -0.0531
      2 C2          1.1946    2.0581    0.0017 C.ar      1 <0>        -0.2961
      3 C3          2.3728    1.3394   -0.0134 C.ar      1 <0>         0.1474
      4 N1          2.3606    0.0197   -0.0204 N.ar      1 <0>        -0.5987
      5 C4          1.2269   -0.6641   -0.0132 C.ar      1 <0>         0.4429
      6 C5          0.0021   -0.0041    0.0020 C.ar      1 <0>        -0.2213
      7 N2          1.2605   -2.0537   -0.0210 N.2       1 <0>        -1.0739
      8 S1          2.7142   -2.8466   -0.0391 S.o2      1 <0>         2.6379
      9 O1          3.3226   -2.5509   -1.2888 O.2       1 <0>        -1.0292
     10 O2          3.3464   -2.5642    1.2018 O.2       1 <0>        -1.0289
     11 C6          2.3654   -4.5738   -0.0451 C.ar      1 <0>        -0.6637
     12 C7          2.2349   -5.2540    1.1528 C.ar      1 <0>        -0.0078
     13 C8          1.9615   -6.6059    1.1558 C.ar      1 <0>        -0.1579
     14 C9          1.8164   -7.2883   -0.0544 C.ar      1 <0>         0.1739
     15 C10         1.9494   -6.5952   -1.2599 C.ar      1 <0>        -0.2080
     16 C11         2.2177   -5.2423   -1.2476 C.ar      1 <0>        -0.0028
     17 N3          1.5456   -8.6294   -0.0590 N.2       1 <0>        -0.5366
     18 C12         0.6258   -9.1089   -0.8582 C.2       1 <0>         0.2815
     19 C13         0.3454  -10.4976   -0.8630 C.2       1 <0>        -0.3521
     20 C14        -0.6489  -11.1963   -1.7008 C.ar      1 <0>         0.0184
     21 C15        -0.5617  -12.5532   -1.3526 C.ar      1 <0>         0.0932
     22 C16        -1.3966  -13.4702   -1.9914 C.ar      1 <0>        -0.1011
     23 C17        -2.2878  -13.0802   -2.9393 C.ar      1 <0>        -0.0907
     24 C18        -2.4059  -11.7223   -3.3186 C.ar      1 <0>         0.0488
     25 C19        -1.5592  -10.8022   -2.6675 C.ar      1 <0>        -0.1316
     26 S2         -2.0289   -9.2681   -3.4236 S.3       1 <0>         0.0692
     27 C20        -3.2095   -9.8692   -4.4616 C.2       1 <0>         0.0350
     28 N4         -3.2216  -11.1490   -4.2282 N.2       1 <0>        -0.5066
     29 N5          0.4098  -12.6809   -0.3770 N.pl3     1 <0>        -0.6232
     30 H1          0.6689  -13.5180    0.0388 H         1 <0>         0.3998
     31 C21         0.9546  -11.4706   -0.0862 C.2       1 <0>         0.4860
     32 O3          1.9341  -11.2498    0.8199 O.3       1 <0>        -0.6382
     33 H2         -0.9522    1.9182    0.0259 H         1 <0>         0.1092
     34 H3          1.2145    3.1379    0.0070 H         1 <0>         0.1059
     35 H4          3.3170    1.8637   -0.0200 H         1 <0>         0.1282
     36 H5         -0.9214   -0.5640    0.0078 H         1 <0>         0.1181
     37 H6          2.3478   -4.7252    2.0877 H         1 <0>         0.1293
     38 H7          1.8603   -7.1357    2.0914 H         1 <0>         0.1241
     39 H8          1.8384   -7.1165   -2.1991 H         1 <0>         0.1170
     40 H9          2.3168   -4.7042   -2.1788 H         1 <0>         0.1267
     41 H10         0.0810   -8.4457   -1.5138 H         1 <0>         0.0758
     42 H11        -1.3326  -14.5152   -1.7263 H         1 <0>         0.1199
     43 H12        -2.9172  -13.8197   -3.4120 H         1 <0>         0.1219
     44 H13        -3.8179   -9.3178   -5.1632 H         1 <0>         0.2113
@<TRIPOS>BOND
     1    1    6 ar
     2    1    2 ar
     3    1   33 1
     4    2    3 ar
     5    2   34 1
     6    3    4 ar
     7    3   35 1
     8    4    5 ar
     9    5    6 ar
    10    5    7 1
    11    6   36 1
    12    7    8 1
    13    8    9 2
    14    8   10 2
    15    8   11 1
    16   11   16 ar
    17   11   12 ar
    18   12   13 ar
    19   12   37 1
    20   13   14 ar
    21   13   38 1
    22   14   15 ar
    23   14   17 1
    24   15   16 ar
    25   15   39 1
    26   16   40 1
    27   17   18 2
    28   18   19 1
    29   18   41 1
    30   19   31 2
    31   19   20 1
    32   20   25 ar
    33   20   21 ar
    34   21   22 ar
    35   21   29 1
    36   22   23 ar
    37   22   42 1
    38   23   24 ar
    39   23   43 1
    40   24   28 1
    41   24   25 ar
    42   25   26 1
    43   26   27 1
    44   27   28 2
    45   27   44 1
    46   29   30 1
    47   29   31 1
    48   31   32 1
@<TRIPOS>MOLECULE
ZINC20149036
   45    49     0     0     0
SMALL
USER_CHARGES

@<TRIPOS>ATOM
      1 C1         -0.0163    1.3544    0.0095 C.2       1 <0>        -0.0171
      2 C2          1.1954    2.0667    0.0017 C.2       1 <0>        -0.2158
      3 C3          2.3740    1.4093   -0.0135 C.2       1 <0>         0.1325
      4 N1          2.4120    0.0471   -0.0216 N.pl3     1 <0>        -0.6267
      5 C4          1.2455   -0.6792   -0.0139 C.2       1 <0>         0.5145
      6 C5          0.0021   -0.0041    0.0020 C.2       1 <0>        -0.1579
      7 N2          1.2846   -1.9955   -0.0223 N.2       1 <0>        -1.0030
      8 S1          2.7426   -2.7805   -0.0420 S.o2      1 <0>         2.6203
      9 O1          3.3484   -2.4805   -1.2919 O.2       1 <0>        -0.9989
     10 O2          3.3741   -2.4955    1.1986 O.2       1 <0>        -0.9984
     11 C6          2.4033   -4.5095   -0.0489 C.ar      1 <0>        -0.6815
     12 C7          2.2775   -5.1913    1.1486 C.ar      1 <0>        -0.0001
     13 C8          2.0115   -6.5447    1.1508 C.ar      1 <0>        -0.1589
     14 C9          1.8691   -7.2270   -0.0598 C.ar      1 <0>         0.2084
     15 C10         1.9975   -6.5323   -1.2648 C.ar      1 <0>        -0.2114
     16 C11         2.2583   -5.1780   -1.2518 C.ar      1 <0>         0.0068
     17 N3          1.6057   -8.5696   -0.0651 N.2       1 <0>        -0.5527
     18 C12         0.6880   -9.0536   -0.8640 C.2       1 <0>         0.2963
     19 C13         0.4152  -10.4438   -0.8695 C.2       1 <0>        -0.3529
     20 C14        -0.5759  -11.1473   -1.7070 C.ar      1 <0>         0.0140
     21 C15        -0.4810  -12.5040   -1.3598 C.ar      1 <0>         0.1032
     22 C16        -1.3113  -13.4251   -1.9987 C.ar      1 <0>        -0.1028
     23 C17        -2.2053  -13.0393   -2.9456 C.ar      1 <0>        -0.0808
     24 C18        -2.3312  -11.6818   -3.3239 C.ar      1 <0>         0.0491
     25 C19        -1.4890  -10.7576   -2.6728 C.ar      1 <0>        -0.1294
     26 S2         -1.9677   -9.2255   -3.4274 S.3       1 <0>         0.0586
     27 C20        -3.1457   -9.8324   -4.4650 C.2       1 <0>         0.0412
     28 N4         -3.1506  -11.1124   -4.2325 N.2       1 <0>        -0.5026
     29 N5          0.4920  -12.6270   -0.3851 N.pl3     1 <0>        -0.6235
     30 H1          0.7560  -13.4630    0.0300 H         1 <0>         0.4033
     31 C21         1.0303  -11.4140   -0.0939 C.2       1 <0>         0.4921
     32 O3          2.0093  -11.1884    0.8117 O.3       1 <0>        -0.6326
     33 H2         -0.9573    1.8844    0.0258 H         1 <0>         0.1472
     34 H3          1.1833    3.1466    0.0077 H         1 <0>         0.1523
     35 H4          3.2975    1.9692   -0.0197 H         1 <0>         0.1724
     36 H5         -0.9223   -0.5626    0.0078 H         1 <0>         0.1644
     37 H6          2.3881   -4.6625    2.0838 H         1 <0>         0.1314
     38 H7          1.9139   -7.0757    2.0862 H         1 <0>         0.1318
     39 H8          1.8886   -7.0536   -2.2044 H         1 <0>         0.1244
     40 H9          2.3538   -4.6388   -2.1827 H         1 <0>         0.1289
     41 H10         0.1391   -8.3929   -1.5187 H         1 <0>         0.0788
     42 H11        -1.2413  -14.4699   -1.7344 H         1 <0>         0.1238
     43 H12        -2.8310  -13.7820   -3.4184 H         1 <0>         0.1258
     44 H13        -3.7577   -9.2839   -5.1658 H         1 <0>         0.2127
     45 H14         3.2664   -0.4120   -0.0332 H         1 <0>         0.4130
@<TRIPOS>BOND
     1    1    6 2
     2    1    2 1
     3    1   33 1
     4    2    3 2
     5    2   34 1
     6    3    4 1
     7    3   35 1
     8    4    5 1
     9    4   45 1
    10    5    6 1
    11    5    7 2
    12    6   36 1
    13    7    8 1
    14    8    9 2
    15    8   10 2
    16    8   11 1
    17   11   16 ar
    18   11   12 ar
    19   12   13 ar
    20   12   37 1
    21   13   14 ar
    22   13   38 1
    23   14   15 ar
    24   14   17 1
    25   15   16 ar
    26   15   39 1
    27   16   40 1
    28   17   18 2
    29   18   19 1
    30   18   41 1
    31   19   31 2
    32   19   20 1
    33   20   25 ar
    34   20   21 ar
    35   21   22 ar
    36   21   29 1
    37   22   23 ar
    38   22   42 1
    39   23   24 ar
    40   23   43 1
    41   24   28 1
    42   24   25 ar
    43   25   26 1
    44   26   27 1
    45   27   28 2
    46   27   44 1
    47   29   30 1
    48   29   31 1
    49   31   32 1
@<TRIPOS>MOLECULE
ZINC20149036
   46    50     0     0     0
SMALL
USER_CHARGES

@<TRIPOS>ATOM
      1 C1         -0.0167    1.3788    0.0096 C.ar      1 <0>        -0.0400
      2 C2          1.1946    2.0581    0.0017 C.ar      1 <0>        -0.2028
      3 C3          2.3728    1.3394   -0.0134 C.ar      1 <0>         0.1471
      4 N1          2.3606    0.0197   -0.0204 N.ar      1 <0>        -0.5251
      5 C4          1.2269   -0.6641   -0.0132 C.ar      1 <0>         0.3804
      6 C5          0.0021   -0.0041    0.0020 C.ar      1 <0>        -0.1989
      7 N2          1.2605   -2.0537   -0.0210 N.pl3     1 <0>        -1.0355
      8 S1          2.7142   -2.8466   -0.0391 S.o2      1 <0>         2.6932
      9 O1          2.4190   -4.2364   -0.0167 O.2       1 <0>        -0.9539
     10 O2          3.4899   -2.2491   -1.0689 O.2       1 <0>        -0.9276
     11 C6          3.5267   -2.4798    1.4807 C.ar      1 <0>        -0.6877
     12 C7          4.3559   -1.3755    1.5691 C.ar      1 <0>         0.0202
     13 C8          4.9948   -1.0820    2.7558 C.ar      1 <0>        -0.1396
     14 C9          4.8032   -1.9027    3.8698 C.ar      1 <0>         0.1580
     15 C10         3.9648   -3.0158    3.7732 C.ar      1 <0>        -0.1854
     16 C11         3.3282   -3.2941    2.5817 C.ar      1 <0>        -0.0018
     17 N3          5.4341   -1.6178    5.0500 N.2       1 <0>        -0.5006
     18 C12         4.7701   -1.6725    6.1772 C.2       1 <0>         0.2572
     19 C13         5.4235   -1.3776    7.3992 C.2       1 <0>        -0.1880
     20 C14         4.8263   -1.3983    8.7489 C.ar      1 <0>        -0.0163
     21 C15         5.8563   -1.0391    9.6322 C.ar      1 <0>         0.1095
     22 C16         5.5828   -0.9727   10.9985 C.ar      1 <0>        -0.0959
     23 C17         4.3470   -1.2474   11.4905 C.ar      1 <0>        -0.0421
     24 C18         3.2825   -1.6135   10.6334 C.ar      1 <0>         0.0733
     25 C19         3.5672   -1.6772    9.2542 C.ar      1 <0>        -0.1288
     26 S2          2.0004   -2.1561    8.5748 S.3       1 <0>         0.0982
     27 C20         1.1342   -2.2375   10.0155 C.2       1 <0>         0.0684
     28 N4          2.0022   -1.9196   10.9310 N.2       1 <0>        -0.5022
     29 N5          6.9983   -0.8147    8.8858 N.pl3     1 <0>        -0.5715
     30 H1          7.8566   -0.5524    9.2539 H         1 <0>         0.4248
     31 C21         6.7518   -1.0182    7.5652 C.2       1 <0>         0.3506
     32 O3          7.6583   -0.8879    6.5699 O.3       1 <0>        -0.4401
     33 H2         -0.9522    1.9182    0.0259 H         1 <0>         0.1404
     34 H3          1.2145    3.1379    0.0070 H         1 <0>         0.1397
     35 H4          3.3170    1.8637   -0.0200 H         1 <0>         0.1653
     36 H5         -0.9214   -0.5640    0.0078 H         1 <0>         0.1394
     37 H6          0.4325   -2.5589   -0.0158 H         1 <0>         0.4349
     38 H7          4.5033   -0.7421    0.7069 H         1 <0>         0.1552
     39 H8          5.6419   -0.2200    2.8234 H         1 <0>         0.1359
     40 H9          3.8121   -3.6545    4.6306 H         1 <0>         0.1302
     41 H10         2.6764   -4.1521    2.5067 H         1 <0>         0.1395
     42 H11         3.7244   -1.9425    6.1754 H         1 <0>         0.1069
     43 H12         6.3727   -0.6967   11.6814 H         1 <0>         0.1397
     44 H13         4.1739   -1.1856   12.5548 H         1 <0>         0.1438
     45 H14         0.0943   -2.4963   10.1498 H         1 <0>         0.2246
     46 H15         7.7026    0.0012    6.1922 H         1 <0>         0.4073
@<TRIPOS>BOND
     1    1    6 ar
     2    1    2 ar
     3    1   33 1
     4    2    3 ar
     5    2   34 1
     6    3    4 ar
     7    3   35 1
     8    4    5 ar
     9    5    6 ar
    10    5    7 1
    11    6   36 1
    12    7    8 1
    13    7   37 1
    14    8    9 2
    15    8   10 2
    16    8   11 1
    17   11   16 ar
    18   11   12 ar
    19   12   13 ar
    20   12   38 1
    21   13   14 ar
    22   13   39 1
    23   14   15 ar
    24   14   17 1
    25   15   16 ar
    26   15   40 1
    27   16   41 1
    28   17   18 2
    29   18   19 1
    30   18   42 1
    31   19   31 2
    32   19   20 1
    33   20   25 ar
    34   20   21 ar
    35   21   22 ar
    36   21   29 1
    37   22   23 ar
    38   22   43 1
    39   23   24 ar
    40   23   44 1
    41   24   28 1
    42   24   25 ar
    43   25   26 1
    44   26   27 1
    45   27   28 2
    46   27   45 1
    47   29   30 1
    48   29   31 1
    49   31   32 1
    50   32   46 1
@<TRIPOS>MOLECULE
ZINC20149036
   46    50     0     0     0
SMALL
USER_CHARGES

@<TRIPOS>ATOM
      1 C1          0.5366    2.5219    0.3830 C.ar      1 <0>        -0.0396
      2 C2          1.8727    2.8742    0.2433 C.ar      1 <0>        -0.2016
      3 C3          2.8271    1.8817    0.1469 C.ar      1 <0>         0.1463
      4 N1          2.4850    0.6077    0.1858 N.ar      1 <0>        -0.5267
      5 C4          1.2225    0.2316    0.3179 C.ar      1 <0>         0.3796
      6 C5          0.2086    1.1789    0.4206 C.ar      1 <0>        -0.1977
      7 N2          0.9071   -1.1217    0.3543 N.pl3     1 <0>        -1.0350
      8 S1          2.1080   -2.2553    0.2326 S.o2      1 <0>         2.6949
      9 O1          1.4786   -3.5257    0.3286 O.2       1 <0>        -0.9515
     10 O2          2.9065   -1.8831   -0.8824 O.2       1 <0>        -0.9258
     11 C6          3.1277   -2.0894    1.6600 C.ar      1 <0>        -0.6991
     12 C7          4.2107   -1.2297    1.6380 C.ar      1 <0>         0.0444
     13 C8          5.0122   -1.0975    2.7548 C.ar      1 <0>        -0.1827
     14 C9          4.7292   -1.8291    3.9014 C.ar      1 <0>         0.2131
     15 C10         3.6401   -2.6914    3.9202 C.ar      1 <0>        -0.1916
     16 C11         2.8398   -2.8149    2.8016 C.ar      1 <0>         0.0201
     17 N3          5.5383   -1.6982    5.0332 N.pl3     1 <0>        -0.6264
     18 C12         5.2595   -2.4161    6.1565 C.2       1 <0>         0.2550
     19 C13         5.9671   -2.1929    7.3024 C.2       1 <0>        -0.2857
     20 C14         6.8939   -1.0712    7.5843 C.ar      1 <0>        -0.0382
     21 C15         7.3720   -1.2769    8.8846 C.ar      1 <0>         0.1671
     22 C16         8.2767   -0.3595    9.4203 C.ar      1 <0>        -0.1128
     23 C17         8.7008    0.7215    8.7135 C.ar      1 <0>        -0.0281
     24 C18         8.2401    0.9618    7.3998 C.ar      1 <0>         0.0615
     25 C19         7.3263    0.0283    6.8656 C.ar      1 <0>        -0.1291
     26 S2          7.0214    0.6931    5.2498 S.3       1 <0>         0.0358
     27 C20         8.0246    2.0404    5.3564 C.2       1 <0>         0.0855
     28 N4          8.5401    1.9651    6.5483 N.2       1 <0>        -0.4894
     29 N5          6.8041   -2.4339    9.4035 N.am      1 <0>        -0.6432
     30 C21         5.9687   -3.0083    8.5218 C.2       1 <0>         0.5795
     31 O3          5.3274   -4.0286    8.7024 O.2       1 <0>        -0.5108
     32 H1         -0.2285    3.2797    0.4649 H         1 <0>         0.1406
     33 H2          2.1620    3.9142    0.2101 H         1 <0>         0.1400
     34 H3          3.8672    2.1513    0.0378 H         1 <0>         0.1657
     35 H4         -0.8206    0.8697    0.5283 H         1 <0>         0.1397
     36 H5         -0.0165   -1.4020    0.4509 H         1 <0>         0.4357
     37 H6          4.4301   -0.6613    0.7463 H         1 <0>         0.1605
     38 H7          5.8582   -0.4265    2.7367 H         1 <0>         0.1373
     39 H8          3.4173   -3.2616    4.8100 H         1 <0>         0.1408
     40 H9          1.9906   -3.4820    2.8169 H         1 <0>         0.1477
     41 H10         6.2986   -1.0960    5.0187 H         1 <0>         0.4046
     42 H11         4.4785   -3.1619    6.1407 H         1 <0>         0.1791
     43 H12         8.6493   -0.5121   10.4224 H         1 <0>         0.1440
     44 H13         9.4017    1.4085    9.1642 H         1 <0>         0.1460
     45 H14         8.1993    2.7970    4.6058 H         1 <0>         0.2276
     46 H15         6.9847   -2.7807   10.2911 H         1 <0>         0.4229
@<TRIPOS>BOND
     1    1    6 ar
     2    1    2 ar
     3    1   32 1
     4    2    3 ar
     5    2   33 1
     6    3    4 ar
     7    3   34 1
     8    4    5 ar
     9    5    6 ar
    10    5    7 1
    11    6   35 1
    12    7    8 1
    13    7   36 1
    14    8    9 2
    15    8   10 2
    16    8   11 1
    17   11   16 ar
    18   11   12 ar
    19   12   13 ar
    20   12   37 1
    21   13   14 ar
    22   13   38 1
    23   14   15 ar
    24   14   17 1
    25   15   16 ar
    26   15   39 1
    27   16   40 1
    28   17   18 1
    29   17   41 1
    30   18   19 2
    31   18   42 1
    32   19   30 1
    33   19   20 1
    34   20   25 ar
    35   20   21 ar
    36   21   22 ar
    37   21   29 1
    38   22   23 ar
    39   22   43 1
    40   23   24 ar
    41   23   44 1
    42   24   28 1
    43   24   25 ar
    44   25   26 1
    45   26   27 1
    46   27   28 2
    47   27   45 1
    48   29   30 am
    49   29   46 1
    50   30   31 2
@<TRIPOS>MOLECULE
ZINC20149036
   46    50     0     0     0
SMALL
USER_CHARGES

@<TRIPOS>ATOM
      1 C1         -0.0163    1.3544    0.0095 C.2       1 <0>        -0.0091
      2 C2          1.1954    2.0667    0.0017 C.2       1 <0>        -0.2090
      3 C3          2.3740    1.4093   -0.0135 C.2       1 <0>         0.1321
      4 N1          2.4120    0.0471   -0.0216 N.pl3     1 <0>        -0.6234
      5 C4          1.2455   -0.6792   -0.0139 C.2       1 <0>         0.5196
      6 C5          0.0021   -0.0041    0.0020 C.2       1 <0>        -0.1622
      7 N2          1.2846   -1.9955   -0.0223 N.2       1 <0>        -1.0110
      8 S1          2.7426   -2.7805   -0.0420 S.o2      1 <0>         2.6183
      9 O1          3.3484   -2.4805   -1.2919 O.2       1 <0>        -0.9898
     10 O2          3.3741   -2.4955    1.1986 O.2       1 <0>        -0.9900
     11 C6          2.4033   -4.5095   -0.0489 C.ar      1 <0>        -0.6595
     12 C7          2.2773   -5.1926    1.1469 C.ar      1 <0>         0.0220
     13 C8          2.0118   -6.5478    1.1451 C.ar      1 <0>        -0.1746
     14 C9          1.8710   -7.2248   -0.0598 C.ar      1 <0>         0.2089
     15 C10         1.9978   -6.5355   -1.2592 C.ar      1 <0>        -0.1895
     16 C11         2.2581   -5.1792   -1.2501 C.ar      1 <0>         0.0234
     17 N3          1.6028   -8.5963   -0.0652 N.pl3     1 <0>        -0.6264
     18 C12         1.4650   -9.2585   -1.2474 C.2       1 <0>         0.2565
     19 C13         1.2031  -10.5983   -1.2527 C.2       1 <0>        -0.2857
     20 C14         1.0291  -11.4770   -2.4335 C.ar      1 <0>        -0.0197
     21 C15         0.7799  -12.7607   -1.9318 C.ar      1 <0>         0.1563
     22 C16         0.5737  -13.8056   -2.8333 C.ar      1 <0>        -0.1134
     23 C17         0.6096  -13.6068   -4.1776 C.ar      1 <0>        -0.0306
     24 C18         0.8585  -12.3263   -4.7202 C.ar      1 <0>         0.0608
     25 C19         1.0647  -11.2754   -3.8012 C.ar      1 <0>        -0.1247
     26 S2          1.3320   -9.8911   -4.8773 S.3       1 <0>         0.0739
     27 C20         1.1702  -10.6989   -6.3449 C.2       1 <0>         0.0764
     28 N4          0.9324  -11.9330   -6.0092 N.2       1 <0>        -0.4990
     29 N5          0.7910  -12.7195   -0.5431 N.am      1 <0>        -0.6412
     30 C21         1.0396  -11.4790   -0.0911 C.2       1 <0>         0.5681
     31 O3          1.1136  -11.1439    1.0782 O.2       1 <0>        -0.5277
     32 H1         -0.9573    1.8844    0.0258 H         1 <0>         0.1507
     33 H2          1.1833    3.1466    0.0077 H         1 <0>         0.1565
     34 H3          3.2975    1.9692   -0.0197 H         1 <0>         0.1762
     35 H4         -0.9223   -0.5626    0.0078 H         1 <0>         0.1656
     36 H5          2.3869   -4.6656    2.0832 H         1 <0>         0.1482
     37 H6          1.9142   -7.0808    2.0794 H         1 <0>         0.1427
     38 H7          1.8888   -7.0588   -2.1977 H         1 <0>         0.1397
     39 H8          2.3528   -4.6419   -2.1822 H         1 <0>         0.1485
     40 H9          1.5148   -9.0766    0.7729 H         1 <0>         0.4319
     41 H10         1.5630   -8.7237   -2.1806 H         1 <0>         0.1667
     42 H11         0.3811  -14.7979   -2.4532 H         1 <0>         0.1412
     43 H12         0.4452  -14.4421   -4.8422 H         1 <0>         0.1437
     44 H13         1.2481  -10.2865   -7.3400 H         1 <0>         0.2247
     45 H14         0.6421  -13.4896    0.0276 H         1 <0>         0.4210
     46 H15         3.2664   -0.4120   -0.0332 H         1 <0>         0.4130
@<TRIPOS>BOND
     1    1    6 2
     2    1    2 1
     3    1   32 1
     4    2    3 2
     5    2   33 1
     6    3    4 1
     7    3   34 1
     8    4    5 1
     9    4   46 1
    10    5    6 1
    11    5    7 2
    12    6   35 1
    13    7    8 1
    14    8    9 2
    15    8   10 2
    16    8   11 1
    17   11   16 ar
    18   11   12 ar
    19   12   13 ar
    20   12   36 1
    21   13   14 ar
    22   13   37 1
    23   14   15 ar
    24   14   17 1
    25   15   16 ar
    26   15   38 1
    27   16   39 1
    28   17   18 1
    29   17   40 1
    30   18   19 2
    31   18   41 1
    32   19   30 1
    33   19   20 1
    34   20   25 ar
    35   20   21 ar
    36   21   22 ar
    37   21   29 1
    38   22   23 ar
    39   22   42 1
    40   23   24 ar
    41   23   43 1
    42   24   28 1
    43   24   25 ar
    44   25   26 1
    45   26   27 1
    46   27   28 2
    47   27   44 1
    48   29   30 am
    49   29   45 1
    50   30   31 2
@<TRIPOS>MOLECULE
ZINC20149036
   46    50     0     0     0
SMALL
USER_CHARGES

@<TRIPOS>ATOM
      1 C1         -1.4750    0.8961    0.9087 C.2       1 <0>        -0.0090
      2 C2         -0.4270    1.8099    0.7029 C.2       1 <0>        -0.2089
      3 C3          0.8159    1.3701    0.4148 C.2       1 <0>         0.1321
      4 N1          1.0782    0.0362    0.3181 N.pl3     1 <0>        -0.6234
      5 C4          0.0761   -0.8834    0.5140 C.2       1 <0>         0.5197
      6 C5         -1.2321   -0.4375    0.8168 C.2       1 <0>        -0.1622
      7 N2          0.3317   -2.1718    0.4197 N.2       1 <0>        -1.0110
      8 S1          1.8644   -2.6881    0.0640 S.o2      1 <0>         2.6178
      9 O1          2.1412   -2.2561   -1.2612 O.2       1 <0>        -0.9893
     10 O2          2.6814   -2.3269    1.1692 O.2       1 <0>        -0.9898
     11 C6          1.8243   -4.4491    0.0216 C.ar      1 <0>        -0.6583
     12 C7          2.0630   -5.1726    1.1758 C.ar      1 <0>         0.0224
     13 C8          2.0328   -6.5529    1.1460 C.ar      1 <0>        -0.1752
     14 C9          1.7618   -7.2146   -0.0450 C.ar      1 <0>         0.2095
     15 C10         1.5220   -6.4848   -1.2025 C.ar      1 <0>        -0.1857
     16 C11         1.5487   -5.1045   -1.1645 C.ar      1 <0>         0.0238
     17 N3          1.7309   -8.6113   -0.0788 N.pl3     1 <0>        -0.6260
     18 C12         1.4650   -9.2585   -1.2474 C.2       1 <0>         0.2560
     19 C13         1.3049  -10.6142   -1.2557 C.2       1 <0>        -0.2866
     20 C14         1.1492  -11.5096   -0.0849 C.ar      1 <0>        -0.0375
     21 C15         1.0168  -12.8057   -0.5993 C.ar      1 <0>         0.1665
     22 C16         0.8535  -13.8678    0.2907 C.ar      1 <0>        -0.1126
     23 C17         0.8198  -13.6739    1.6358 C.ar      1 <0>        -0.0285
     24 C18         0.9496  -12.3813    2.1910 C.ar      1 <0>         0.0617
     25 C19         1.1155  -11.3133    1.2836 C.ar      1 <0>        -0.1293
     26 S2          1.2357   -9.9187    2.3728 S.3       1 <0>         0.0358
     27 C20         1.0771  -10.7443    3.8308 C.2       1 <0>         0.0857
     28 N4          0.9416  -11.9903    3.4827 N.2       1 <0>        -0.4898
     29 N5          1.0811  -12.7564   -1.9863 N.am      1 <0>        -0.6431
     30 C21         1.2436  -11.4972   -2.4255 C.2       1 <0>         0.5797
     31 O3          1.3280  -11.1500   -3.5905 O.2       1 <0>        -0.5112
     32 H1         -2.4673    1.2522    1.1432 H         1 <0>         0.1507
     33 H2         -0.6176    2.8705    0.7754 H         1 <0>         0.1565
     34 H3          1.6118    2.0833    0.2586 H         1 <0>         0.1762
     35 H4         -2.0291   -1.1495    0.9729 H         1 <0>         0.1656
     36 H5          2.2736   -4.6575    2.1014 H         1 <0>         0.1487
     37 H6          2.2200   -7.1173    2.0476 H         1 <0>         0.1393
     38 H7          1.3110   -6.9961   -2.1301 H         1 <0>         0.1430
     39 H8          1.3584   -4.5364   -2.0631 H         1 <0>         0.1491
     40 H9          1.8988   -9.1198    0.7299 H         1 <0>         0.4046
     41 H10         1.3809   -8.6992   -2.1674 H         1 <0>         0.1795
     42 H11         0.7508  -14.8697   -0.0991 H         1 <0>         0.1439
     43 H12         0.6913  -14.5226    2.2913 H         1 <0>         0.1458
     44 H13         1.0843  -10.3325    4.8293 H         1 <0>         0.2277
     45 H14         1.0132  -13.5324   -2.5644 H         1 <0>         0.4228
     46 H15         1.9762   -0.2654    0.1097 H         1 <0>         0.4131
@<TRIPOS>BOND
     1    1    6 2
     2    1    2 1
     3    1   32 1
     4    2    3 2
     5    2   33 1
     6    3    4 1
     7    3   34 1
     8    4    5 1
     9    4   46 1
    10    5    6 1
    11    5    7 2
    12    6   35 1
    13    7    8 1
    14    8    9 2
    15    8   10 2
    16    8   11 1
    17   11   16 ar
    18   11   12 ar
    19   12   13 ar
    20   12   36 1
    21   13   14 ar
    22   13   37 1
    23   14   15 ar
    24   14   17 1
    25   15   16 ar
    26   15   38 1
    27   16   39 1
    28   17   18 1
    29   17   40 1
    30   18   19 2
    31   18   41 1
    32   19   30 1
    33   19   20 1
    34   20   25 ar
    35   20   21 ar
    36   21   22 ar
    37   21   29 1
    38   22   23 ar
    39   22   42 1
    40   23   24 ar
    41   23   43 1
    42   24   28 1
    43   24   25 ar
    44   25   26 1
    45   26   27 1
    46   27   28 2
    47   27   44 1
    48   29   30 am
    49   29   45 1
    50   30   31 2
@<TRIPOS>MOLECULE
ZINC01493878
   48    50     0     0     0
SMALL
USER_CHARGES

@<TRIPOS>ATOM
      1 C1         -1.0955   -5.0083   -6.9234 C.3       1 <0>         0.0847
      2 N1         -1.5520   -4.3038   -5.7228 N.am      1 <0>        -0.7137
      3 C2         -1.8827   -5.0004   -4.6175 C.2       1 <0>         0.5696
      4 O1         -1.8023   -6.2129   -4.6168 O.2       1 <0>        -0.5284
      5 C3         -2.3445   -4.2878   -3.4031 C.ar      1 <0>         0.1129
      6 C4         -2.6788   -5.0128   -2.2640 C.ar      1 <0>        -0.1883
      7 C5         -3.1110   -4.3279   -1.1310 C.ar      1 <0>         0.1595
      8 C6         -3.1903   -2.9389   -1.1877 C.ar      1 <0>        -0.1766
      9 C7         -2.8404   -2.2885   -2.3571 C.ar      1 <0>         0.1349
     10 N2         -2.4302   -2.9626   -3.4105 N.ar      1 <0>        -0.4815
     11 O2         -3.4471   -4.9979    0.0005 O.3       1 <0>        -0.2437
     12 C8         -3.4462   -6.3570   -0.0383 C.ar      1 <0>         0.0568
     13 C9         -2.2447   -7.0505   -0.0178 C.ar      1 <0>        -0.1074
     14 C10        -2.2431   -8.4307   -0.0577 C.ar      1 <0>        -0.1009
     15 C11        -3.4442   -9.1246   -0.1179 C.ar      1 <0>         0.1671
     16 C12        -4.6464   -8.4301   -0.1379 C.ar      1 <0>        -0.1272
     17 C13        -4.6469   -7.0500   -0.0928 C.ar      1 <0>        -0.0940
     18 N3         -3.4432  -10.5252   -0.1588 N.am      1 <0>        -0.6776
     19 C14        -2.5108  -11.2187    0.5239 C.2       1 <0>         0.7077
     20 O3         -1.6217  -10.6297    1.1080 O.2       1 <0>        -0.5493
     21 N4         -2.5639  -12.5649    0.5593 N.am      1 <0>        -0.6795
     22 C15        -1.6655  -13.2800    1.3600 C.ar      1 <0>         0.1700
     23 C16        -1.2529  -12.7583    2.5792 C.ar      1 <0>        -0.0742
     24 C17        -0.3670  -13.4659    3.3674 C.ar      1 <0>        -0.0871
     25 C18         0.1097  -14.6941    2.9434 C.ar      1 <0>        -0.0077
     26 C19        -0.2993  -15.2159    1.7290 C.ar      1 <0>        -0.1564
     27 C20        -1.1898  -14.5147    0.9394 C.ar      1 <0>        -0.0879
     28 C21         0.2222  -16.5533    1.2702 C.3       1 <0>         0.5112
     29 F1         -0.3299  -16.8663    0.0234 F         1 <0>        -0.1743
     30 F2          1.6160  -16.4983    1.1626 F         1 <0>        -0.1671
     31 F3         -0.1354  -17.5367    2.1987 F         1 <0>        -0.1677
     32 Cl1         1.2234  -15.5812    3.9366 Cl        1 <0>        -0.0394
     33 H1         -0.8760   -4.2843   -7.7081 H         1 <0>         0.0803
     34 H2         -0.1948   -5.5764   -6.6909 H         1 <0>         0.0631
     35 H3         -1.8761   -5.6883   -7.2645 H         1 <0>         0.0629
     36 H4         -1.6162   -3.3359   -5.7233 H         1 <0>         0.4141
     37 H5         -2.6047   -6.0902   -2.2584 H         1 <0>         0.1546
     38 H6         -3.5217   -2.3755   -0.3280 H         1 <0>         0.1523
     39 H7         -2.9005   -1.2112   -2.4052 H         1 <0>         0.1747
     40 H8         -1.3104   -6.5106    0.0290 H         1 <0>         0.1364
     41 H9         -1.3078   -8.9704   -0.0424 H         1 <0>         0.1514
     42 H10        -5.5809   -8.9693   -0.1851 H         1 <0>         0.1386
     43 H11        -5.5820   -6.5098   -0.1039 H         1 <0>         0.1400
     44 H12        -4.1137  -10.9957   -0.6785 H         1 <0>         0.4131
     45 H13        -3.2246  -13.0383    0.0299 H         1 <0>         0.4146
     46 H14        -1.6244  -11.7997    2.9103 H         1 <0>         0.1546
     47 H15        -0.0456  -13.0604    4.3154 H         1 <0>         0.1524
     48 H16        -1.5123  -14.9245   -0.0064 H         1 <0>         0.1525
@<TRIPOS>BOND
     1    1    2 1
     2    1   33 1
     3    1   34 1
     4    1   35 1
     5    2    3 am
     6    2   36 1
     7    3    4 2
     8    3    5 1
     9    5   10 ar
    10    5    6 ar
    11    6    7 ar
    12    6   37 1
    13    7    8 ar
    14    7   11 1
    15    8    9 ar
    16    8   38 1
    17    9   10 ar
    18    9   39 1
    19   11   12 1
    20   12   17 ar
    21   12   13 ar
    22   13   14 ar
    23   13   40 1
    24   14   15 ar
    25   14   41 1
    26   15   16 ar
    27   15   18 1
    28   16   17 ar
    29   16   42 1
    30   17   43 1
    31   18   19 am
    32   18   44 1
    33   19   20 2
    34   19   21 am
    35   21   22 1
    36   21   45 1
    37   22   27 ar
    38   22   23 ar
    39   23   24 ar
    40   23   46 1
    41   24   25 ar
    42   24   47 1
    43   25   26 ar
    44   25   32 1
    45   26   27 ar
    46   26   28 1
    47   27   48 1
    48   28   29 1
    49   28   30 1
    50   28   31 1
@<TRIPOS>MOLECULE
ZINC03814434
   62    69     0     0     0
SMALL
USER_CHARGES

@<TRIPOS>ATOM
      1 C1         -0.1295    1.5952   -0.2973 C.3       1 <0>        -0.1687
      2 C2         -0.0862    0.0696   -0.1900 C.3       1 <0>         0.3342
      3 C3          0.5692   -0.4501   -1.4637 C.3       1 <0>         0.0405
      4 H1          1.4796    0.1159   -1.6612 H         1 <0>         0.1372
      5 C4          0.9167   -1.9328   -1.2889 C.3       1 <0>        -0.0061
      6 H2          1.3963   -2.3075   -2.1932 H         1 <0>         0.1555
      7 C5          1.8785   -2.0596   -0.1021 C.3       1 <0>        -0.1827
      8 C6          1.2061   -1.5198    1.1541 C.3       1 <0>         0.2999
      9 H3          1.9797   -1.4243    1.9161 H         1 <0>         0.1550
     10 O1          0.6555   -0.2442    0.9666 O.3       1 <0>        -0.3234
     11 N1          0.2189   -2.4746    1.6600 N.pl3     1 <0>        -0.5366
     12 C7          0.4705   -3.5508    2.4739 C.ar      1 <0>         0.1469
     13 C8          1.6649   -4.0152    3.0240 C.ar      1 <0>        -0.1522
     14 C9          1.5948   -5.1456    3.8201 C.ar      1 <0>        -0.0582
     15 C10         0.4006   -5.7997    4.0696 C.ar      1 <0>        -0.1457
     16 C11        -0.7984   -5.3597    3.5358 C.ar      1 <0>        -0.0280
     17 C12        -0.7487   -4.2198    2.7307 C.ar      1 <0>        -0.1131
     18 C13        -1.7893   -3.4830    2.0197 C.ar      1 <0>         0.0276
     19 C14        -1.1442   -2.4197    1.3841 C.ar      1 <0>         0.0376
     20 C15        -1.8806   -1.5095    0.6175 C.ar      1 <0>         0.0894
     21 N2         -1.4718   -0.3951   -0.1095 N.pl3     1 <0>        -0.5183
     22 C16        -2.5611    0.1913   -0.7090 C.ar      1 <0>         0.1618
     23 C17        -2.6521    1.3277   -1.5118 C.ar      1 <0>        -0.1305
     24 C18        -3.9109    1.6745   -1.9733 C.ar      1 <0>        -0.0737
     25 C19        -5.0393    0.9368   -1.6616 C.ar      1 <0>        -0.1358
     26 C20        -4.9745   -0.1955   -0.8662 C.ar      1 <0>        -0.0503
     27 C21        -3.7147   -0.5596   -0.3919 C.ar      1 <0>        -0.1042
     28 C22        -3.2693   -1.6660    0.4845 C.ar      1 <0>        -0.0360
     29 C23        -3.9084   -2.7313    1.1102 C.ar      1 <0>        -0.0288
     30 C24        -3.1873   -3.6421    1.8754 C.ar      1 <0>        -0.1255
     31 C25        -4.1221   -4.6480    2.4030 C.2       1 <0>         0.5632
     32 O2         -3.8062   -5.5851    3.1110 O.2       1 <0>        -0.5106
     33 N3         -5.3744   -4.3851    1.9926 N.am      1 <0>        -0.7162
     34 C26        -5.3495   -3.1771    1.1601 C.3       1 <0>         0.1358
     35 N4         -0.3067   -2.7008   -1.0216 N.4       1 <0>        -0.5252
     36 C27         0.0145   -4.1336   -0.9773 C.3       1 <0>        -0.0497
     37 O3         -0.3340   -0.2979   -2.5607 O.3       1 <0>        -0.3614
     38 C28         0.3101   -0.0933   -3.8198 C.3       1 <0>         0.0162
     39 H4          0.8261    2.0094    0.0240 H         1 <0>         0.0984
     40 H5         -0.3202    1.8814   -1.3317 H         1 <0>         0.1036
     41 H6         -0.9255    1.9818    0.3392 H         1 <0>         0.0921
     42 H7          2.1370   -3.1081    0.0458 H         1 <0>         0.1233
     43 H8          2.7835   -1.4869   -0.3048 H         1 <0>         0.1455
     44 H9          2.6036   -3.5149    2.8368 H         1 <0>         0.1365
     45 H10         2.5026   -5.5304    4.2610 H         1 <0>         0.1359
     46 H11         0.4045   -6.6780    4.6980 H         1 <0>         0.1352
     47 H12        -1.7278   -5.8736    3.7323 H         1 <0>         0.1600
     48 H13        -1.7792    1.9122   -1.7624 H         1 <0>         0.1440
     49 H14        -4.0153    2.5500   -2.5970 H         1 <0>         0.1336
     50 H15        -5.9967    1.2527   -2.0488 H         1 <0>         0.1332
     51 H16        -5.8575   -0.7687   -0.6249 H         1 <0>         0.1415
     52 H17        -6.1628   -4.9065    2.2103 H         1 <0>         0.4348
     53 H18        -5.9671   -2.3994    1.6094 H         1 <0>         0.1115
     54 H19        -5.7060   -3.4063    0.1559 H         1 <0>         0.1103
     55 H20        -0.6958   -2.4158   -0.1353 H         1 <0>         0.4186
     56 H21         0.4349   -4.4415   -1.9347 H         1 <0>         0.1256
     57 H22         0.7403   -4.3189   -0.1854 H         1 <0>         0.1191
     58 H23        -0.8932   -4.7035   -0.7789 H         1 <0>         0.1256
     59 H24         0.9168    0.8112   -3.7748 H         1 <0>         0.0633
     60 H25         0.9482   -0.9479   -4.0446 H         1 <0>         0.0514
     61 H26        -0.4433    0.0130   -4.6003 H         1 <0>         0.1100
     62 H27        -0.9785   -2.5293   -1.7546 H         1 <0>         0.4274
@<TRIPOS>BOND
     1    1    2 1
     2    1   39 1
     3    1   40 1
     4    1   41 1
     5    2   10 1
     6    2   21 1
     7    2    3 1
     8    3    4 1
     9    3    5 1
    10    3   37 1
    11    5    6 1
    12    5    7 1
    13    5   35 1
    14    7    8 1
    15    7   42 1
    16    7   43 1
    17    8    9 1
    18    8   10 1
    19    8   11 1
    20   11   19 1
    21   11   12 1
    22   12   17 ar
    23   12   13 ar
    24   13   14 ar
    25   13   44 1
    26   14   15 ar
    27   14   45 1
    28   15   16 ar
    29   15   46 1
    30   16   17 ar
    31   16   47 1
    32   17   18 1
    33   18   30 ar
    34   18   19 ar
    35   19   20 ar
    36   20   28 ar
    37   20   21 1
    38   21   22 1
    39   22   27 ar
    40   22   23 ar
    41   23   24 ar
    42   23   48 1
    43   24   25 ar
    44   24   49 1
    45   25   26 ar
    46   25   50 1
    47   26   27 ar
    48   26   51 1
    49   27   28 1
    50   28   29 ar
    51   29   34 1
    52   29   30 ar
    53   30   31 1
    54   31   32 2
    55   31   33 am
    56   33   34 1
    57   33   52 1
    58   34   53 1
    59   34   54 1
    60   35   36 1
    61   35   55 1
    62   35   62 1
    63   36   56 1
    64   36   57 1
    65   36   58 1
    66   37   38 1
    67   38   59 1
    68   38   60 1
    69   38   61 1
@<TRIPOS>MOLECULE
ZINC03988917
   34    37     0     0     0
SMALL
USER_CHARGES

@<TRIPOS>ATOM
      1 C1         -0.5498    1.4454   -0.0518 C.3       1 <0>         0.0708
      2 N1         -0.2896    0.0037   -0.0465 N.pl3     1 <0>        -0.4677
      3 C2         -0.3200   -0.7885   -1.1433 C.2       1 <0>         0.1762
      4 C3         -0.0289   -2.0887   -0.7804 C.2       1 <0>        -0.2272
      5 C4          0.1975   -2.0685    0.6785 C.ar      1 <0>        -0.0669
      6 C5          0.0264   -0.7336    1.0771 C.ar      1 <0>         0.0792
      7 C6          0.1846   -0.3974    2.4177 C.ar      1 <0>        -0.1175
      8 C7          0.5098   -1.3710    3.3375 C.ar      1 <0>        -0.1055
      9 C8          0.6820   -2.6885    2.9407 C.ar      1 <0>        -0.1311
     10 C9          0.5210   -3.0426    1.6182 C.ar      1 <0>        -0.0820
     11 C10         0.0388   -3.2138   -1.6347 C.2       1 <0>         0.1415
     12 C11         0.5372   -3.0791   -2.9162 C.2       1 <0>        -0.2266
     13 C12         0.5299   -4.0923   -3.9948 C.ar      1 <0>         0.1330
     14 C13         1.1446   -3.4885   -5.1015 C.ar      1 <0>         0.0849
     15 C14         1.2750   -4.2251   -6.2749 C.ar      1 <0>        -0.0942
     16 C15         0.7910   -5.5236   -6.2969 C.ar      1 <0>        -0.1461
     17 C16         0.1963   -6.0516   -5.1652 C.ar      1 <0>         0.0842
     18 N2          0.0823   -5.3382   -4.0627 N.ar      1 <0>        -0.4497
     19 N3          1.5191   -2.1936   -4.7699 N.am      1 <0>        -0.6491
     20 C17         1.1823   -1.8980   -3.5027 C.2       1 <0>         0.5659
     21 O1          1.3807   -0.8367   -2.9385 O.2       1 <0>        -0.5106
     22 H1          0.3843    1.9826   -0.2160 H         1 <0>         0.0777
     23 H2         -1.2519    1.6849   -0.8503 H         1 <0>         0.0880
     24 H3         -0.9753    1.7413    0.9071 H         1 <0>         0.0859
     25 H4         -0.5383   -0.4554   -2.1471 H         1 <0>         0.1806
     26 H5          0.0531    0.6257    2.7374 H         1 <0>         0.1207
     27 H6          0.6319   -1.1052    4.3771 H         1 <0>         0.1277
     28 H7          0.9371   -3.4414    3.6718 H         1 <0>         0.1266
     29 H8          0.6568   -4.0691    1.3109 H         1 <0>         0.1257
     30 H9         -0.2992   -4.1782   -1.2853 H         1 <0>         0.1453
     31 H10         1.7422   -3.7947   -7.1484 H         1 <0>         0.1376
     32 H11         0.8775   -6.1200   -7.1932 H         1 <0>         0.1432
     33 H12        -0.1800   -7.0637   -5.1851 H         1 <0>         0.1630
     34 H13         1.9633   -1.5800   -5.3757 H         1 <0>         0.4165
@<TRIPOS>BOND
     1    1    2 1
     2    1   22 1
     3    1   23 1
     4    1   24 1
     5    2    6 1
     6    2    3 1
     7    3    4 2
     8    3   25 1
     9    4    5 1
    10    4   11 1
    11    5   10 ar
    12    5    6 ar
    13    6    7 ar
    14    7    8 ar
    15    7   26 1
    16    8    9 ar
    17    8   27 1
    18    9   10 ar
    19    9   28 1
    20   10   29 1
    21   11   12 2
    22   11   30 1
    23   12   20 1
    24   12   13 1
    25   13   18 ar
    26   13   14 ar
    27   14   15 ar
    28   14   19 1
    29   15   16 ar
    30   15   31 1
    31   16   17 ar
    32   16   32 1
    33   17   18 ar
    34   17   33 1
    35   19   20 am
    36   19   34 1
    37   20   21 2
@<TRIPOS>MOLECULE
ZINC28089408
   42    45     0     0     0
SMALL
USER_CHARGES
(3Z)-5-bromo-3-[[3-bromo-4-hydroxy-5-(2-methoxyphenyl)phenyl]methylene]-1H-pyrrolo[5,4-b]pyridin-2-one
@<TRIPOS>ATOM
      1 C1          1.9327    3.9166   -4.5437 C.3       1 <0>         0.0233
      2 O1          1.5618    3.3510   -3.2849 O.3       1 <0>        -0.3058
      3 C2          1.0079    4.1899   -2.3710 C.ar      1 <0>         0.1520
      4 C3          0.8194    5.5275   -2.6795 C.ar      1 <0>        -0.2136
      5 C4          0.2611    6.3811   -1.7469 C.ar      1 <0>        -0.0748
      6 C5         -0.1177    5.9057   -0.5038 C.ar      1 <0>        -0.1601
      7 C6          0.0591    4.5745   -0.1854 C.ar      1 <0>        -0.0593
      8 C7          0.6209    3.7054   -1.1180 C.ar      1 <0>        -0.0725
      9 C8          0.8131    2.2740   -0.7810 C.ar      1 <0>        -0.0788
     10 C9         -0.2876    1.4600   -0.5511 C.ar      1 <0>         0.0256
     11 C10        -0.0990    0.1100   -0.2340 C.ar      1 <0>        -0.1451
     12 C11         1.1996   -0.4129   -0.1501 C.ar      1 <0>        -0.0108
     13 C12         2.2877    0.3997   -0.3792 C.ar      1 <0>        -0.2064
     14 C13         2.1057    1.7410   -0.6940 C.ar      1 <0>         0.2399
     15 O2          3.1823    2.5361   -0.9176 O.3       1 <0>        -0.4811
     16 Br1         4.0358   -0.3122   -0.2644 Br        1 <0>        -0.0368
     17 C14        -1.2565   -0.7558    0.0105 C.2       1 <0>         0.0585
     18 C15        -2.3321   -0.2780    0.7017 C.2       1 <0>        -0.1757
     19 C16        -3.6385   -0.9410    0.9078 C.ar      1 <0>        -0.1464
     20 C17        -4.1685   -2.1631    0.5061 C.ar      1 <0>         0.0054
     21 C18        -5.4654   -2.4706    0.8898 C.ar      1 <0>        -0.1755
     22 C19        -6.1766   -1.5590    1.6505 C.ar      1 <0>         0.1786
     23 N1         -5.6502   -0.4085    2.0172 N.ar      1 <0>        -0.4927
     24 C20        -4.4141   -0.0624    1.6784 C.ar      1 <0>         0.3684
     25 N2         -3.6730    1.0770    1.9506 N.am      1 <0>        -0.6500
     26 C21        -2.4443    1.0078    1.4115 C.2       1 <0>         0.5728
     27 O3         -1.5775    1.8589    1.4929 O.2       1 <0>        -0.4792
     28 Br2        -6.2515   -4.1131    0.3800 Br        1 <0>        -0.0224
     29 H1          2.3653    3.1339   -5.1842 H         1 <0>         0.1006
     30 H2          2.6758    4.7117   -4.3837 H         1 <0>         0.0564
     31 H3          1.0425    4.3396   -5.0321 H         1 <0>         0.0552
     32 H4          1.1131    5.9044   -3.6481 H         1 <0>         0.1287
     33 H5          0.1196    7.4240   -1.9896 H         1 <0>         0.1248
     34 H6         -0.5529    6.5789    0.2200 H         1 <0>         0.1253
     35 H7         -0.2380    4.2069    0.7857 H         1 <0>         0.1344
     36 H8         -1.2859    1.8659   -0.6212 H         1 <0>         0.1357
     37 H9          1.3467   -1.4546    0.0941 H         1 <0>         0.1399
     38 H10         4.1978    2.1188   -0.8496 H         1 <0>         0.4295
     39 H11        -1.2582   -1.7904   -0.3630 H         1 <0>         0.1527
     40 H12        -3.5868   -2.8524   -0.0878 H         1 <0>         0.1502
     41 H13        -7.1868   -1.7963    1.9500 H         1 <0>         0.1753
     42 H14        -4.1144    1.8915    2.5436 H         1 <0>         0.4535
@<TRIPOS>BOND
     1    1    2 1
     2    1   29 1
     3    1   30 1
     4    1   31 1
     5    2    3 1
     6    3    8 ar
     7    3    4 ar
     8    4    5 ar
     9    4   32 1
    10    5    6 ar
    11    5   33 1
    12    6    7 ar
    13    6   34 1
    14    7    8 ar
    15    7   35 1
    16    8    9 1
    17    9   14 ar
    18    9   10 ar
    19   10   11 ar
    20   10   36 1
    21   11   12 ar
    22   11   17 1
    23   12   13 ar
    24   12   37 1
    25   13   14 ar
    26   13   16 1
    27   14   15 1
    28   15   38 1
    29   17   18 2
    30   17   39 1
    31   18   26 1
    32   18   19 1
    33   19   24 ar
    34   19   20 ar
    35   20   21 ar
    36   20   40 1
    37   21   22 ar
    38   21   28 1
    39   22   23 ar
    40   22   41 1
    41   23   24 ar
    42   24   25 1
    43   25   26 am
    44   25   42 1
    45   26   27 2
@<TRIPOS>MOLECULE
ZINC34842284
   60    64     0     0     0
SMALL
USER_CHARGES

@<TRIPOS>ATOM
      1 C1         -0.0178    1.4608    0.0101 C.3       1 <0>         0.0965
      2 N1          0.0021   -0.0041    0.0020 N.pl3     1 <0>        -0.3671
      3 C2          0.0078   -0.7883   -1.0945 C.2       1 <0>         0.0815
      4 C3          0.0278   -2.0866   -0.6734 C.2       1 <0>        -0.2075
      5 C4          0.0343   -2.0758    0.7354 C.2       1 <0>         0.0682
      6 N2          0.0245   -0.8308    1.1317 N.2       1 <0>        -0.2890
      7 C5          0.0397   -3.2901   -1.5414 C.ar      1 <0>        -0.0366
      8 C6          0.0543   -4.5644   -0.9807 C.ar      1 <0>        -0.0385
      9 C7          0.0802   -5.6649   -1.8426 C.ar      1 <0>        -0.1799
     10 C8          0.1229   -5.4562   -3.2387 C.ar      1 <0>         0.1790
     11 C9          0.2532   -6.5705   -4.1609 C.2       1 <0>        -0.0928
     12 C10        -0.3414   -7.7510   -4.0859 C.2       1 <0>        -0.0827
     13 C11        -1.2649   -8.2108   -3.0641 C.ar      1 <0>        -0.0205
     14 C12        -2.3865   -8.9737   -3.4314 C.ar      1 <0>        -0.0788
     15 C13        -3.2359   -9.4502   -2.4792 C.ar      1 <0>        -0.1379
     16 C14        -3.0081   -9.1944   -1.1257 C.ar      1 <0>         0.1494
     17 C15        -1.9219   -8.4304   -0.7344 C.ar      1 <0>        -0.0939
     18 C16        -1.0553   -7.9152   -1.6995 C.ar      1 <0>        -0.1193
     19 C17         0.0500   -7.0298   -1.2992 C.2       1 <0>         0.4578
     20 O1          0.9175   -7.4185   -0.5376 O.2       1 <0>        -0.4210
     21 N3         -3.8773   -9.7097   -0.1653 N.pl3     1 <0>        -1.0655
     22 S1         -4.3812  -11.2840   -0.2641 S.o2      1 <0>         2.7793
     23 O2         -5.2247  -11.5116    0.8566 O.2       1 <0>        -0.9610
     24 O3         -4.8189  -11.4872   -1.6007 O.2       1 <0>        -0.9643
     25 N4         -3.0455  -12.2399   -0.0531 N.pl3     1 <0>        -0.9947
     26 C18        -2.6613  -12.6751    1.2920 C.3       1 <0>         0.0938
     27 C19        -2.2480  -12.6502   -1.2115 C.3       1 <0>         0.1210
     28 C20        -1.0763  -11.6831   -1.3923 C.3       1 <0>         0.0178
     29 H1         -1.4536  -10.6631   -1.4645 H         1 <0>         0.0816
     30 C21        -0.3126  -12.0380   -2.6715 C.3       1 <0>         0.0320
     31 O4          0.8442  -11.2023   -2.7746 O.3       1 <0>        -0.3693
     32 C22         1.7288  -11.3082   -1.6551 C.3       1 <0>         0.0253
     33 C23         0.9651  -10.9534   -0.3760 C.3       1 <0>         0.0211
     34 O5         -0.1924  -11.7879   -0.2721 O.3       1 <0>        -0.3671
     35 N5          0.0651   -4.2087   -3.7198 N.ar      1 <0>        -0.4628
     36 C24         0.0305   -3.1599   -2.9350 C.ar      1 <0>         0.1258
     37 H2          1.0048    1.8381    0.0023 H         1 <0>         0.0802
     38 H3         -0.5450    1.8219   -0.8730 H         1 <0>         0.0921
     39 H4         -0.5280    1.8123    0.9069 H         1 <0>         0.0936
     40 H5         -0.0021   -0.4506   -2.1203 H         1 <0>         0.1820
     41 H6          0.0494   -2.9451    1.3761 H         1 <0>         0.1866
     42 H7          0.0463   -4.6991    0.0909 H         1 <0>         0.1426
     43 H8          0.9100   -6.4187   -5.0047 H         1 <0>         0.1374
     44 H9         -0.1138   -8.4521   -4.8752 H         1 <0>         0.1386
     45 H10        -2.5760   -9.1830   -4.4738 H         1 <0>         0.1447
     46 H11        -4.0961  -10.0325   -2.7747 H         1 <0>         0.1659
     47 H12        -1.7458   -8.2343    0.3129 H         1 <0>         0.1371
     48 H13        -4.1869   -9.1460    0.5609 H         1 <0>         0.4277
     49 H14        -3.1500  -13.6222    1.5208 H         1 <0>         0.0607
     50 H15        -1.5799  -12.8040    1.3372 H         1 <0>         0.0884
     51 H16        -2.9683  -11.9229    2.0187 H         1 <0>         0.0679
     52 H17        -1.8656  -13.6582   -1.0506 H         1 <0>         0.0981
     53 H18        -2.8717  -12.6365   -2.1052 H         1 <0>         0.1107
     54 H19        -0.0048  -13.0830   -2.6340 H         1 <0>         0.0632
     55 H20        -0.9562  -11.8775   -3.5364 H         1 <0>         0.1055
     56 H21         2.1052  -12.3286   -1.5835 H         1 <0>         0.0597
     57 H22         2.5636  -10.6192   -1.7840 H         1 <0>         0.1035
     58 H23         1.6087  -11.1138    0.4889 H         1 <0>         0.1029
     59 H24         0.6574   -9.9084   -0.4134 H         1 <0>         0.0696
     60 H25        -0.0017   -2.1732   -3.3730 H         1 <0>         0.1615
@<TRIPOS>BOND
     1    1    2 1
     2    1   37 1
     3    1   38 1
     4    1   39 1
     5    2    6 1
     6    2    3 1
     7    3    4 2
     8    3   40 1
     9    4    5 1
    10    4    7 1
    11    5    6 2
    12    5   41 1
    13    7   36 ar
    14    7    8 ar
    15    8    9 ar
    16    8   42 1
    17    9   19 1
    18    9   10 ar
    19   10   11 1
    20   10   35 ar
    21   11   12 2
    22   11   43 1
    23   12   13 1
    24   12   44 1
    25   13   18 ar
    26   13   14 ar
    27   14   15 ar
    28   14   45 1
    29   15   16 ar
    30   15   46 1
    31   16   17 ar
    32   16   21 1
    33   17   18 ar
    34   17   47 1
    35   18   19 1
    36   19   20 2
    37   21   22 1
    38   21   48 1
    39   22   23 2
    40   22   24 2
    41   22   25 1
    42   25   26 1
    43   25   27 1
    44   26   49 1
    45   26   50 1
    46   26   51 1
    47   27   28 1
    48   27   52 1
    49   27   53 1
    50   28   29 1
    51   28   34 1
    52   28   30 1
    53   30   31 1
    54   30   54 1
    55   30   55 1
    56   31   32 1
    57   32   33 1
    58   32   56 1
    59   32   57 1
    60   33   34 1
    61   33   58 1
    62   33   59 1
    63   35   36 ar
    64   36   60 1
@<TRIPOS>MOLECULE
ZINC34842284
   59    63     0     0     0
SMALL
USER_CHARGES

@<TRIPOS>ATOM
      1 C1         -0.0178    1.4608    0.0101 C.3       1 <0>         0.1007
      2 N1          0.0021   -0.0041    0.0020 N.pl3     1 <0>        -0.3736
      3 C2          0.0078   -0.7883   -1.0945 C.2       1 <0>         0.0703
      4 C3          0.0278   -2.0866   -0.6734 C.2       1 <0>        -0.1902
      5 C4          0.0343   -2.0758    0.7354 C.2       1 <0>         0.0673
      6 N2          0.0245   -0.8308    1.1317 N.2       1 <0>        -0.2943
      7 C5          0.0397   -3.2901   -1.5414 C.ar      1 <0>        -0.0608
      8 C6          0.0543   -4.5644   -0.9807 C.ar      1 <0>        -0.0333
      9 C7          0.0802   -5.6649   -1.8426 C.ar      1 <0>        -0.1792
     10 C8          0.1229   -5.4562   -3.2387 C.ar      1 <0>         0.2045
     11 C9          0.2532   -6.5705   -4.1609 C.2       1 <0>        -0.1592
     12 C10        -0.3414   -7.7510   -4.0859 C.2       1 <0>        -0.0231
     13 C11        -1.2649   -8.2108   -3.0641 C.ar      1 <0>        -0.1647
     14 C12        -2.3865   -8.9737   -3.4314 C.ar      1 <0>        -0.0353
     15 C13        -3.2359   -9.4502   -2.4792 C.ar      1 <0>        -0.2465
     16 C14        -3.0081   -9.1944   -1.1257 C.ar      1 <0>         0.3005
     17 C15        -1.9219   -8.4304   -0.7344 C.ar      1 <0>        -0.1500
     18 C16        -1.0553   -7.9152   -1.6995 C.ar      1 <0>        -0.0837
     19 C17         0.0500   -7.0298   -1.2992 C.2       1 <0>         0.4609
     20 O1          0.9175   -7.4185   -0.5376 O.2       1 <0>        -0.4397
     21 N3         -3.8773   -9.7097   -0.1653 N.2       1 <0>        -1.0971
     22 S1         -5.1776  -10.6235   -0.6305 S.o2      1 <0>         2.7153
     23 O2         -6.0456   -9.7582   -1.3496 O.2       1 <0>        -1.0429
     24 O3         -4.6537  -11.8178   -1.1947 O.2       1 <0>        -1.0457
     25 N4         -5.9839  -11.0648    0.7470 N.pl3     1 <0>        -0.9885
     26 C18        -7.0496  -10.2109    1.2774 C.3       1 <0>         0.1091
     27 C19        -5.6314  -12.3092    1.4352 C.3       1 <0>         0.1365
     28 C20        -4.6323  -12.0078    2.5540 C.3       1 <0>         0.0329
     29 H1         -3.7717  -11.4810    2.1417 H         1 <0>         0.0873
     30 C21        -4.1704  -13.3198    3.1948 C.3       1 <0>         0.0320
     31 O4         -3.3244  -13.0250    4.3103 O.3       1 <0>        -0.3784
     32 C22        -3.9524  -12.2119    5.3061 C.3       1 <0>         0.0246
     33 C23        -4.4143  -10.8999    4.6653 C.3       1 <0>         0.0237
     34 O5         -5.2598  -11.1934    3.5490 O.3       1 <0>        -0.3667
     35 N5          0.0651   -4.2087   -3.7198 N.ar      1 <0>        -0.4751
     36 C24         0.0305   -3.1599   -2.9350 C.ar      1 <0>         0.1218
     37 H2          1.0048    1.8381    0.0023 H         1 <0>         0.0758
     38 H3         -0.5450    1.8219   -0.8730 H         1 <0>         0.0888
     39 H4         -0.5280    1.8123    0.9069 H         1 <0>         0.0902
     40 H5         -0.0021   -0.4506   -2.1203 H         1 <0>         0.1795
     41 H6          0.0494   -2.9451    1.3761 H         1 <0>         0.1876
     42 H7          0.0463   -4.6991    0.0909 H         1 <0>         0.1396
     43 H8          0.9100   -6.4187   -5.0047 H         1 <0>         0.1239
     44 H9         -0.1138   -8.4521   -4.8752 H         1 <0>         0.1183
     45 H10        -2.5760   -9.1830   -4.4738 H         1 <0>         0.1151
     46 H11        -4.0961  -10.0325   -2.7747 H         1 <0>         0.1021
     47 H12        -1.7458   -8.2343    0.3129 H         1 <0>         0.1215
     48 H13        -8.0037  -10.5080    0.8422 H         1 <0>         0.0404
     49 H14        -7.0955  -10.3181    2.3611 H         1 <0>         0.0728
     50 H15        -6.8424   -9.1713    1.0236 H         1 <0>         0.0649
     51 H16        -6.5299  -12.7559    1.8610 H         1 <0>         0.0781
     52 H17        -5.1826  -13.0029    0.7243 H         1 <0>         0.1032
     53 H18        -5.0384  -13.8845    3.5350 H         1 <0>         0.0590
     54 H19        -3.6164  -13.9075    2.4628 H         1 <0>         0.1068
     55 H20        -4.8131  -12.7393    5.7173 H         1 <0>         0.0563
     56 H21        -3.2406  -11.9973    6.1031 H         1 <0>         0.1003
     57 H22        -4.9682  -10.3122    5.3973 H         1 <0>         0.0994
     58 H23        -3.5462  -10.3353    4.3251 H         1 <0>         0.0629
     59 H24        -0.0017   -2.1732   -3.3730 H         1 <0>         0.1540
@<TRIPOS>BOND
     1    1    2 1
     2    1   37 1
     3    1   38 1
     4    1   39 1
     5    2    6 1
     6    2    3 1
     7    3    4 2
     8    3   40 1
     9    4    5 1
    10    4    7 1
    11    5    6 2
    12    5   41 1
    13    7   36 ar
    14    7    8 ar
    15    8    9 ar
    16    8   42 1
    17    9   19 1
    18    9   10 ar
    19   10   11 1
    20   10   35 ar
    21   11   12 2
    22   11   43 1
    23   12   13 1
    24   12   44 1
    25   13   18 ar
    26   13   14 ar
    27   14   15 ar
    28   14   45 1
    29   15   16 ar
    30   15   46 1
    31   16   17 ar
    32   16   21 1
    33   17   18 ar
    34   17   47 1
    35   18   19 1
    36   19   20 2
    37   21   22 1
    38   22   23 2
    39   22   24 2
    40   22   25 1
    41   25   26 1
    42   25   27 1
    43   26   48 1
    44   26   49 1
    45   26   50 1
    46   27   28 1
    47   27   51 1
    48   27   52 1
    49   28   29 1
    50   28   34 1
    51   28   30 1
    52   30   31 1
    53   30   53 1
    54   30   54 1
    55   31   32 1
    56   32   33 1
    57   32   55 1
    58   32   56 1
    59   33   34 1
    60   33   57 1
    61   33   58 1
    62   35   36 ar
    63   36   59 1
@<TRIPOS>MOLECULE
ZINC34867398
   42    44     0     0     0
SMALL
USER_CHARGES

@<TRIPOS>ATOM
      1 C1         -0.1171    1.0395   -0.3505 C.ar      1 <0>        -0.1131
      2 C2          1.0303    1.7826   -0.1430 C.ar      1 <0>        -0.1176
      3 C3          2.2583    1.1558   -0.1263 C.ar      1 <0>        -0.1176
      4 C4          2.3549   -0.2179   -0.3234 C.ar      1 <0>        -0.0667
      5 C5          1.2168   -0.9517   -0.5481 C.ar      1 <0>        -0.0589
      6 C6         -0.0226   -0.3217   -0.5502 C.ar      1 <0>        -0.1190
      7 C7          1.2425   -2.4311   -0.8274 C.3       1 <0>        -0.0898
      8 C8          2.0664   -3.1722    0.2294 C.3       1 <0>        -0.1185
      9 C9          3.4947   -3.2948   -0.2930 C.3       1 <0>        -0.1184
     10 C10         3.8403   -2.0684   -1.1399 C.3       1 <0>        -0.1111
     11 C11         3.7357   -0.8240   -0.2599 C.3       1 <0>        -0.0261
     12 H1          3.9579   -1.0973    0.7716 H         1 <0>         0.1115
     13 S1          4.9485    0.4028   -0.8208 S.3       1 <0>        -0.0122
     14 C12         6.5048   -0.3406   -0.4607 C.2       1 <0>         0.1397
     15 C13         7.7527    0.2710   -0.8584 C.2       1 <0>        -0.2765
     16 C14         8.8780   -0.4645   -0.4850 C.2       1 <0>         0.0811
     17 S2          8.2295   -1.7964    0.2985 S.3       1 <0>         0.4514
     18 N1          6.5952   -1.4733    0.1858 N.2       1 <0>        -0.5018
     19 N2         10.2118   -0.1657   -0.7089 N.am      1 <0>        -0.6261
     20 C15        11.1728   -1.0030   -0.2708 C.2       1 <0>         0.7030
     21 O1         10.8688   -2.0206    0.3209 O.2       1 <0>        -0.5508
     22 N3         12.4706   -0.7123   -0.4888 N.am      1 <0>        -0.8457
     23 C16         7.8287    1.5418   -1.5852 C.2       1 <0>         0.5965
     24 O2          7.8964    2.5906   -0.9715 O.2       1 <0>        -0.5228
     25 N4          7.8235    1.5487   -2.9329 N.am      1 <0>        -0.8416
     26 H2         -1.0832    1.5222   -0.3517 H         1 <0>         0.1245
     27 H3          0.9650    2.8504    0.0050 H         1 <0>         0.1252
     28 H4          3.1533    1.7367    0.0410 H         1 <0>         0.1318
     29 H5         -0.9187   -0.9031   -0.7095 H         1 <0>         0.1244
     30 H6          0.2223   -2.8149   -0.8203 H         1 <0>         0.0714
     31 H7          1.6822   -2.6028   -1.8098 H         1 <0>         0.0847
     32 H8          2.0619   -2.6089    1.1625 H         1 <0>         0.0655
     33 H9          1.6474   -4.1648    0.3946 H         1 <0>         0.0701
     34 H10         4.1843   -3.3605    0.5485 H         1 <0>         0.0699
     35 H11         3.5817   -4.1935   -0.9036 H         1 <0>         0.0668
     36 H12         4.8568   -2.1621   -1.5220 H         1 <0>         0.0720
     37 H13         3.1399   -1.9886   -1.9713 H         1 <0>         0.0822
     38 H14        10.4543    0.6462   -1.1811 H         1 <0>         0.4188
     39 H15        12.7131    0.0996   -0.9609 H         1 <0>         0.4048
     40 H16        13.1622   -1.3150   -0.1735 H         1 <0>         0.4280
     41 H17         7.7695    0.7127   -3.4220 H         1 <0>         0.4042
     42 H18         7.8737    2.3895   -3.4138 H         1 <0>         0.4066
@<TRIPOS>BOND
     1    1    6 ar
     2    1    2 ar
     3    1   26 1
     4    2    3 ar
     5    2   27 1
     6    3    4 ar
     7    3   28 1
     8    4   11 1
     9    4    5 ar
    10    5    6 ar
    11    5    7 1
    12    6   29 1
    13    7    8 1
    14    7   30 1
    15    7   31 1
    16    8    9 1
    17    8   32 1
    18    8   33 1
    19    9   10 1
    20    9   34 1
    21    9   35 1
    22   10   11 1
    23   10   36 1
    24   10   37 1
    25   11   12 1
    26   11   13 1
    27   13   14 1
    28   14   18 2
    29   14   15 1
    30   15   16 2
    31   15   23 1
    32   16   17 1
    33   16   19 1
    34   17   18 1
    35   19   20 am
    36   19   38 1
    37   20   21 2
    38   20   22 am
    39   22   39 1
    40   22   40 1
    41   23   24 2
    42   23   25 am
    43   25   41 1
    44   25   42 1
@<TRIPOS>MOLECULE
ZINC34867398
   41    43     0     0     0
SMALL
USER_CHARGES

@<TRIPOS>ATOM
      1 C1         -0.1039    1.0667   -0.2558 C.ar      1 <0>        -0.1249
      2 C2          1.0523    1.7973   -0.0527 C.ar      1 <0>        -0.1220
      3 C3          2.2756    1.1615   -0.0681 C.ar      1 <0>        -0.1141
      4 C4          2.3587   -0.2088   -0.2934 C.ar      1 <0>        -0.0474
      5 C5          1.2116   -0.9299   -0.5136 C.ar      1 <0>        -0.0677
      6 C6         -0.0228   -0.2911   -0.4833 C.ar      1 <0>        -0.1244
      7 C7          1.2217   -2.4037   -0.8219 C.3       1 <0>        -0.0855
      8 C8          2.0570   -3.1711    0.2067 C.3       1 <0>        -0.1149
      9 C9          3.4757   -3.2938   -0.3412 C.3       1 <0>        -0.1175
     10 C10         3.8167   -2.0537   -1.1697 C.3       1 <0>        -0.1028
     11 C11         3.7358   -0.8260   -0.2641 C.3       1 <0>        -0.0681
     12 H1          3.9725   -1.1209    0.7582 H         1 <0>         0.1020
     13 S1          4.9485    0.4028   -0.8208 S.3       1 <0>         0.0243
     14 C12         6.5048   -0.3406   -0.4607 C.2       1 <0>         0.1561
     15 C13         7.6940    0.2483   -0.8433 C.2       1 <0>        -0.3654
     16 C14         8.8529   -0.4796   -0.4761 C.2       1 <0>         0.2100
     17 N1         10.1341   -0.1702   -0.7030 N.2       1 <0>        -0.6721
     18 C15        11.1020   -0.9844   -0.2792 C.2       1 <0>         0.6558
     19 O1         10.8187   -2.0106    0.3150 O.2       1 <0>        -0.6314
     20 N2         12.3931   -0.6726   -0.5079 N.am      1 <0>        -0.8568
     21 S2          8.2301   -1.8228    0.3124 S.3       1 <0>         0.2399
     22 N3          6.5920   -1.5070    0.2053 N.2       1 <0>        -0.5744
     23 C16         7.7524    1.5195   -1.5687 C.2       1 <0>         0.6029
     24 O2          6.7239    2.1023   -1.8591 O.2       1 <0>        -0.5732
     25 N4          8.9448    2.0438   -1.9146 N.am      1 <0>        -0.8554
     26 H2         -1.0663    1.5562   -0.2319 H         1 <0>         0.1178
     27 H3          0.9973    2.8625    0.1171 H         1 <0>         0.1205
     28 H4          3.1775    1.7325    0.0959 H         1 <0>         0.1365
     29 H5         -0.9257   -0.8628   -0.6392 H         1 <0>         0.1176
     30 H6          0.1989   -2.7802   -0.8056 H         1 <0>         0.0641
     31 H7          1.6442   -2.5593   -1.8146 H         1 <0>         0.0830
     32 H8          2.0717   -2.6262    1.1506 H         1 <0>         0.0632
     33 H9          1.6333   -4.1637    0.3595 H         1 <0>         0.0627
     34 H10         4.1783   -3.3809    0.4875 H         1 <0>         0.0702
     35 H11         3.5460   -4.1810   -0.9704 H         1 <0>         0.0582
     36 H12         4.8262   -2.1472   -1.5700 H         1 <0>         0.0740
     37 H13         3.1036   -1.9526   -1.9878 H         1 <0>         0.0707
     38 H14        12.6184    0.1439   -0.9807 H         1 <0>         0.3934
     39 H15        13.0969   -1.2646   -0.1998 H         1 <0>         0.3971
     40 H16         9.7643    1.5794   -1.6832 H         1 <0>         0.4151
     41 H17         8.9834    2.8856   -2.3950 H         1 <0>         0.3831
@<TRIPOS>BOND
     1    1    6 ar
     2    1    2 ar
     3    1   26 1
     4    2    3 ar
     5    2   27 1
     6    3    4 ar
     7    3   28 1
     8    4   11 1
     9    4    5 ar
    10    5    6 ar
    11    5    7 1
    12    6   29 1
    13    7    8 1
    14    7   30 1
    15    7   31 1
    16    8    9 1
    17    8   32 1
    18    8   33 1
    19    9   10 1
    20    9   34 1
    21    9   35 1
    22   10   11 1
    23   10   36 1
    24   10   37 1
    25   11   12 1
    26   11   13 1
    27   13   14 1
    28   14   22 1
    29   14   15 2
    30   15   16 1
    31   15   23 1
    32   16   17 2
    33   16   21 1
    34   17   18 1
    35   18   19 2
    36   18   20 am
    37   20   38 1
    38   20   39 1
    39   21   22 1
    40   23   24 2
    41   23   25 am
    42   25   40 1
    43   25   41 1
@<TRIPOS>MOLECULE
ZINC34867398
   42    44     0     0     0
SMALL
USER_CHARGES

@<TRIPOS>ATOM
      1 C1         -0.1061    1.0630   -0.2712 C.ar      1 <0>        -0.1096
      2 C2          1.0487    1.7958   -0.0679 C.ar      1 <0>        -0.1143
      3 C3          2.2728    1.1613   -0.0778 C.ar      1 <0>        -0.1168
      4 C4          2.3581   -0.2098   -0.2976 C.ar      1 <0>        -0.0641
      5 C5          1.2124   -0.9330   -0.5180 C.ar      1 <0>        -0.0596
      6 C6         -0.0229   -0.2955   -0.4933 C.ar      1 <0>        -0.1178
      7 C7          1.2249   -2.4080   -0.8206 C.3       1 <0>        -0.0907
      8 C8          2.0584   -3.1705    0.2130 C.3       1 <0>        -0.1181
      9 C9          3.4786   -3.2936   -0.3308 C.3       1 <0>        -0.1235
     10 C10         3.8204   -2.0563   -1.1631 C.3       1 <0>        -0.1296
     11 C11         3.7357   -0.8252   -0.2625 C.3       1 <0>        -0.0956
     12 H1          3.9702   -1.1160    0.7615 H         1 <0>         0.1005
     13 S1          4.9485    0.4028   -0.8208 S.3       1 <0>         0.1168
     14 C12         6.5048   -0.3406   -0.4607 C.2       1 <0>         0.1920
     15 C13         7.6940    0.2483   -0.8433 C.2       1 <0>        -0.2931
     16 C14         8.8529   -0.4796   -0.4761 C.2       1 <0>         0.2307
     17 N1         10.1341   -0.1702   -0.7030 N.2       1 <0>        -0.6012
     18 C15        11.1020   -0.9844   -0.2792 C.2       1 <0>         0.6663
     19 O1         10.8187   -2.0106    0.3150 O.2       1 <0>        -0.6049
     20 N2         12.3931   -0.6726   -0.5079 N.am      1 <0>        -0.8322
     21 S2          8.2301   -1.8228    0.3124 S.3       1 <0>         0.4382
     22 N3          6.5920   -1.5070    0.2053 N.pl3     1 <0>        -0.7028
     23 C16         7.7524    1.5195   -1.5687 C.2       1 <0>         0.6022
     24 O2          6.7239    2.1023   -1.8591 O.2       1 <0>        -0.5428
     25 N4          8.9448    2.0438   -1.9146 N.am      1 <0>        -0.8387
     26 H2         -1.0691    1.5516   -0.2516 H         1 <0>         0.1265
     27 H3          0.9921    2.8615    0.0976 H         1 <0>         0.1278
     28 H4          3.1736    1.7340    0.0863 H         1 <0>         0.1327
     29 H5         -0.9247   -0.8689   -0.6493 H         1 <0>         0.1257
     30 H6          0.2025   -2.7856   -0.8055 H         1 <0>         0.0746
     31 H7          1.6501   -2.5669   -1.8116 H         1 <0>         0.0856
     32 H8          2.0702   -2.6219    1.1548 H         1 <0>         0.0674
     33 H9          1.6355   -4.1630    0.3685 H         1 <0>         0.0742
     34 H10         4.1793   -3.3767    0.5001 H         1 <0>         0.0570
     35 H11         3.5517   -4.1832   -0.9564 H         1 <0>         0.0769
     36 H12         4.8311   -2.1502   -1.5605 H         1 <0>         0.0703
     37 H13         3.1093   -1.9592   -1.9835 H         1 <0>         0.0986
     38 H14        12.6184    0.1439   -0.9807 H         1 <0>         0.4064
     39 H15        13.0969   -1.2646   -0.1998 H         1 <0>         0.4132
     40 H16         9.7643    1.5794   -1.6832 H         1 <0>         0.4166
     41 H17         8.9834    2.8856   -2.3950 H         1 <0>         0.4019
     42 H18         5.8628   -2.0477    0.5471 H         1 <0>         0.4533
@<TRIPOS>BOND
     1    1    6 ar
     2    1    2 ar
     3    1   26 1
     4    2    3 ar
     5    2   27 1
     6    3    4 ar
     7    3   28 1
     8    4   11 1
     9    4    5 ar
    10    5    6 ar
    11    5    7 1
    12    6   29 1
    13    7    8 1
    14    7   30 1
    15    7   31 1
    16    8    9 1
    17    8   32 1
    18    8   33 1
    19    9   10 1
    20    9   34 1
    21    9   35 1
    22   10   11 1
    23   10   36 1
    24   10   37 1
    25   11   12 1
    26   11   13 1
    27   13   14 1
    28   14   22 1
    29   14   15 2
    30   15   16 1
    31   15   23 1
    32   16   17 2
    33   16   21 1
    34   17   18 1
    35   18   19 2
    36   18   20 am
    37   20   38 1
    38   20   39 1
    39   21   22 1
    40   22   42 1
    41   23   24 2
    42   23   25 am
    43   25   40 1
    44   25   41 1
@<TRIPOS>MOLECULE
ZINC36349009
   42    44     0     0     0
SMALL
USER_CHARGES

@<TRIPOS>ATOM
      1 C1          0.1437    1.6087   -0.5237 C.ar      1 <0>        -0.1133
      2 C2          1.3791    2.2288   -0.4916 C.ar      1 <0>        -0.1181
      3 C3          2.5218    1.4713   -0.3452 C.ar      1 <0>        -0.1177
      4 C4          2.4434    0.0878   -0.2221 C.ar      1 <0>        -0.0664
      5 C5          1.2151   -0.5249   -0.2352 C.ar      1 <0>        -0.0580
      6 C6          0.0641    0.2377   -0.3977 C.ar      1 <0>        -0.1184
      7 C7          1.0424   -2.0092   -0.0496 C.3       1 <0>        -0.0908
      8 C8          1.9552   -2.7883   -1.0006 C.3       1 <0>        -0.1178
      9 C9          3.2533   -3.0918   -0.2585 C.3       1 <0>        -0.1181
     10 C10         3.5719   -1.9508    0.7096 C.3       1 <0>        -0.1127
     11 C11         3.7460   -0.6639   -0.0952 C.3       1 <0>        -0.0245
     12 H1          4.1122   -0.9132   -1.0911 H         1 <0>         0.1115
     13 S1          4.9633    0.3945    0.7346 S.3       1 <0>        -0.0135
     14 C12         6.4748   -0.4992    0.5890 C.2       1 <0>         0.1399
     15 C13         7.6922   -0.0480    1.2248 C.2       1 <0>        -0.2763
     16 C14         8.7840   -0.8861    0.9965 C.2       1 <0>         0.0811
     17 S2          8.1469   -2.1014    0.0345 S.3       1 <0>         0.4513
     18 N1          6.5564   -1.6101   -0.0954 N.2       1 <0>        -0.5018
     19 N2         10.0837   -0.7465    1.4546 N.am      1 <0>        -0.6261
     20 C15        11.0151   -1.6647    1.1294 C.2       1 <0>         0.7029
     21 O1         10.7146   -2.6155    0.4339 O.2       1 <0>        -0.5508
     22 N3         12.2798   -1.5289    1.5752 N.am      1 <0>        -0.8458
     23 C16         7.7720    1.1734    2.0314 C.2       1 <0>         0.5962
     24 O2          7.5598    1.1268    3.2289 O.2       1 <0>        -0.5212
     25 N4          8.0804    2.3480    1.4468 N.am      1 <0>        -0.8428
     26 H2         -0.7551    2.1957   -0.6424 H         1 <0>         0.1245
     27 H3          1.4487    3.3028   -0.5813 H         1 <0>         0.1249
     28 H4          3.4865    1.9564   -0.3262 H         1 <0>         0.1306
     29 H5         -0.9004   -0.2476   -0.4255 H         1 <0>         0.1245
     30 H6          1.2882   -2.2727    0.9791 H         1 <0>         0.0853
     31 H7          0.0048   -2.2769   -0.2491 H         1 <0>         0.0716
     32 H8          1.4721   -3.7199   -1.2952 H         1 <0>         0.0701
     33 H9          2.1673   -2.1864   -1.8842 H         1 <0>         0.0653
     34 H10         3.1431   -4.0213    0.3000 H         1 <0>         0.0670
     35 H11         4.0663   -3.1953   -0.9772 H         1 <0>         0.0698
     36 H12         2.7515   -1.8316    1.4174 H         1 <0>         0.0826
     37 H13         4.4934   -2.1736    1.2474 H         1 <0>         0.0728
     38 H14        10.3235    0.0121    2.0095 H         1 <0>         0.4188
     39 H15        12.5196   -0.7703    2.1301 H         1 <0>         0.4048
     40 H16        12.9501   -2.1898    1.3411 H         1 <0>         0.4279
     41 H17         8.2495    2.3851    0.4924 H         1 <0>         0.4040
     42 H18         8.1332    3.1562    1.9805 H         1 <0>         0.4066
@<TRIPOS>BOND
     1    1    6 ar
     2    1    2 ar
     3    1   26 1
     4    2    3 ar
     5    2   27 1
     6    3    4 ar
     7    3   28 1
     8    4   11 1
     9    4    5 ar
    10    5    6 ar
    11    5    7 1
    12    6   29 1
    13    7    8 1
    14    7   30 1
    15    7   31 1
    16    8    9 1
    17    8   32 1
    18    8   33 1
    19    9   10 1
    20    9   34 1
    21    9   35 1
    22   10   11 1
    23   10   36 1
    24   10   37 1
    25   11   12 1
    26   11   13 1
    27   13   14 1
    28   14   18 2
    29   14   15 1
    30   15   16 2
    31   15   23 1
    32   16   17 1
    33   16   19 1
    34   17   18 1
    35   19   20 am
    36   19   38 1
    37   20   21 2
    38   20   22 am
    39   22   39 1
    40   22   40 1
    41   23   24 2
    42   23   25 am
    43   25   41 1
    44   25   42 1
@<TRIPOS>MOLECULE
ZINC06718813
   46    49     0     0     0
SMALL
USER_CHARGES
3-[4-(3-amino-1H-indazol-4-yl)phenyl]-1-(2-fluoro-5-methyl-phenyl)urea
@<TRIPOS>ATOM
      1 C1          6.9492   -0.6708   -4.4566 C.3       1 <0>        -0.1151
      2 C2          7.3188   -0.0066   -3.1554 C.ar      1 <0>        -0.0747
      3 C3          8.6152   -0.0905   -2.6815 C.ar      1 <0>        -0.1060
      4 C4          8.9590    0.5169   -1.4879 C.ar      1 <0>        -0.1295
      5 C5          8.0061    1.2101   -0.7639 C.ar      1 <0>         0.0645
      6 C6          6.7020    1.2957   -1.2387 C.ar      1 <0>         0.1336
      7 C7          6.3607    0.6802   -2.4351 C.ar      1 <0>        -0.0953
      8 N1          5.7336    1.9963   -0.5085 N.am      1 <0>        -0.6783
      9 C8          4.4547    1.5712   -0.5040 C.2       1 <0>         0.7069
     10 O1          4.1265    0.6239   -1.1921 O.2       1 <0>        -0.5500
     11 N2          3.5395    2.1961    0.2631 N.am      1 <0>        -0.6801
     12 C9          2.2409    1.6865    0.3572 C.ar      1 <0>         0.1677
     13 C10         1.1632    2.5541    0.4899 C.ar      1 <0>        -0.1430
     14 C11        -0.1180    2.0545    0.5834 C.ar      1 <0>        -0.0892
     15 C12        -0.3326    0.6766    0.5442 C.ar      1 <0>        -0.0682
     16 C13         0.7509   -0.1919    0.4104 C.ar      1 <0>        -0.0779
     17 C14         2.0300    0.3132    0.3174 C.ar      1 <0>        -0.1142
     18 C15        -1.7083    0.1367    0.6449 C.ar      1 <0>         0.0376
     19 C16        -2.0347   -0.7648    1.6483 C.ar      1 <0>        -0.1557
     20 C17        -3.3230   -1.2675    1.7456 C.ar      1 <0>        -0.0592
     21 C18        -4.2968   -0.8911    0.8473 C.ar      1 <0>        -0.1529
     22 C19        -3.9969    0.0086   -0.1734 C.ar      1 <0>         0.1547
     23 C20        -2.6946    0.5292   -0.2801 C.ar      1 <0>        -0.1858
     24 C21        -2.7034    1.4283   -1.4324 C.2       1 <0>         0.3642
     25 N3         -3.9099    1.4169   -1.9352 N.2       1 <0>        -0.3205
     26 N4         -4.7292    0.5606   -1.1926 N.pl3     1 <0>        -0.5119
     27 H1         -5.6955    0.3797   -1.3759 H         1 <0>         0.4473
     28 N5         -1.6172    2.1667   -1.9108 N.pl3     1 <0>        -0.8360
     29 F1          8.3418    1.8036    0.4023 F         1 <0>        -0.1384
     30 H2          6.6188   -1.6912   -4.2627 H         1 <0>         0.0755
     31 H3          6.1436   -0.1125   -4.9335 H         1 <0>         0.0695
     32 H4          7.8178   -0.6890   -5.1149 H         1 <0>         0.0704
     33 H5          9.3607   -0.6319   -3.2448 H         1 <0>         0.1352
     34 H6          9.9724    0.4496   -1.1204 H         1 <0>         0.1410
     35 H7          5.3477    0.7413   -2.8045 H         1 <0>         0.1523
     36 H8          5.9835    2.7876   -0.0061 H         1 <0>         0.4118
     37 H9          3.7818    2.9993    0.7499 H         1 <0>         0.4106
     38 H10         1.3298    3.6208    0.5203 H         1 <0>         0.1310
     39 H11        -0.9554    2.7293    0.6824 H         1 <0>         0.1315
     40 H12         0.5876   -1.2590    0.3794 H         1 <0>         0.1314
     41 H13         2.8692   -0.3587    0.2138 H         1 <0>         0.1391
     42 H14        -1.2822   -1.0738    2.3586 H         1 <0>         0.1292
     43 H15        -3.5651   -1.9655    2.5334 H         1 <0>         0.1325
     44 H16        -5.2951   -1.2940    0.9345 H         1 <0>         0.1278
     45 H17        -0.7342    2.0309   -1.5329 H         1 <0>         0.4118
     46 H18        -1.7465    2.8151   -2.6206 H         1 <0>         0.4050
@<TRIPOS>BOND
     1    1    2 1
     2    1   30 1
     3    1   31 1
     4    1   32 1
     5    2    7 ar
     6    2    3 ar
     7    3    4 ar
     8    3   33 1
     9    4    5 ar
    10    4   34 1
    11    5    6 ar
    12    5   29 1
    13    6    7 ar
    14    6    8 1
    15    7   35 1
    16    8    9 am
    17    8   36 1
    18    9   10 2
    19    9   11 am
    20   11   12 1
    21   11   37 1
    22   12   17 ar
    23   12   13 ar
    24   13   14 ar
    25   13   38 1
    26   14   15 ar
    27   14   39 1
    28   15   16 ar
    29   15   18 1
    30   16   17 ar
    31   16   40 1
    32   17   41 1
    33   18   23 ar
    34   18   19 ar
    35   19   20 ar
    36   19   42 1
    37   20   21 ar
    38   20   43 1
    39   21   22 ar
    40   21   44 1
    41   22   26 1
    42   22   23 ar
    43   23   24 1
    44   24   25 2
    45   24   28 1
    46   25   26 1
    47   26   27 1
    48   28   45 1
    49   28   46 1
@<TRIPOS>MOLECULE
ZINC29039424
   61    64     0     0     0
SMALL
USER_CHARGES
4-cyano-N-[4-(4-methylpiperazin-1-yl)-2-(4-methyl-1-piperidyl)phenyl]-1H-pyrrole-2-carboxamide
@<TRIPOS>ATOM
      1 C1         -1.7952   10.8085   -5.3008 C.3       1 <0>        -0.1510
      2 C2         -1.4487    9.4218   -4.7550 C.3       1 <0>        -0.0953
      3 C3         -1.7414    8.3639   -5.8225 C.3       1 <0>        -0.1158
      4 C4         -1.4507    6.9746   -5.2502 C.3       1 <0>         0.0491
      5 N1         -2.2890    6.7463   -4.0663 N.pl3     1 <0>        -0.4894
      6 C5         -1.9920    7.7215   -3.0093 C.3       1 <0>         0.0543
      7 C6         -2.2989    9.1330   -3.5147 C.3       1 <0>        -0.1152
      8 C7         -2.1454    5.4370   -3.5953 C.ar      1 <0>         0.1039
      9 C8         -1.5653    5.2039   -2.3578 C.ar      1 <0>        -0.1579
     10 C9         -1.4237    3.9034   -1.8932 C.ar      1 <0>         0.0904
     11 C10        -1.8575    2.8363   -2.6696 C.ar      1 <0>        -0.1600
     12 C11        -2.4411    3.0667   -3.9008 C.ar      1 <0>        -0.0900
     13 C12        -2.5851    4.3636   -4.3698 C.ar      1 <0>         0.1412
     14 N2         -3.1730    4.5960   -5.6224 N.am      1 <0>        -0.6765
     15 C13        -3.1291    3.6432   -6.5746 C.2       1 <0>         0.5953
     16 O1         -2.6409    2.5564   -6.3259 O.2       1 <0>        -0.5081
     17 C14        -3.6701    3.9162   -7.9114 C.2       1 <0>        -0.0699
     18 C15        -3.6878    3.0434   -8.9597 C.2       1 <0>        -0.0468
     19 C16        -4.2948    3.7131  -10.0456 C.2       1 <0>        -0.1302
     20 C17        -4.6252    4.9811   -9.6073 C.2       1 <0>         0.1193
     21 N3         -4.2524    5.0956   -8.3206 N.pl3     1 <0>        -0.5365
     22 H1         -4.3453    5.9362   -7.6172 H         1 <0>         0.4502
     23 C18        -4.5247    3.1782  -11.3539 C.1       1 <0>         0.2793
     24 N4         -4.7071    2.7539  -12.3918 N.1       1 <0>        -0.4191
     25 N5         -0.8386    3.6670   -0.6448 N.pl3     1 <0>        -0.4856
     26 C19        -0.7877    2.2280   -0.3510 C.3       1 <0>         0.0192
     27 C20        -0.0711    2.0075    0.9832 C.3       1 <0>        -0.0009
     28 N6         -0.7820    2.7339    2.0446 N.4       1 <0>        -0.4033
     29 C21        -0.8333    4.1729    1.7505 C.3       1 <0>        -0.0010
     30 C22        -1.5499    4.3934    0.4163 C.3       1 <0>         0.0255
     31 C23        -0.1671    2.4856    3.3554 C.3       1 <0>        -0.0453
     32 H2         -1.1840   11.0151   -6.1917 H         1 <0>         0.0579
     33 H3         -1.5899   11.5672   -4.5313 H         1 <0>         0.0574
     34 H4         -2.8608   10.8401   -5.5718 H         1 <0>         0.0575
     35 H5         -0.3820    9.3932   -4.4879 H         1 <0>         0.0689
     36 H6         -2.7986    8.4260   -6.1200 H         1 <0>         0.0735
     37 H7         -1.1025    8.5419   -6.7001 H         1 <0>         0.0761
     38 H8         -1.6741    6.2110   -6.0099 H         1 <0>         0.0831
     39 H9         -0.3900    6.9097   -4.9659 H         1 <0>         0.0476
     40 H10        -2.6120    7.5057   -2.1266 H         1 <0>         0.0803
     41 H11        -0.9287    7.6536   -2.7360 H         1 <0>         0.0462
     42 H12        -2.0617    9.8654   -2.7290 H         1 <0>         0.0736
     43 H13        -3.3650    9.2073   -3.7755 H         1 <0>         0.0756
     44 H14        -1.2243    6.0331   -1.7557 H         1 <0>         0.1342
     45 H15        -1.7421    1.8251   -2.3085 H         1 <0>         0.1295
     46 H16        -2.7815    2.2354   -4.5004 H         1 <0>         0.1622
     47 H17        -3.6697    5.5558   -5.8273 H         1 <0>         0.4318
     48 H18        -3.3091    2.0320   -8.9596 H         1 <0>         0.1600
     49 H19        -5.1056    5.7482  -10.1966 H         1 <0>         0.1908
     50 H20        -1.8113    1.8301   -0.2887 H         1 <0>         0.0728
     51 H21        -0.2408    1.7093   -1.1522 H         1 <0>         0.1310
     52 H22        -0.0574    0.9331    1.2189 H         1 <0>         0.1405
     53 H23         0.9613    2.3802    0.9109 H         1 <0>         0.1361
     54 H24        -1.3804    4.6916    2.5516 H         1 <0>         0.1394
     55 H25         0.1902    4.5711    1.6881 H         1 <0>         0.1359
     56 H26        -1.5637    5.4675    0.1795 H         1 <0>         0.1253
     57 H27        -2.5823    4.0204    0.4875 H         1 <0>         0.0700
     58 H28        -0.7177    3.0401    4.1296 H         1 <0>         0.1252
     59 H29         0.8802    2.8216    3.3386 H         1 <0>         0.1202
     60 H30        -0.2034    1.4093    3.5794 H         1 <0>         0.1258
     61 H31        -1.8150    2.3576    2.0808 H         1 <0>         0.4419
@<TRIPOS>BOND
     1    1    2 1
     2    1   32 1
     3    1   33 1
     4    1   34 1
     5    2    7 1
     6    2    3 1
     7    2   35 1
     8    3    4 1
     9    3   36 1
    10    3   37 1
    11    4    5 1
    12    4   38 1
    13    4   39 1
    14    5    6 1
    15    5    8 1
    16    6    7 1
    17    6   40 1
    18    6   41 1
    19    7   42 1
    20    7   43 1
    21    8   13 ar
    22    8    9 ar
    23    9   10 ar
    24    9   44 1
    25   10   11 ar
    26   10   25 1
    27   11   12 ar
    28   11   45 1
    29   12   13 ar
    30   12   46 1
    31   13   14 1
    32   14   15 am
    33   14   47 1
    34   15   16 2
    35   15   17 1
    36   17   21 1
    37   17   18 2
    38   18   19 1
    39   18   48 1
    40   19   20 2
    41   19   23 1
    42   20   21 1
    43   20   49 1
    44   21   22 1
    45   23   24 3
    46   25   30 1
    47   25   26 1
    48   26   27 1
    49   26   50 1
    50   26   51 1
    51   27   28 1
    52   27   52 1
    53   27   53 1
    54   28   29 1
    55   28   31 1
    56   28   61 1
    57   29   30 1
    58   29   54 1
    59   29   55 1
    60   30   56 1
    61   30   57 1
    62   31   58 1
    63   31   59 1
    64   31   60 1
@<TRIPOS>MOLECULE
ZINC13985942
   49    51     0     0     0
SMALL
USER_CHARGES
5-[[3-methoxy-4-[(4-methoxyphenyl)methoxy]phenyl]methyl]pyrimidine-2,4-diamine
@<TRIPOS>ATOM
      1 C1          8.1395   -2.6131   -1.3573 C.3       1 <0>         0.0256
      2 O1          7.5480   -2.3801   -0.0774 O.3       1 <0>        -0.3162
      3 C2          6.2845   -1.8798   -0.0635 C.ar      1 <0>         0.1383
      4 C3          5.6496   -1.6295    1.1443 C.ar      1 <0>        -0.1549
      5 C4          4.3654   -1.1205    1.1558 C.ar      1 <0>        -0.0533
      6 C5          3.7129   -0.8606   -0.0352 C.ar      1 <0>        -0.1346
      7 C6          4.3414   -1.1146   -1.2403 C.ar      1 <0>        -0.0529
      8 C7          5.6277   -1.6182   -1.2571 C.ar      1 <0>        -0.2116
      9 C8          2.3119   -0.3054   -0.0198 C.3       1 <0>         0.1061
     10 O2          2.3655    1.1226   -0.0136 O.3       1 <0>        -0.2981
     11 C9          1.1779    1.7849    0.0004 C.ar      1 <0>         0.0987
     12 C10        -0.0126    1.0758    0.0080 C.ar      1 <0>        -0.1694
     13 C11        -1.2190    1.7507    0.0173 C.ar      1 <0>        -0.1147
     14 C12        -1.2413    3.1330    0.0298 C.ar      1 <0>        -0.0747
     15 C13        -0.0572    3.8465    0.0223 C.ar      1 <0>        -0.1655
     16 C14         1.1554    3.1762    0.0076 C.ar      1 <0>         0.1050
     17 O3          2.3211    3.8766    0.0007 O.3       1 <0>        -0.3053
     18 C15         2.2216    5.3021    0.0087 C.3       1 <0>         0.0255
     19 C16        -2.5592    3.8636    0.0458 C.3       1 <0>        -0.0120
     20 C17        -3.0118    4.1143   -1.3696 C.ar      1 <0>        -0.3055
     21 C18        -2.7356    5.3131   -1.9977 C.ar      1 <0>         0.2217
     22 N1         -3.1469    5.5024   -3.2428 N.ar      1 <0>        -0.6052
     23 C19        -3.8168    4.5598   -3.8895 C.ar      1 <0>         0.6015
     24 N2         -4.1013    3.3968   -3.3233 N.ar      1 <0>        -0.6272
     25 C20        -3.7149    3.1377   -2.0781 C.ar      1 <0>         0.4879
     26 N3         -4.0096    1.9184   -1.4901 N.pl3     1 <0>        -0.8353
     27 N4         -4.2292    4.7962   -5.1893 N.pl3     1 <0>        -0.8219
     28 H1          9.1455   -3.0115   -1.2255 H         1 <0>         0.1022
     29 H2          7.5344   -3.3303   -1.9120 H         1 <0>         0.0569
     30 H3          8.1897   -1.6753   -1.9105 H         1 <0>         0.0572
     31 H4          6.1588   -1.8326    2.0748 H         1 <0>         0.1345
     32 H5          3.8708   -0.9251    2.0958 H         1 <0>         0.1321
     33 H6          3.8278   -0.9152   -2.1692 H         1 <0>         0.1268
     34 H7          6.1198   -1.8122   -2.1987 H         1 <0>         0.1312
     35 H8          1.7930   -0.6534    0.8733 H         1 <0>         0.0704
     36 H9          1.7767   -0.6451   -0.9065 H         1 <0>         0.0686
     37 H10         0.0021   -0.0041    0.0020 H         1 <0>         0.1345
     38 H11        -2.1462    1.1969    0.0191 H         1 <0>         0.1198
     39 H12        -0.0774    4.9263    0.0276 H         1 <0>         0.1354
     40 H13         1.6757    5.6332   -0.8747 H         1 <0>         0.0551
     41 H14         1.6916    5.6243    0.9051 H         1 <0>         0.0557
     42 H15         3.2214    5.7363    0.0020 H         1 <0>         0.1006
     43 H16        -3.3037    3.2588    0.5635 H         1 <0>         0.0754
     44 H17        -2.4407    4.8155    0.5633 H         1 <0>         0.0856
     45 H18        -2.1899    6.0877   -1.4794 H         1 <0>         0.1621
     46 H19        -3.7272    1.7381   -0.5798 H         1 <0>         0.4095
     47 H20        -4.4984    1.2450   -1.9887 H         1 <0>         0.4062
     48 H21        -4.0270    5.6436   -5.6157 H         1 <0>         0.4151
     49 H22        -4.7204    4.1144   -5.6738 H         1 <0>         0.4129
@<TRIPOS>BOND
     1    1    2 1
     2    1   28 1
     3    1   29 1
     4    1   30 1
     5    2    3 1
     6    3    8 ar
     7    3    4 ar
     8    4    5 ar
     9    4   31 1
    10    5    6 ar
    11    5   32 1
    12    6    7 ar
    13    6    9 1
    14    7    8 ar
    15    7   33 1
    16    8   34 1
    17    9   10 1
    18    9   35 1
    19    9   36 1
    20   10   11 1
    21   11   16 ar
    22   11   12 ar
    23   12   13 ar
    24   12   37 1
    25   13   14 ar
    26   13   38 1
    27   14   15 ar
    28   14   19 1
    29   15   16 ar
    30   15   39 1
    31   16   17 1
    32   17   18 1
    33   18   40 1
    34   18   41 1
    35   18   42 1
    36   19   20 1
    37   19   43 1
    38   19   44 1
    39   20   25 ar
    40   20   21 ar
    41   21   22 ar
    42   21   45 1
    43   22   23 ar
    44   23   24 ar
    45   23   27 1
    46   24   25 ar
    47   25   26 1
    48   26   46 1
    49   26   47 1
    50   27   48 1
    51   27   49 1
@<TRIPOS>MOLECULE
ZINC13985942
   50    52     0     0     0
SMALL
USER_CHARGES
5-[[3-methoxy-4-[(4-methoxyphenyl)methoxy]phenyl]methyl]pyrimidine-2,4-diamine
@<TRIPOS>ATOM
      1 C1          8.1395   -2.6131   -1.3573 C.3       1 <0>         0.0248
      2 O1          7.5480   -2.3801   -0.0774 O.3       1 <0>        -0.3141
      3 C2          6.2845   -1.8798   -0.0635 C.ar      1 <0>         0.1443
      4 C3          5.6496   -1.6295    1.1443 C.ar      1 <0>        -0.1542
      5 C4          4.3654   -1.1205    1.1558 C.ar      1 <0>        -0.0518
      6 C5          3.7129   -0.8606   -0.0352 C.ar      1 <0>        -0.1432
      7 C6          4.3414   -1.1146   -1.2403 C.ar      1 <0>        -0.0521
      8 C7          5.6277   -1.6182   -1.2571 C.ar      1 <0>        -0.2122
      9 C8          2.3119   -0.3054   -0.0198 C.3       1 <0>         0.1072
     10 O2          2.3655    1.1226   -0.0136 O.3       1 <0>        -0.2938
     11 C9          1.1779    1.7849    0.0004 C.ar      1 <0>         0.1169
     12 C10        -0.0126    1.0758    0.0080 C.ar      1 <0>        -0.1691
     13 C11        -1.2190    1.7507    0.0173 C.ar      1 <0>        -0.1122
     14 C12        -1.2413    3.1330    0.0298 C.ar      1 <0>        -0.1043
     15 C13        -0.0572    3.8465    0.0223 C.ar      1 <0>        -0.1662
     16 C14         1.1554    3.1762    0.0076 C.ar      1 <0>         0.1092
     17 O3          2.3211    3.8766    0.0007 O.3       1 <0>        -0.2997
     18 C15         2.2216    5.3021    0.0087 C.3       1 <0>         0.0252
     19 C16        -2.5592    3.8636    0.0458 C.3       1 <0>        -0.0236
     20 C17        -3.0118    4.1143   -1.3696 C.ar      1 <0>        -0.2161
     21 C18        -2.7356    5.3131   -1.9977 C.ar      1 <0>         0.2017
     22 C19        -3.8168    4.5598   -3.8895 C.ar      1 <0>         0.6681
     23 N1         -4.1013    3.3968   -3.3233 N.ar      1 <0>        -0.5671
     24 C20        -3.7149    3.1377   -2.0781 C.ar      1 <0>         0.5394
     25 N2         -4.0096    1.9184   -1.4901 N.pl3     1 <0>        -0.7752
     26 N3         -4.2292    4.7962   -5.1893 N.pl3     1 <0>        -0.7923
     27 H1          9.1455   -3.0115   -1.2255 H         1 <0>         0.1047
     28 H2          7.5344   -3.3303   -1.9120 H         1 <0>         0.0579
     29 H3          8.1897   -1.6753   -1.9105 H         1 <0>         0.0577
     30 H4          6.1588   -1.8326    2.0748 H         1 <0>         0.1366
     31 H5          3.8708   -0.9251    2.0958 H         1 <0>         0.1321
     32 H6          3.8278   -0.9152   -2.1692 H         1 <0>         0.1254
     33 H7          6.1198   -1.8122   -2.1987 H         1 <0>         0.1326
     34 H8          1.7930   -0.6534    0.8733 H         1 <0>         0.0735
     35 H9          1.7767   -0.6451   -0.9065 H         1 <0>         0.0704
     36 H10         0.0021   -0.0041    0.0020 H         1 <0>         0.1411
     37 H11        -2.1462    1.1969    0.0191 H         1 <0>         0.1190
     38 H12        -0.0774    4.9263    0.0276 H         1 <0>         0.1366
     39 H13         1.6757    5.6332   -0.8747 H         1 <0>         0.0517
     40 H14         1.6916    5.6243    0.9051 H         1 <0>         0.0583
     41 H15         3.2214    5.7363    0.0020 H         1 <0>         0.1059
     42 H16        -3.3037    3.2588    0.5635 H         1 <0>         0.0977
     43 H17        -2.4407    4.8155    0.5633 H         1 <0>         0.1078
     44 H18        -2.1899    6.0877   -1.4794 H         1 <0>         0.2034
     45 H19        -3.7272    1.7381   -0.5798 H         1 <0>         0.4297
     46 H20        -4.4984    1.2450   -1.9887 H         1 <0>         0.4288
     47 H21        -4.0270    5.6436   -5.6157 H         1 <0>         0.4304
     48 H22        -4.7204    4.1144   -5.6738 H         1 <0>         0.4426
     49 N4         -3.1321    5.5670   -3.2770 N.ar      1 <0>        -0.5953
     50 H23        -2.9158    6.4458   -3.7024 H         1 <0>         0.4620
@<TRIPOS>BOND
     1    1    2 1
     2    1   27 1
     3    1   28 1
     4    1   29 1
     5    2    3 1
     6    3    8 ar
     7    3    4 ar
     8    4    5 ar
     9    4   30 1
    10    5    6 ar
    11    5   31 1
    12    6    7 ar
    13    6    9 1
    14    7    8 ar
    15    7   32 1
    16    8   33 1
    17    9   10 1
    18    9   34 1
    19    9   35 1
    20   10   11 1
    21   11   16 ar
    22   11   12 ar
    23   12   13 ar
    24   12   36 1
    25   13   14 ar
    26   13   37 1
    27   14   15 ar
    28   14   19 1
    29   15   16 ar
    30   15   38 1
    31   16   17 1
    32   17   18 1
    33   18   39 1
    34   18   40 1
    35   18   41 1
    36   19   20 1
    37   19   42 1
    38   19   43 1
    39   20   24 ar
    40   20   21 ar
    41   21   44 1
    42   21   49 ar
    43   22   23 ar
    44   22   26 1
    45   22   49 ar
    46   23   24 ar
    47   24   25 1
    48   25   45 1
    49   25   46 1
    50   26   47 1
    51   26   48 1
    52   49   50 1
@<TRIPOS>MOLECULE
ZINC13985942
   50    52     0     0     0
SMALL
USER_CHARGES
5-[[3-methoxy-4-[(4-methoxyphenyl)methoxy]phenyl]methyl]pyrimidine-2,4-diamine
@<TRIPOS>ATOM
      1 C1          8.1395   -2.6131   -1.3573 C.3       1 <0>         0.0247
      2 O1          7.5480   -2.3801   -0.0774 O.3       1 <0>        -0.3139
      3 C2          6.2845   -1.8798   -0.0635 C.ar      1 <0>         0.1451
      4 C3          5.6496   -1.6295    1.1443 C.ar      1 <0>        -0.1542
      5 C4          4.3654   -1.1205    1.1558 C.ar      1 <0>        -0.0515
      6 C5          3.7129   -0.8606   -0.0352 C.ar      1 <0>        -0.1446
      7 C6          4.3414   -1.1146   -1.2403 C.ar      1 <0>        -0.0519
      8 C7          5.6277   -1.6182   -1.2571 C.ar      1 <0>        -0.2122
      9 C8          2.3119   -0.3054   -0.0198 C.3       1 <0>         0.1070
     10 O2          2.3655    1.1226   -0.0136 O.3       1 <0>        -0.2921
     11 C9          1.1779    1.7849    0.0004 C.ar      1 <0>         0.1210
     12 C10        -0.0126    1.0758    0.0080 C.ar      1 <0>        -0.1699
     13 C11        -1.2190    1.7507    0.0173 C.ar      1 <0>        -0.1159
     14 C12        -1.2413    3.1330    0.0298 C.ar      1 <0>        -0.1124
     15 C13        -0.0572    3.8465    0.0223 C.ar      1 <0>        -0.1631
     16 C14         1.1554    3.1762    0.0076 C.ar      1 <0>         0.1125
     17 O3          2.3211    3.8766    0.0007 O.3       1 <0>        -0.2982
     18 C15         2.2216    5.3021    0.0087 C.3       1 <0>         0.0230
     19 C16        -2.5592    3.8636    0.0458 C.3       1 <0>        -0.0209
     20 C17        -3.0118    4.1143   -1.3696 C.ar      1 <0>        -0.2699
     21 C18        -2.7356    5.3131   -1.9977 C.ar      1 <0>         0.2541
     22 C19        -3.8168    4.5598   -3.8895 C.ar      1 <0>         0.5802
     23 N1         -4.1013    3.3968   -3.3233 N.ar      1 <0>        -0.5248
     24 C20        -3.7149    3.1377   -2.0781 C.ar      1 <0>         0.3637
     25 N2         -4.0096    1.9184   -1.4901 N.pl3     1 <0>        -0.7710
     26 N3         -4.2292    4.7962   -5.1893 N.pl3     1 <0>        -0.7389
     27 H1          9.1455   -3.0115   -1.2255 H         1 <0>         0.1050
     28 H2          7.5344   -3.3303   -1.9120 H         1 <0>         0.0580
     29 H3          8.1897   -1.6753   -1.9105 H         1 <0>         0.0579
     30 H4          6.1588   -1.8326    2.0748 H         1 <0>         0.1369
     31 H5          3.8708   -0.9251    2.0958 H         1 <0>         0.1321
     32 H6          3.8278   -0.9152   -2.1692 H         1 <0>         0.1254
     33 H7          6.1198   -1.8122   -2.1987 H         1 <0>         0.1329
     34 H8          1.7930   -0.6534    0.8733 H         1 <0>         0.0741
     35 H9          1.7767   -0.6451   -0.9065 H         1 <0>         0.0707
     36 H10         0.0021   -0.0041    0.0020 H         1 <0>         0.1429
     37 H11        -2.1462    1.1969    0.0191 H         1 <0>         0.1181
     38 H12        -0.0774    4.9263    0.0276 H         1 <0>         0.1408
     39 H13         1.6757    5.6332   -0.8747 H         1 <0>         0.0547
     40 H14         1.6916    5.6243    0.9051 H         1 <0>         0.0596
     41 H15         3.2214    5.7363    0.0020 H         1 <0>         0.1074
     42 H16        -3.3037    3.2588    0.5635 H         1 <0>         0.1031
     43 H17        -2.4407    4.8155    0.5633 H         1 <0>         0.1225
     44 H18        -2.1899    6.0877   -1.4794 H         1 <0>         0.2181
     45 H19        -3.7272    1.7381   -0.5798 H         1 <0>         0.4502
     46 H20        -4.4984    1.2450   -1.9887 H         1 <0>         0.4468
     47 H21        -4.0270    5.6436   -5.6157 H         1 <0>         0.4495
     48 H22        -4.7204    4.1144   -5.6738 H         1 <0>         0.4368
     49 N4         -3.1321    5.5670   -3.2770 N.ar      1 <0>        -0.4883
     50 H23        -3.8088    3.2127   -2.3849 H         1 <0>         0.4190
@<TRIPOS>BOND
     1    1    2 1
     2    1   27 1
     3    1   28 1
     4    1   29 1
     5    2    3 1
     6    3    8 ar
     7    3    4 ar
     8    4    5 ar
     9    4   30 1
    10    5    6 ar
    11    5   31 1
    12    6    7 ar
    13    6    9 1
    14    7    8 ar
    15    7   32 1
    16    8   33 1
    17    9   10 1
    18    9   34 1
    19    9   35 1
    20   10   11 1
    21   11   16 ar
    22   11   12 ar
    23   12   13 ar
    24   12   36 1
    25   13   14 ar
    26   13   37 1
    27   14   15 ar
    28   14   19 1
    29   15   16 ar
    30   15   38 1
    31   16   17 1
    32   17   18 1
    33   18   39 1
    34   18   40 1
    35   18   41 1
    36   19   20 1
    37   19   42 1
    38   19   43 1
    39   20   24 ar
    40   20   21 ar
    41   21   44 1
    42   21   49 ar
    43   22   23 ar
    44   22   26 1
    45   22   49 ar
    46   23   24 ar
    47   23   50 1
    48   24   25 1
    49   25   45 1
    50   25   46 1
    51   26   47 1
    52   26   48 1
@<TRIPOS>MOLECULE
ZINC03872984
   56    63     0     0     0
SMALL
USER_CHARGES

@<TRIPOS>ATOM
      1 C1         -1.1449    0.9207   -2.2992 C.3       1 <0>        -0.1734
      2 C2         -0.8443   -0.1869   -1.2874 C.3       1 <0>         0.3608
      3 C3          0.6608   -0.5271   -1.2917 C.3       1 <0>         0.1089
      4 C4          1.0548   -0.6349    0.1959 C.3       1 <0>        -0.1931
      5 C5         -0.2437   -0.3496    0.9788 C.3       1 <0>         0.3159
      6 H1         -0.0464    0.3283    1.8093 H         1 <0>         0.1526
      7 O1         -1.1290    0.2586    0.0385 O.3       1 <0>        -0.3365
      8 N1         -0.7907   -1.6169    1.4725 N.pl3     1 <0>        -0.5139
      9 C6         -0.6316   -2.1589    2.7227 C.ar      1 <0>         0.1521
     10 C7          0.1280   -1.7303    3.8106 C.ar      1 <0>        -0.1535
     11 C8          0.0716   -2.4964    4.9622 C.ar      1 <0>        -0.0728
     12 C9         -0.6995   -3.6426    5.0489 C.ar      1 <0>        -0.1588
     13 C10        -1.4586   -4.0939    3.9832 C.ar      1 <0>        -0.0351
     14 C11        -1.4138   -3.3367    2.8110 C.ar      1 <0>        -0.1065
     15 C12        -2.0522   -3.5178    1.5109 C.ar      1 <0>         0.0000
     16 C13        -1.6151   -2.4505    0.7283 C.ar      1 <0>         0.1116
     17 C14        -1.9686   -2.3749   -0.6239 C.ar      1 <0>         0.1598
     18 N2         -1.6213   -1.3899   -1.6007 N.pl3     1 <0>        -0.5050
     19 C15        -2.1482   -1.7391   -2.8210 C.ar      1 <0>         0.1774
     20 C16        -2.0102   -1.1429   -4.0736 C.ar      1 <0>        -0.1496
     21 C17        -2.6914   -1.7253   -5.1291 C.ar      1 <0>        -0.0801
     22 C18        -3.4791   -2.8511   -4.9669 C.ar      1 <0>        -0.1542
     23 C19        -3.6271   -3.4663   -3.7348 C.ar      1 <0>        -0.0533
     24 C20        -2.9440   -2.8977   -2.6603 C.ar      1 <0>        -0.0998
     25 C21        -2.7951   -3.3523   -1.1935 C.ar      1 <0>        -0.0500
     26 C22        -3.2927   -4.3756   -0.3931 C.ar      1 <0>        -0.0443
     27 C23        -2.9346   -4.4703    0.9497 C.ar      1 <0>        -0.1321
     28 C24        -3.6117   -5.6413    1.5281 C.2       1 <0>         0.5681
     29 O2         -3.5170   -5.9945    2.6881 O.2       1 <0>        -0.5237
     30 N3         -4.3501   -6.2651    0.5950 N.am      1 <0>        -0.7231
     31 C25        -4.2144   -5.5378   -0.6718 C.3       1 <0>         0.1445
     32 C26         1.4435    0.5727   -1.9615 C.2       1 <0>         0.4474
     33 O3          1.9444    1.4488   -1.2970 O.2       1 <0>        -0.4796
     34 O4          1.5843    0.5792   -3.2964 O.3       1 <0>        -0.3367
     35 C27         2.3389    1.6518   -3.8640 C.3       1 <0>         0.0263
     36 O5          0.8858   -1.7724   -1.9557 O.3       1 <0>        -0.5063
     37 H2         -0.8247    1.8803   -1.8932 H         1 <0>         0.0927
     38 H3         -0.6079    0.7211   -3.2265 H         1 <0>         0.1054
     39 H4         -2.2161    0.9498   -2.4986 H         1 <0>         0.0969
     40 H5          1.4184   -1.6379    0.4192 H         1 <0>         0.1158
     41 H6          1.8148    0.1070    0.4406 H         1 <0>         0.1253
     42 H7          0.7351   -0.8387    3.7568 H         1 <0>         0.1302
     43 H8          0.6489   -2.1895    5.8218 H         1 <0>         0.1266
     44 H9         -0.7088   -4.2005    5.9737 H         1 <0>         0.1257
     45 H10        -2.0581   -4.9894    4.0552 H         1 <0>         0.1522
     46 H11        -1.3985   -0.2640   -4.2147 H         1 <0>         0.1366
     47 H12        -2.6051   -1.2859   -6.1119 H         1 <0>         0.1259
     48 H13        -3.9928   -3.2611   -5.8239 H         1 <0>         0.1251
     49 H14        -4.2422   -4.3455   -3.6122 H         1 <0>         0.1356
     50 H15        -4.8835   -7.0630    0.7354 H         1 <0>         0.4273
     51 H16        -5.1877   -5.1737   -1.0009 H         1 <0>         0.1006
     52 H17        -3.7798   -6.1869   -1.4321 H         1 <0>         0.1012
     53 H18         2.3752    1.5370   -4.9473 H         1 <0>         0.1105
     54 H19         1.8648    2.6011   -3.6149 H         1 <0>         0.0661
     55 H20         3.3522    1.6353   -3.4627 H         1 <0>         0.0654
     56 H21         1.8150   -2.0380   -1.9892 H         1 <0>         0.3910
@<TRIPOS>BOND
     1    1    2 1
     2    1   37 1
     3    1   38 1
     4    1   39 1
     5    2    7 1
     6    2   18 1
     7    2    3 1
     8    3    4 1
     9    3   32 1
    10    3   36 1
    11    4    5 1
    12    4   40 1
    13    4   41 1
    14    5    6 1
    15    5    7 1
    16    5    8 1
    17    8   16 1
    18    8    9 1
    19    9   14 ar
    20    9   10 ar
    21   10   11 ar
    22   10   42 1
    23   11   12 ar
    24   11   43 1
    25   12   13 ar
    26   12   44 1
    27   13   14 ar
    28   13   45 1
    29   14   15 1
    30   15   27 ar
    31   15   16 ar
    32   16   17 ar
    33   17   25 ar
    34   17   18 1
    35   18   19 1
    36   19   24 ar
    37   19   20 ar
    38   20   21 ar
    39   20   46 1
    40   21   22 ar
    41   21   47 1
    42   22   23 ar
    43   22   48 1
    44   23   24 ar
    45   23   49 1
    46   24   25 1
    47   25   26 ar
    48   26   31 1
    49   26   27 ar
    50   27   28 1
    51   28   29 2
    52   28   30 am
    53   30   31 1
    54   30   50 1
    55   31   51 1
    56   31   52 1
    57   32   33 2
    58   32   34 1
    59   34   35 1
    60   35   53 1
    61   35   54 1
    62   35   55 1
    63   36   56 1
@<TRIPOS>MOLECULE
ZINC22448983
   66    69     0     0     0
SMALL
USER_CHARGES
4-[(2,4-dichloro-5-methoxy-phenyl)amino]-6-methoxy-7-[3-(4-methylpiperazin-1-yl)propoxy]quinoline-3-carbonitrile
@<TRIPOS>ATOM
      1 C1        -10.0137   -6.5102   -1.8158 C.3       1 <0>        -0.0453
      2 N1         -8.6540   -6.0169   -1.5593 N.4       1 <0>        -0.4030
      3 C2         -7.7903   -6.2205   -2.7307 C.3       1 <0>        -0.0001
      4 C3         -6.3670   -5.7678   -2.3965 C.3       1 <0>         0.0245
      5 N2         -6.3862   -4.3530   -1.9994 N.3       1 <0>        -0.5385
      6 C4         -7.2499   -4.1494   -0.8281 C.3       1 <0>         0.0179
      7 C5         -8.6733   -4.6021   -1.1623 C.3       1 <0>         0.0000
      8 C6         -5.0265   -3.8597   -1.7430 C.3       1 <0>         0.0567
      9 C7         -5.0583   -2.3389   -1.5783 C.3       1 <0>        -0.1184
     10 C8         -3.6421   -1.8251   -1.3112 C.3       1 <0>         0.0518
     11 O1         -3.6719   -0.4047   -1.1574 O.3       1 <0>        -0.2957
     12 C9         -2.4875    0.2141   -0.9129 C.ar      1 <0>         0.1552
     13 C10        -1.3345   -0.5326   -0.8253 C.ar      1 <0>        -0.1775
     14 C11        -0.1099    0.1042   -0.5728 C.ar      1 <0>         0.1880
     15 C12        -0.0839    1.5107   -0.4123 C.ar      1 <0>        -0.1309
     16 C13        -1.2740    2.2476   -0.5007 C.ar      1 <0>        -0.1492
     17 C14        -2.4527    1.6062   -0.7522 C.ar      1 <0>         0.1113
     18 O2         -3.6043    2.3237   -0.8425 O.3       1 <0>        -0.3022
     19 C15        -3.5023    3.7385   -0.6693 C.3       1 <0>         0.0181
     20 C16         1.1518    2.1498   -0.1579 C.ar      1 <0>         0.3245
     21 C17         2.2996    1.3468   -0.0768 C.ar      1 <0>        -0.1668
     22 C18         2.1804   -0.0418   -0.2488 C.ar      1 <0>         0.2178
     23 N3          1.0238   -0.6069   -0.4836 N.ar      1 <0>        -0.5049
     24 C19         3.5791    1.9370    0.1785 C.1       1 <0>         0.2512
     25 N4          4.5940    2.4052    0.3811 N.1       1 <0>        -0.4037
     26 N5          1.2264    3.5186    0.0048 N.pl3     1 <0>        -0.6798
     27 C20         2.4372    4.1835   -0.2122 C.ar      1 <0>         0.1811
     28 C21         3.1043    4.7773    0.8508 C.ar      1 <0>        -0.1911
     29 C22         4.3041    5.4350    0.6325 C.ar      1 <0>         0.1715
     30 C23         4.8372    5.4992   -0.6482 C.ar      1 <0>        -0.0467
     31 C24         4.1721    4.9075   -1.7063 C.ar      1 <0>        -0.0516
     32 C25         2.9774    4.2459   -1.4914 C.ar      1 <0>        -0.0699
     33 Cl1         2.1481    3.4984   -2.8208 Cl        1 <0>        -0.0422
     34 Cl2         6.3403    6.3238   -0.9213 Cl        1 <0>        -0.0317
     35 O3          4.9590    6.0176    1.6716 O.3       1 <0>        -0.2942
     36 C26         4.4145    5.8149    2.9772 C.3       1 <0>         0.0202
     37 H1         -9.9701   -7.5691   -2.1104 H         1 <0>         0.1247
     38 H2        -10.4701   -5.9227   -2.6260 H         1 <0>         0.1201
     39 H3        -10.6190   -6.4082   -0.9030 H         1 <0>         0.1247
     40 H4         -7.7832   -7.2870   -3.0001 H         1 <0>         0.1368
     41 H5         -8.1745   -5.6313   -3.5764 H         1 <0>         0.1352
     42 H6         -5.9734   -6.3765   -1.5691 H         1 <0>         0.0623
     43 H7         -5.7253   -5.8927   -3.2811 H         1 <0>         0.1248
     44 H8         -6.8657   -4.7386    0.0176 H         1 <0>         0.0625
     45 H9         -7.2570   -3.0829   -0.5587 H         1 <0>         0.1270
     46 H10        -9.0676   -3.9944   -1.9901 H         1 <0>         0.1353
     47 H11        -9.3157   -4.4781   -0.2780 H         1 <0>         0.1365
     48 H12        -4.6368   -4.3201   -0.8231 H         1 <0>         0.0524
     49 H13        -4.3751   -4.1233   -2.5893 H         1 <0>         0.0947
     50 H14        -5.4480   -1.8786   -2.4982 H         1 <0>         0.0902
     51 H15        -5.7097   -2.0753   -0.7320 H         1 <0>         0.0766
     52 H16        -3.2525   -2.2855   -0.3913 H         1 <0>         0.0692
     53 H17        -2.9907   -2.0887   -2.1575 H         1 <0>         0.0725
     54 H18        -1.3723   -1.6047   -0.9499 H         1 <0>         0.1520
     55 H19        -1.2569    3.3205   -0.3782 H         1 <0>         0.1400
     56 H20        -4.4995    4.1926   -0.7662 H         1 <0>         0.1079
     57 H21        -2.8337    4.1546   -1.4373 H         1 <0>         0.0600
     58 H22        -3.0952    3.9573    0.3289 H         1 <0>         0.0585
     59 H23         3.0649   -0.6582   -0.1860 H         1 <0>         0.1683
     60 H24         0.3333    4.0863    0.3052 H         1 <0>         0.4433
     61 H25         2.6888    4.7264    1.8464 H         1 <0>         0.1497
     62 H26         4.5888    4.9585   -2.7013 H         1 <0>         0.1559
     63 H27         5.0369    6.3367    3.7191 H         1 <0>         0.1117
     64 H28         4.3977    4.7388    3.2044 H         1 <0>         0.0607
     65 H29         3.3898    6.2132    3.0130 H         1 <0>         0.0594
     66 H30        -8.2365   -6.5985   -0.7241 H         1 <0>         0.4406
@<TRIPOS>BOND
     1    1    2 1
     2    1   37 1
     3    1   38 1
     4    1   39 1
     5    2    7 1
     6    2    3 1
     7    2   66 1
     8    3    4 1
     9    3   40 1
    10    3   41 1
    11    4    5 1
    12    4   42 1
    13    4   43 1
    14    5    6 1
    15    5    8 1
    16    6    7 1
    17    6   44 1
    18    6   45 1
    19    7   46 1
    20    7   47 1
    21    8    9 1
    22    8   48 1
    23    8   49 1
    24    9   10 1
    25    9   50 1
    26    9   51 1
    27   10   11 1
    28   10   52 1
    29   10   53 1
    30   11   12 1
    31   12   17 ar
    32   12   13 ar
    33   13   14 ar
    34   13   54 1
    35   14   23 ar
    36   14   15 ar
    37   15   16 ar
    38   15   20 ar
    39   16   17 ar
    40   16   55 1
    41   17   18 1
    42   18   19 1
    43   19   56 1
    44   19   57 1
    45   19   58 1
    46   20   21 ar
    47   20   26 1
    48   21   22 ar
    49   21   24 1
    50   22   23 ar
    51   22   59 1
    52   24   25 3
    53   26   27 1
    54   26   60 1
    55   27   32 ar
    56   27   28 ar
    57   28   29 ar
    58   28   61 1
    59   29   30 ar
    60   29   35 1
    61   30   31 ar
    62   30   34 1
    63   31   32 ar
    64   31   62 1
    65   32   33 1
    66   35   36 1
    67   36   63 1
    68   36   64 1
    69   36   65 1
@<TRIPOS>MOLECULE
ZINC22448983
   66    69     0     0     0
SMALL
USER_CHARGES
4-[(2,4-dichloro-5-methoxy-phenyl)amino]-6-methoxy-7-[3-(4-methylpiperazin-1-yl)propoxy]quinoline-3-carbonitrile
@<TRIPOS>ATOM
      1 C1        -10.0137   -6.5102   -1.8158 C.3       1 <0>         0.0169
      2 N1         -8.6540   -6.0169   -1.5593 N.3       1 <0>        -0.5441
      3 C2         -7.7903   -6.2205   -2.7307 C.3       1 <0>         0.0228
      4 C3         -6.3670   -5.7678   -2.3965 C.3       1 <0>         0.0009
      5 N2         -6.3862   -4.3530   -1.9994 N.4       1 <0>        -0.3998
      6 C4         -7.2499   -4.1494   -0.8281 C.3       1 <0>        -0.0049
      7 C5         -8.6733   -4.6021   -1.1623 C.3       1 <0>         0.0237
      8 C6         -5.0265   -3.8597   -1.7430 C.3       1 <0>        -0.0032
      9 C7         -5.0583   -2.3389   -1.5783 C.3       1 <0>        -0.1498
     10 C8         -3.6421   -1.8251   -1.3112 C.3       1 <0>         0.0546
     11 O1         -3.6719   -0.4047   -1.1574 O.3       1 <0>        -0.2954
     12 C9         -2.4875    0.2141   -0.9129 C.ar      1 <0>         0.1508
     13 C10        -1.3345   -0.5326   -0.8253 C.ar      1 <0>        -0.1739
     14 C11        -0.1099    0.1042   -0.5728 C.ar      1 <0>         0.1865
     15 C12        -0.0839    1.5107   -0.4123 C.ar      1 <0>        -0.1289
     16 C13        -1.2740    2.2476   -0.5007 C.ar      1 <0>        -0.1461
     17 C14        -2.4527    1.6062   -0.7522 C.ar      1 <0>         0.1109
     18 O2         -3.6043    2.3237   -0.8425 O.3       1 <0>        -0.3036
     19 C15        -3.5023    3.7385   -0.6693 C.3       1 <0>         0.0176
     20 C16         1.1518    2.1498   -0.1579 C.ar      1 <0>         0.3244
     21 C17         2.2996    1.3468   -0.0768 C.ar      1 <0>        -0.1637
     22 C18         2.1804   -0.0418   -0.2488 C.ar      1 <0>         0.2201
     23 N3          1.0238   -0.6069   -0.4836 N.ar      1 <0>        -0.5059
     24 C19         3.5791    1.9370    0.1785 C.1       1 <0>         0.2491
     25 N4          4.5940    2.4052    0.3811 N.1       1 <0>        -0.4000
     26 N5          1.2264    3.5186    0.0048 N.pl3     1 <0>        -0.6785
     27 C20         2.4372    4.1835   -0.2122 C.ar      1 <0>         0.1791
     28 C21         3.1043    4.7773    0.8508 C.ar      1 <0>        -0.1908
     29 C22         4.3041    5.4350    0.6325 C.ar      1 <0>         0.1720
     30 C23         4.8372    5.4992   -0.6482 C.ar      1 <0>        -0.0462
     31 C24         4.1721    4.9075   -1.7063 C.ar      1 <0>        -0.0515
     32 C25         2.9774    4.2459   -1.4914 C.ar      1 <0>        -0.0696
     33 Cl1         2.1481    3.4984   -2.8208 Cl        1 <0>        -0.0433
     34 Cl2         6.3403    6.3238   -0.9213 Cl        1 <0>        -0.0302
     35 O3          4.9590    6.0176    1.6716 O.3       1 <0>        -0.2936
     36 C26         4.4145    5.8149    2.9772 C.3       1 <0>         0.0200
     37 H1         -9.9701   -7.5691   -2.1104 H         1 <0>         0.0846
     38 H2        -10.4701   -5.9227   -2.6260 H         1 <0>         0.0401
     39 H3        -10.6190   -6.4082   -0.9030 H         1 <0>         0.0850
     40 H4         -7.7832   -7.2870   -3.0001 H         1 <0>         0.1245
     41 H5         -8.1745   -5.6313   -3.5764 H         1 <0>         0.0612
     42 H6         -5.9734   -6.3765   -1.5691 H         1 <0>         0.1366
     43 H7         -5.7253   -5.8927   -3.2811 H         1 <0>         0.1378
     44 H8         -6.8657   -4.7386    0.0176 H         1 <0>         0.1367
     45 H9         -7.2570   -3.0829   -0.5587 H         1 <0>         0.1381
     46 H10        -9.0676   -3.9944   -1.9901 H         1 <0>         0.0613
     47 H11        -9.3157   -4.4781   -0.2780 H         1 <0>         0.1241
     48 H12        -4.6368   -4.3201   -0.8231 H         1 <0>         0.1339
     49 H13        -4.3751   -4.1233   -2.5893 H         1 <0>         0.1372
     50 H14        -5.4480   -1.8786   -2.4982 H         1 <0>         0.1006
     51 H15        -5.7097   -2.0753   -0.7320 H         1 <0>         0.0999
     52 H16        -3.2525   -2.2855   -0.3913 H         1 <0>         0.0789
     53 H17        -2.9907   -2.0887   -2.1575 H         1 <0>         0.0790
     54 H18        -1.3723   -1.6047   -0.9499 H         1 <0>         0.1517
     55 H19        -1.2569    3.3205   -0.3782 H         1 <0>         0.1413
     56 H20        -4.4995    4.1926   -0.7662 H         1 <0>         0.1090
     57 H21        -2.8337    4.1546   -1.4373 H         1 <0>         0.0608
     58 H22        -3.0952    3.9573    0.3289 H         1 <0>         0.0597
     59 H23         3.0649   -0.6582   -0.1860 H         1 <0>         0.1696
     60 H24         0.3333    4.0863    0.3052 H         1 <0>         0.4436
     61 H25         2.6888    4.7264    1.8464 H         1 <0>         0.1501
     62 H26         4.5888    4.9585   -2.7013 H         1 <0>         0.1563
     63 H27         5.0369    6.3367    3.7191 H         1 <0>         0.1123
     64 H28         4.3977    4.7388    3.2044 H         1 <0>         0.0608
     65 H29         3.3898    6.2132    3.0130 H         1 <0>         0.0596
     66 H30        -6.8037   -3.7713   -2.8345 H         1 <0>         0.4393
@<TRIPOS>BOND
     1    1    2 1
     2    1   37 1
     3    1   38 1
     4    1   39 1
     5    2    7 1
     6    2    3 1
     7    3    4 1
     8    3   40 1
     9    3   41 1
    10    4    5 1
    11    4   42 1
    12    4   43 1
    13    5    6 1
    14    5    8 1
    15    5   66 1
    16    6    7 1
    17    6   44 1
    18    6   45 1
    19    7   46 1
    20    7   47 1
    21    8    9 1
    22    8   48 1
    23    8   49 1
    24    9   10 1
    25    9   50 1
    26    9   51 1
    27   10   11 1
    28   10   52 1
    29   10   53 1
    30   11   12 1
    31   12   17 ar
    32   12   13 ar
    33   13   14 ar
    34   13   54 1
    35   14   23 ar
    36   14   15 ar
    37   15   16 ar
    38   15   20 ar
    39   16   17 ar
    40   16   55 1
    41   17   18 1
    42   18   19 1
    43   19   56 1
    44   19   57 1
    45   19   58 1
    46   20   21 ar
    47   20   26 1
    48   21   22 ar
    49   21   24 1
    50   22   23 ar
    51   22   59 1
    52   24   25 3
    53   26   27 1
    54   26   60 1
    55   27   32 ar
    56   27   28 ar
    57   28   29 ar
    58   28   61 1
    59   29   30 ar
    60   29   35 1
    61   30   31 ar
    62   30   34 1
    63   31   32 ar
    64   31   62 1
    65   32   33 1
    66   35   36 1
    67   36   63 1
    68   36   64 1
    69   36   65 1
@<TRIPOS>MOLECULE
ZINC06718723
   66    70     0     0     0
SMALL
USER_CHARGES
N-[3-(2-methoxy-2-phenyl-acetyl)-3,6,7-triazabicyclo[3.3.0]octa-7,9-dien-8-yl]-4-(4-methylpiperazin-1-yl)-benzamide
@<TRIPOS>ATOM
      1 C1          1.1558   -2.3183    1.2595 C.3       1 <0>        -0.0410
      2 C2          0.9823   -1.8889   -1.1176 C.3       1 <0>         0.0017
      3 C3          0.2156   -1.0925   -2.1760 C.3       1 <0>         0.0172
      4 N1          0.3983    0.3450   -1.9314 N.pl3     1 <0>        -0.4879
      5 C4         -0.0890    0.7150   -0.5952 C.3       1 <0>         0.0240
      6 C5          0.6778   -0.0814    0.4632 C.3       1 <0>         0.0014
      7 C6         -0.2262    1.1016   -2.9168 C.ar      1 <0>         0.1171
      8 C7         -0.9021    0.4673   -3.9555 C.ar      1 <0>        -0.1703
      9 C8         -1.5254    1.2132   -4.9296 C.ar      1 <0>        -0.0557
     10 C9         -1.4706    2.6093   -4.8809 C.ar      1 <0>        -0.1394
     11 C10        -0.7865    3.2432   -3.8393 C.ar      1 <0>        -0.0271
     12 C11        -0.1695    2.4917   -2.8657 C.ar      1 <0>        -0.1357
     13 C12        -2.1335    3.4119   -5.9259 C.2       1 <0>         0.5511
     14 O1         -2.0854    4.6262   -5.8820 O.2       1 <0>        -0.4789
     15 N2         -2.7926    2.7993   -6.9293 N.am      1 <0>        -0.6348
     16 C13        -3.4223    3.5616   -7.9218 C.2       1 <0>         0.3339
     17 C14        -4.1411    3.0562   -9.0204 C.2       1 <0>        -0.2838
     18 C15        -4.5895    4.1057   -9.7400 C.2       1 <0>         0.0781
     19 N3         -4.1745    5.2373   -9.1268 N.pl3     1 <0>        -0.4408
     20 H1         -4.3540    6.1718   -9.4341 H         1 <0>         0.4547
     21 N4         -3.4495    4.8713   -7.9863 N.2       1 <0>        -0.2469
     22 C16        -5.3666    3.6009  -10.9294 C.3       1 <0>         0.1723
     23 N5         -5.3544    2.1345  -10.8740 N.am      1 <0>        -0.6108
     24 C17        -4.5861    1.7737   -9.6769 C.3       1 <0>         0.1946
     25 C18        -5.9338    1.2878  -11.7480 C.2       1 <0>         0.5509
     26 O2         -5.7715    0.0915  -11.6318 O.2       1 <0>        -0.4985
     27 C19        -6.7834    1.8276  -12.8695 C.3       1 <0>         0.1225
     28 H2         -7.5012    2.5436  -12.4694 H         1 <0>         0.0950
     29 C20        -5.9023    2.5122  -13.8825 C.ar      1 <0>        -0.1245
     30 C21        -5.1414    1.7597  -14.7575 C.ar      1 <0>        -0.0827
     31 C22        -4.3365    2.3877  -15.6895 C.ar      1 <0>        -0.1181
     32 C23        -4.2853    3.7682  -15.7402 C.ar      1 <0>        -0.1071
     33 C24        -5.0426    4.5207  -14.8620 C.ar      1 <0>        -0.1205
     34 C25        -5.8508    3.8927  -13.9329 C.ar      1 <0>        -0.1134
     35 O3         -7.4835    0.7514  -13.4972 O.3       1 <0>        -0.3511
     36 C26        -8.7453    1.1252  -14.0539 C.3       1 <0>         0.0270
     37 H3          2.2318   -2.1485    1.2201 H         1 <0>         0.1249
     38 H4          0.7771   -2.0242    2.2384 H         1 <0>         0.1237
     39 H5          0.9484   -3.3752    1.0921 H         1 <0>         0.1236
     40 H6          0.8246   -2.9552   -1.2798 H         1 <0>         0.1394
     41 H7          2.0461   -1.6632   -1.1925 H         1 <0>         0.1411
     42 H8          0.5953   -1.3440   -3.1663 H         1 <0>         0.1318
     43 H9         -0.8447   -1.3391   -2.1193 H         1 <0>         0.0745
     44 H10         0.0688    1.7813   -0.4330 H         1 <0>         0.1307
     45 H11        -1.1527    0.4893   -0.5207 H         1 <0>         0.0727
     46 H12         1.7380    0.1652    0.4065 H         1 <0>         0.1415
     47 H13         0.2983    0.1704    1.4535 H         1 <0>         0.1395
     48 H14        -0.9409   -0.6113   -3.9946 H         1 <0>         0.1361
     49 H15        -2.0533    0.7206   -5.7327 H         1 <0>         0.1339
     50 H16        -0.7428    4.3215   -3.7987 H         1 <0>         0.1475
     51 H17         0.3591    2.9807   -2.0608 H         1 <0>         0.1377
     52 H18        -2.8310    1.8307   -6.9643 H         1 <0>         0.4200
     53 H19        -4.8943    3.9403  -11.8513 H         1 <0>         0.1019
     54 H20        -6.3933    3.9643  -10.8842 H         1 <0>         0.0943
     55 H21        -3.7159    1.1817   -9.9601 H         1 <0>         0.0792
     56 H22        -5.2131    1.2048   -8.9904 H         1 <0>         0.0792
     57 H23        -5.1783    0.6812  -14.7152 H         1 <0>         0.1304
     58 H24        -3.7451    1.7999  -16.3759 H         1 <0>         0.1272
     59 H25        -3.6539    4.2589  -16.4662 H         1 <0>         0.1260
     60 H26        -5.0026    5.5992  -14.9016 H         1 <0>         0.1273
     61 H27        -6.4422    4.4805  -13.2465 H         1 <0>         0.1243
     62 H28        -9.3904    1.5117  -13.2649 H         1 <0>         0.0465
     63 H29        -8.5949    1.8955  -14.8103 H         1 <0>         0.0480
     64 H30        -9.2132    0.2534  -14.5113 H         1 <0>         0.0967
     65 N6          0.4679   -1.5242    0.2191 N.4       1 <0>        -0.4004
     66 H31        -0.5381   -1.7261    0.2561 H         1 <0>         0.4278
@<TRIPOS>BOND
     1    1   37 1
     2    1   38 1
     3    1   39 1
     4    1   65 1
     5    2    3 1
     6    2   40 1
     7    2   41 1
     8    2   65 1
     9    3    4 1
    10    3   42 1
    11    3   43 1
    12    4    5 1
    13    4    7 1
    14    5    6 1
    15    5   44 1
    16    5   45 1
    17    6   46 1
    18    6   47 1
    19    6   65 1
    20    7   12 ar
    21    7    8 ar
    22    8    9 ar
    23    8   48 1
    24    9   10 ar
    25    9   49 1
    26   10   11 ar
    27   10   13 1
    28   11   12 ar
    29   11   50 1
    30   12   51 1
    31   13   14 2
    32   13   15 am
    33   15   16 1
    34   15   52 1
    35   16   21 2
    36   16   17 1
    37   17   24 1
    38   17   18 2
    39   18   19 1
    40   18   22 1
    41   19   20 1
    42   19   21 1
    43   22   23 1
    44   22   53 1
    45   22   54 1
    46   23   24 1
    47   23   25 am
    48   24   55 1
    49   24   56 1
    50   25   26 2
    51   25   27 1
    52   27   28 1
    53   27   29 1
    54   27   35 1
    55   29   34 ar
    56   29   30 ar
    57   30   31 ar
    58   30   57 1
    59   31   32 ar
    60   31   58 1
    61   32   33 ar
    62   32   59 1
    63   33   34 ar
    64   33   60 1
    65   34   61 1
    66   35   36 1
    67   36   62 1
    68   36   63 1
    69   36   64 1
    70   65   66 1
@<TRIPOS>MOLECULE
ZINC01903557
   33    35     0     0     0
SMALL
USER_CHARGES
2-hydroxyethylamino-nitro-BLAHdione
@<TRIPOS>ATOM
      1 C1         -0.6460   -6.0863   -2.4145 C.ar      1 <0>        -0.1329
      2 C2         -1.0443   -6.7940   -1.3166 C.ar      1 <0>        -0.0290
      3 C3         -1.4450   -6.1181   -0.1512 C.ar      1 <0>        -0.0809
      4 C4         -1.8624   -6.8012    1.0047 C.ar      1 <0>         0.0303
      5 C5         -2.2426   -6.1002    2.1128 C.ar      1 <0>        -0.0574
      6 C6         -2.2293   -4.7103    2.1357 C.ar      1 <0>         0.0270
      7 C7         -1.8239   -3.9990    1.0164 C.ar      1 <0>        -0.1366
      8 C8         -1.4270   -4.7077   -0.1405 C.ar      1 <0>         0.0335
      9 C9         -1.0126   -3.9921   -1.2865 C.ar      1 <0>        -0.1644
     10 C10        -0.6243   -4.6968   -2.4166 C.ar      1 <0>         0.0199
     11 C11        -1.0105   -2.5225   -1.2382 C.2       1 <0>         0.5473
     12 O1         -0.6607   -1.8860   -2.2137 O.2       1 <0>        -0.4923
     13 N1         -1.3898   -1.8777   -0.1186 N.am      1 <0>        -0.4073
     14 C12        -1.7912   -2.5292    0.9893 C.2       1 <0>         0.5842
     15 O2         -2.1283   -1.8987    1.9730 O.2       1 <0>        -0.4395
     16 N2         -1.3720   -0.5118   -0.1083 N.3       1 <0>        -0.4247
     17 C13         0.0021   -0.0041    0.0020 C.3       1 <0>         0.0331
     18 C14        -0.0187    1.5258    0.0104 C.3       1 <0>         0.0852
     19 O3         -0.6875    1.9866    1.1861 O.3       1 <0>        -0.5580
     20 N3         -2.6791   -6.8382    3.3194 N.pl3     1 <0>         0.0244
     21 O4         -3.0211   -6.2275    4.3163 O.2       1 <0>        -0.1409
     22 O5         -2.6965   -8.0560    3.3155 O.3       1 <0>        -0.1491
     23 H1         -0.3408   -6.6194   -3.3028 H         1 <0>         0.1516
     24 H2         -1.0510   -7.8737   -1.3437 H         1 <0>         0.1542
     25 H3         -1.8825   -7.8810    1.0159 H         1 <0>         0.1741
     26 H4         -2.5351   -4.1833    3.0274 H         1 <0>         0.1764
     27 H5         -0.3040   -4.1643   -3.2999 H         1 <0>         0.1550
     28 H6         -1.8311   -0.1380   -0.9254 H         1 <0>         0.3655
     29 H7          0.5883   -0.3548   -0.8473 H         1 <0>         0.0672
     30 H8          0.4501   -0.3665    0.9272 H         1 <0>         0.0902
     31 H9          1.0039    1.9031    0.0027 H         1 <0>         0.0622
     32 H10        -0.5459    1.8868   -0.8726 H         1 <0>         0.0513
     33 H11        -0.7381    2.9496    1.2579 H         1 <0>         0.3803
@<TRIPOS>BOND
     1    1   10 ar
     2    1    2 ar
     3    1   23 1
     4    2    3 ar
     5    2   24 1
     6    3    8 ar
     7    3    4 ar
     8    4    5 ar
     9    4   25 1
    10    5    6 ar
    11    5   20 1
    12    6    7 ar
    13    6   26 1
    14    7   14 1
    15    7    8 ar
    16    8    9 ar
    17    9   10 ar
    18    9   11 1
    19   10   27 1
    20   11   12 2
    21   11   13 am
    22   13   14 am
    23   13   16 1
    24   14   15 2
    25   16   17 1
    26   16   28 1
    27   17   18 1
    28   17   29 1
    29   17   30 1
    30   18   19 1
    31   18   31 1
    32   18   32 1
    33   19   33 1
    34   20   21 2
    35   20   22 1
@<TRIPOS>MOLECULE
ZINC35077985
   46    48     0     0     0
SMALL
USER_CHARGES

@<TRIPOS>ATOM
      1 C1         -0.0187    1.5258    0.0104 C.3       1 <0>        -0.1597
      2 C2          0.0021   -0.0041    0.0020 C.3       1 <0>         0.2144
      3 H1         -1.0205   -0.3814    0.0098 H         1 <0>         0.1140
      4 C3          0.7074   -0.4901   -1.2379 C.ar      1 <0>         0.1067
      5 C4          0.0014   -0.6166   -2.4196 C.ar      1 <0>        -0.1292
      6 C5          0.6584   -1.0643   -3.5548 C.ar      1 <0>        -0.1029
      7 C6          2.0097   -1.3700   -3.4586 C.ar      1 <0>         0.0494
      8 C7          2.6495   -1.2182   -2.2406 C.ar      1 <0>         0.0847
      9 N1          1.9915   -0.7842   -1.1834 N.ar      1 <0>        -0.4524
     10 F1          2.6905   -1.8102   -4.5393 F         1 <0>        -0.1268
     11 N2          0.7106   -0.4894    1.1889 N.pl3     1 <0>        -0.6757
     12 C8          0.0332   -0.6374    2.3873 C.ar      1 <0>         0.6077
     13 N3         -1.2567   -0.3404    2.4407 N.ar      1 <0>        -0.5819
     14 C9         -1.9393   -0.4691    3.5692 C.ar      1 <0>         0.2428
     15 C10        -1.2911   -0.9199    4.7035 C.ar      1 <0>        -0.2546
     16 C11         0.0695   -1.2250    4.6162 C.ar      1 <0>         0.4928
     17 N4          0.6899   -1.0774    3.4498 N.ar      1 <0>        -0.5863
     18 N5          0.7614   -1.6803    5.7287 N.pl3     1 <0>        -0.6212
     19 C12         2.1179   -1.9815    5.6301 C.2       1 <0>         0.3368
     20 C13         2.8872   -1.8712    4.5126 C.2       1 <0>        -0.2749
     21 C14         4.1879   -2.2725    4.8461 C.2       1 <0>         0.2827
     22 N6          4.2030   -2.6111    6.1127 N.2       1 <0>        -0.3364
     23 N7          2.9148   -2.4331    6.6331 N.pl3     1 <0>        -0.4850
     24 H2          2.6400   -2.6038    7.5475 H         1 <0>         0.4394
     25 O1          5.2523   -2.3056    4.0005 O.3       1 <0>        -0.2820
     26 C15         6.4980   -2.7488    4.5426 C.3       1 <0>         0.0796
     27 C16         7.3216   -3.4228    3.4434 C.3       1 <0>        -0.1508
     28 C17         7.2697   -1.5486    5.0947 C.3       1 <0>        -0.1716
     29 Cl1        -2.1477   -1.1022    6.2025 Cl        1 <0>        -0.0495
     30 H3          1.0039    1.9031    0.0027 H         1 <0>         0.0622
     31 H4         -0.5459    1.8868   -0.8726 H         1 <0>         0.0714
     32 H5         -0.5289    1.8773    0.9072 H         1 <0>         0.0736
     33 H6         -1.0493   -0.3699   -2.4576 H         1 <0>         0.1506
     34 H7          0.1321   -1.1731   -4.4916 H         1 <0>         0.1521
     35 H8          3.7002   -1.4535   -2.1563 H         1 <0>         0.1720
     36 H9          1.6544   -0.7070    1.1351 H         1 <0>         0.4274
     37 H10        -2.9906   -0.2239    3.6022 H         1 <0>         0.1806
     38 H11         0.3008   -1.7888    6.5754 H         1 <0>         0.4266
     39 H12         2.5544   -1.5348    3.5417 H         1 <0>         0.1882
     40 H13         6.3116   -3.4616    5.3458 H         1 <0>         0.0799
     41 H14         7.5079   -2.7100    2.6401 H         1 <0>         0.0674
     42 H15         8.2718   -3.7609    3.8569 H         1 <0>         0.0772
     43 H16         6.7718   -4.2779    3.0500 H         1 <0>         0.0642
     44 H17         8.2199   -1.8866    5.5082 H         1 <0>         0.0711
     45 H18         7.4561   -0.8357    4.2914 H         1 <0>         0.0647
     46 H19         6.6830   -1.0683    5.8777 H         1 <0>         0.0608
@<TRIPOS>BOND
     1    1    2 1
     2    1   30 1
     3    1   31 1
     4    1   32 1
     5    2    3 1
     6    2    4 1
     7    2   11 1
     8    4    9 ar
     9    4    5 ar
    10    5    6 ar
    11    5   33 1
    12    6    7 ar
    13    6   34 1
    14    7    8 ar
    15    7   10 1
    16    8    9 ar
    17    8   35 1
    18   11   12 1
    19   11   36 1
    20   12   17 ar
    21   12   13 ar
    22   13   14 ar
    23   14   15 ar
    24   14   37 1
    25   15   16 ar
    26   15   29 1
    27   16   17 ar
    28   16   18 1
    29   18   19 1
    30   18   38 1
    31   19   23 1
    32   19   20 2
    33   20   21 1
    34   20   39 1
    35   21   22 2
    36   21   25 1
    37   22   23 1
    38   23   24 1
    39   25   26 1
    40   26   27 1
    41   26   28 1
    42   26   40 1
    43   27   41 1
    44   27   42 1
    45   27   43 1
    46   28   44 1
    47   28   45 1
    48   28   46 1
@<TRIPOS>MOLECULE
ZINC35077985
   47    49     0     0     0
SMALL
USER_CHARGES

@<TRIPOS>ATOM
      1 C1         -0.0187    1.5258    0.0104 C.3       1 <0>        -0.1777
      2 C2          0.0021   -0.0041    0.0020 C.3       1 <0>         0.1858
      3 H1         -1.0205   -0.3814    0.0098 H         1 <0>         0.1078
      4 C3          0.7074   -0.4901   -1.2379 C.ar      1 <0>         0.0840
      5 C4          0.0014   -0.6166   -2.4196 C.ar      1 <0>        -0.1213
      6 C5          0.6584   -1.0643   -3.5548 C.ar      1 <0>        -0.0988
      7 C6          2.0097   -1.3700   -3.4586 C.ar      1 <0>         0.0721
      8 C7          2.6495   -1.2182   -2.2406 C.ar      1 <0>         0.0898
      9 N1          1.9915   -0.7842   -1.1834 N.ar      1 <0>        -0.4532
     10 F1          2.6905   -1.8102   -4.5393 F         1 <0>        -0.1158
     11 N2          0.7106   -0.4894    1.1889 N.pl3     1 <0>        -0.6463
     12 C8          0.0332   -0.6374    2.3873 C.ar      1 <0>         0.6579
     13 N3         -1.2567   -0.3404    2.4407 N.ar      1 <0>        -0.5668
     14 C9         -1.9392   -0.4686    3.5693 C.ar      1 <0>         0.2360
     15 C10        -1.2910   -0.9195    4.7036 C.ar      1 <0>        -0.2001
     16 C11         0.0695   -1.2251    4.6162 C.ar      1 <0>         0.5391
     17 N4          0.6899   -1.0774    3.4498 N.ar      1 <0>        -0.5381
     18 N5          0.7613   -1.6808    5.7286 N.pl3     1 <0>        -0.5729
     19 C12         2.1177   -1.9825    5.6298 C.2       1 <0>         0.2966
     20 N6          2.9143   -2.4354    6.6324 N.pl3     1 <0>        -0.4677
     21 N7          4.2029   -2.6113    6.1126 N.2       1 <0>        -0.3050
     22 C13         4.1867   -2.2776    4.8448 C.2       1 <0>         0.2850
     23 C14         2.8845   -1.8825    4.5096 C.2       1 <0>        -0.2478
     24 O1          5.2502   -2.3142    3.9982 O.3       1 <0>        -0.2805
     25 C15         6.4961   -2.7565    4.5405 C.3       1 <0>         0.0795
     26 C16         6.6123   -4.2737    4.3801 C.3       1 <0>        -0.1736
     27 C17         7.6467   -2.0755    3.7967 C.3       1 <0>        -0.1524
     28 Cl1        -2.1474   -1.1013    6.2027 Cl        1 <0>         0.0281
     29 H2          1.0039    1.9031    0.0027 H         1 <0>         0.0868
     30 H3         -0.5459    1.8868   -0.8726 H         1 <0>         0.0970
     31 H4         -0.5289    1.8773    0.9072 H         1 <0>         0.0695
     32 H5         -1.0493   -0.3699   -2.4576 H         1 <0>         0.1529
     33 H6          0.1321   -1.1731   -4.4916 H         1 <0>         0.1600
     34 H7          3.7002   -1.4535   -2.1563 H         1 <0>         0.1802
     35 H8          1.6544   -0.7070    1.1351 H         1 <0>         0.4548
     36 H9         -2.9905   -0.2232    3.6024 H         1 <0>         0.2290
     37 H10         0.3007   -1.7894    6.5753 H         1 <0>         0.4414
     38 H11         2.5496   -1.5551    3.5365 H         1 <0>         0.1867
     39 H12         2.6394   -2.6066    7.5468 H         1 <0>         0.4474
     40 H13         6.5441   -2.4983    5.5984 H         1 <0>         0.0829
     41 H14         7.5626   -4.6111    4.7938 H         1 <0>         0.0768
     42 H15         5.7926   -4.7589    4.9100 H         1 <0>         0.0604
     43 H16         6.5644   -4.5319    3.3222 H         1 <0>         0.0667
     44 H17         7.5639   -0.9946    3.9110 H         1 <0>         0.0657
     45 H18         8.5970   -2.4129    4.2104 H         1 <0>         0.0825
     46 H19         7.5987   -2.3337    2.7388 H         1 <0>         0.0691
     47 H20        -1.7080   -0.0243    1.6423 H         1 <0>         0.4466
@<TRIPOS>BOND
     1    1    2 1
     2    1   29 1
     3    1   30 1
     4    1   31 1
     5    2    3 1
     6    2    4 1
     7    2   11 1
     8    4    9 ar
     9    4    5 ar
    10    5    6 ar
    11    5   32 1
    12    6    7 ar
    13    6   33 1
    14    7    8 ar
    15    7   10 1
    16    8    9 ar
    17    8   34 1
    18   11   12 1
    19   11   35 1
    20   12   17 ar
    21   12   13 ar
    22   13   14 ar
    23   13   47 1
    24   14   15 ar
    25   14   36 1
    26   15   16 ar
    27   15   28 1
    28   16   17 ar
    29   16   18 1
    30   18   19 1
    31   18   37 1
    32   19   20 1
    33   19   23 2
    34   20   21 1
    35   20   39 1
    36   21   22 2
    37   22   24 1
    38   22   23 1
    39   23   38 1
    40   24   25 1
    41   25   26 1
    42   25   27 1
    43   25   40 1
    44   26   41 1
    45   26   42 1
    46   26   43 1
    47   27   44 1
    48   27   45 1
    49   27   46 1
@<TRIPOS>MOLECULE
ZINC35077985
   47    49     0     0     0
SMALL
USER_CHARGES

@<TRIPOS>ATOM
      1 C1         -0.0187    1.5258    0.0104 C.3       1 <0>        -0.1614
      2 C2          0.0021   -0.0041    0.0020 C.3       1 <0>         0.2128
      3 H1          0.5123   -0.3556   -0.8948 H         1 <0>         0.1174
      4 C3          0.7309   -0.5033    1.2229 C.ar      1 <0>         0.0999
      5 C4          2.1091   -0.6079    1.1999 C.ar      1 <0>        -0.1253
      6 C5          2.7710   -1.0680    2.3273 C.ar      1 <0>        -0.1006
      7 C6          2.0172   -1.4079    3.4431 C.ar      1 <0>         0.0559
      8 C7          0.6402   -1.2764    3.3911 C.ar      1 <0>         0.0820
      9 N1          0.0466   -0.8298    2.3016 N.ar      1 <0>        -0.4578
     10 F1          2.6197   -1.8613    4.5641 F         1 <0>        -0.1233
     11 N2         -1.3723   -0.5112    0.0124 N.pl3     1 <0>        -0.6671
     12 C8         -2.0694   -0.6463   -1.1762 C.ar      1 <0>         0.6119
     13 N3         -1.4756   -0.3173   -2.3138 N.ar      1 <0>        -0.5590
     14 C9         -2.1098   -0.4326   -3.4716 C.ar      1 <0>         0.2559
     15 C10        -3.4091   -0.9036   -3.4865 C.ar      1 <0>        -0.2370
     16 C11        -4.0087   -1.2425   -2.2709 C.ar      1 <0>         0.4705
     17 N4         -3.3109   -1.1063   -1.1476 N.ar      1 <0>        -0.5944
     18 N5         -5.3109   -1.7188   -2.2371 N.pl3     1 <0>        -0.6040
     19 C12        -5.8986   -2.0536   -1.0194 C.2       1 <0>         0.4753
     20 C13        -5.3169   -1.9588    0.2076 C.2       1 <0>        -0.2624
     21 C14        -6.2495   -2.3938    1.1590 C.2       1 <0>         0.4338
     22 N6         -7.3487   -2.7370    0.5321 N.pl3     1 <0>        -0.4227
     23 N7         -7.1584   -2.5286   -0.8399 N.pl3     1 <0>        -0.4482
     24 O1         -6.0486   -2.4507    2.5027 O.3       1 <0>        -0.2448
     25 C15        -7.1336   -2.9268    3.3014 C.3       1 <0>         0.0611
     26 C16        -7.0257   -4.4452    3.4553 C.3       1 <0>        -0.1879
     27 C17        -7.0780   -2.2690    4.6817 C.3       1 <0>        -0.1568
     28 Cl1        -4.2764   -1.0696   -4.9812 Cl        1 <0>        -0.0305
     29 H2          1.0039    1.9031    0.0027 H         1 <0>         0.0770
     30 H3         -0.5459    1.8868   -0.8726 H         1 <0>         0.0737
     31 H4         -0.5289    1.8773    0.9072 H         1 <0>         0.0639
     32 H5          2.6633   -0.3348    0.3141 H         1 <0>         0.1523
     33 H6          3.8470   -1.1603    2.3378 H         1 <0>         0.1552
     34 H7          0.0458   -1.5383    4.2540 H         1 <0>         0.1723
     35 H8         -1.7940   -0.7522    0.8520 H         1 <0>         0.4277
     36 H9         -1.6169   -0.1613   -4.3935 H         1 <0>         0.1923
     37 H10        -5.8123   -1.8187   -3.0614 H         1 <0>         0.4421
     38 H11        -4.3151   -1.6107    0.4116 H         1 <0>         0.2303
     39 H12        -8.0779   -2.6769    2.8176 H         1 <0>         0.0762
     40 H13        -7.8534   -4.8084    4.0645 H         1 <0>         0.0956
     41 H14        -7.0653   -4.9138    2.4720 H         1 <0>         0.0607
     42 H15        -6.0814   -4.6951    3.9391 H         1 <0>         0.0878
     43 H16        -7.1549   -1.1873    4.5720 H         1 <0>         0.0767
     44 H17        -7.9057   -2.6323    5.2909 H         1 <0>         0.0966
     45 H18        -6.1338   -2.5190    5.1654 H         1 <0>         0.0839
     46 H19        -7.8104   -2.6955   -1.5384 H         1 <0>         0.4731
     47 H20        -8.1572   -3.0750    0.9479 H         1 <0>         0.4691
@<TRIPOS>BOND
     1    1    2 1
     2    1   29 1
     3    1   30 1
     4    1   31 1
     5    2    3 1
     6    2    4 1
     7    2   11 1
     8    4    9 ar
     9    4    5 ar
    10    5    6 ar
    11    5   32 1
    12    6    7 ar
    13    6   33 1
    14    7    8 ar
    15    7   10 1
    16    8    9 ar
    17    8   34 1
    18   11   12 1
    19   11   35 1
    20   12   17 ar
    21   12   13 ar
    22   13   14 ar
    23   14   15 ar
    24   14   36 1
    25   15   16 ar
    26   15   28 1
    27   16   17 ar
    28   16   18 1
    29   18   19 1
    30   18   37 1
    31   19   23 1
    32   19   20 2
    33   20   38 1
    34   20   21 1
    35   21   24 1
    36   21   22 2
    37   22   23 1
    38   22   47 1
    39   23   46 1
    40   24   25 1
    41   25   26 1
    42   25   27 1
    43   25   39 1
    44   26   40 1
    45   26   41 1
    46   26   42 1
    47   27   43 1
    48   27   44 1
    49   27   45 1
@<TRIPOS>MOLECULE
ZINC39716080
   55    58     0     0     0
SMALL
USER_CHARGES

@<TRIPOS>ATOM
      1 C1          1.3709    0.9111    1.0902 C.3       1 <0>        -0.1500
      2 C2          0.8626   -0.4828    0.7164 C.3       1 <0>        -0.0138
      3 O1          1.5780   -0.9605   -0.4246 O.3       1 <0>        -0.2863
      4 C3          1.2738   -2.2022   -0.8641 C.2       1 <0>         0.2884
      5 C4          1.9722   -2.7703   -1.9417 C.2       1 <0>        -0.2388
      6 C5          1.6579   -4.0136   -2.3716 C.2       1 <0>         0.1912
      7 N1          0.6716   -4.7371   -1.7802 N.am      1 <0>        -0.4588
      8 C6         -0.0307   -4.2436   -0.7433 C.2       1 <0>         0.5583
      9 O2         -0.9109   -4.9119   -0.2287 O.2       1 <0>        -0.5208
     10 C7          0.2582   -2.9493   -0.2479 C.2       1 <0>        -0.3934
     11 C8         -0.4935   -2.3973    0.8847 C.2       1 <0>         0.6183
     12 O3         -0.0910   -2.5638    2.0211 O.2       1 <0>        -0.5010
     13 N2         -1.6297   -1.7060    0.6666 N.am      1 <0>        -0.6687
     14 C9         -2.2973   -1.1003    1.7381 C.ar      1 <0>         0.1889
     15 C10        -1.5939   -0.7393    2.8798 C.ar      1 <0>        -0.1353
     16 C11        -2.2520   -0.1418    3.9369 C.ar      1 <0>        -0.0623
     17 C12        -3.6157    0.0981    3.8594 C.ar      1 <0>         0.0222
     18 C13        -4.3209   -0.2625    2.7179 C.ar      1 <0>         0.1272
     19 C14        -3.6616   -0.8554    1.6571 C.ar      1 <0>        -0.1748
     20 F1         -5.6496   -0.0295    2.6427 F         1 <0>        -0.1204
     21 O4         -4.2629    0.6861    4.9011 O.3       1 <0>        -0.2283
     22 C15        -4.8804   -0.1183    5.8035 C.ar      1 <0>         0.2111
     23 C16        -4.7587   -1.5058    5.7249 C.ar      1 <0>        -0.2962
     24 C17        -5.3988   -2.2921    6.6581 C.ar      1 <0>         0.1928
     25 N3         -6.1224   -1.7502    7.6209 N.ar      1 <0>        -0.5470
     26 C18        -6.2644   -0.4378    7.7323 C.ar      1 <0>         0.4493
     27 C19        -5.6448    0.4207    6.8319 C.ar      1 <0>        -0.1891
     28 Cl1        -5.8279    2.1401    6.9855 Cl        1 <0>        -0.0463
     29 N4         -7.0368    0.0864    8.7636 N.pl3     1 <0>        -0.8375
     30 C20         0.3796   -6.0211   -2.2590 C.ar      1 <0>         0.0846
     31 C21        -0.8417   -6.2745   -2.8691 C.ar      1 <0>        -0.0573
     32 C22        -1.1277   -7.5407   -3.3403 C.ar      1 <0>        -0.1416
     33 C23        -0.1974   -8.5575   -3.2043 C.ar      1 <0>         0.1182
     34 C24         1.0213   -8.3069   -2.5961 C.ar      1 <0>        -0.1418
     35 C25         1.3134   -7.0405   -2.1291 C.ar      1 <0>        -0.0757
     36 F2         -0.4793   -9.7958   -3.6651 F         1 <0>        -0.1305
     37 H1          2.4344    0.8595    1.3235 H         1 <0>         0.0712
     38 H2          1.2153    1.5912    0.2527 H         1 <0>         0.0688
     39 H3          0.8252    1.2755    1.9605 H         1 <0>         0.0855
     40 H4          1.0182   -1.1629    1.5538 H         1 <0>         0.1059
     41 H5         -0.2009   -0.4312    0.4830 H         1 <0>         0.0892
     42 H6          2.7603   -2.2141   -2.4276 H         1 <0>         0.1700
     43 H7          2.2016   -4.4397   -3.2018 H         1 <0>         0.1815
     44 H8         -1.9850   -1.6281   -0.2326 H         1 <0>         0.4184
     45 H9         -0.5320   -0.9261    2.9413 H         1 <0>         0.1608
     46 H10        -1.7044    0.1383    4.8246 H         1 <0>         0.1504
     47 H11        -4.2083   -1.1319    0.7676 H         1 <0>         0.1503
     48 H12        -4.1696   -1.9586    4.9412 H         1 <0>         0.1433
     49 H13        -5.3078   -3.3667    6.6012 H         1 <0>         0.1690
     50 H14        -7.4683   -0.5084    9.3968 H         1 <0>         0.4115
     51 H15        -7.1439    1.0466    8.8495 H         1 <0>         0.4122
     52 H16        -1.5677   -5.4819   -2.9747 H         1 <0>         0.1389
     53 H17        -2.0775   -7.7381   -3.8149 H         1 <0>         0.1476
     54 H18         1.7454   -9.1012   -2.4910 H         1 <0>         0.1484
     55 H19         2.2658   -6.8442   -1.6592 H         1 <0>         0.1425
@<TRIPOS>BOND
     1    1    2 1
     2    1   37 1
     3    1   38 1
     4    1   39 1
     5    2    3 1
     6    2   40 1
     7    2   41 1
     8    3    4 1
     9    4   10 2
    10    4    5 1
    11    5    6 2
    12    5   42 1
    13    6    7 1
    14    6   43 1
    15    7    8 am
    16    7   30 1
    17    8    9 2
    18    8   10 1
    19   10   11 1
    20   11   12 2
    21   11   13 am
    22   13   14 1
    23   13   44 1
    24   14   19 ar
    25   14   15 ar
    26   15   16 ar
    27   15   45 1
    28   16   17 ar
    29   16   46 1
    30   17   18 ar
    31   17   21 1
    32   18   19 ar
    33   18   20 1
    34   19   47 1
    35   21   22 1
    36   22   27 ar
    37   22   23 ar
    38   23   24 ar
    39   23   48 1
    40   24   25 ar
    41   24   49 1
    42   25   26 ar
    43   26   27 ar
    44   26   29 1
    45   27   28 1
    46   29   50 1
    47   29   51 1
    48   30   35 ar
    49   30   31 ar
    50   31   32 ar
    51   31   52 1
    52   32   33 ar
    53   32   53 1
    54   33   34 ar
    55   33   36 1
    56   34   35 ar
    57   34   54 1
    58   35   55 1
@<TRIPOS>MOLECULE
ZINC40861910
   52    57     0     0     0
SMALL
USER_CHARGES

@<TRIPOS>ATOM
      1 C1         -1.7088    0.8904    0.0830 C.3       1 <0>         0.0258
      2 O1         -1.5282   -0.5258    0.0206 O.3       1 <0>        -0.3159
      3 C2         -0.7259   -1.0020   -0.9661 C.ar      1 <0>         0.1453
      4 C3         -0.1295   -0.1237   -1.8615 C.ar      1 <0>        -0.2174
      5 C4          0.6921   -0.6064   -2.8594 C.ar      1 <0>        -0.0155
      6 C5          0.9355   -1.9695   -2.9681 C.ar      1 <0>        -0.1062
      7 C6          0.3143   -2.8514   -2.0777 C.ar      1 <0>        -0.0241
      8 C7         -0.5074   -2.3682   -1.0838 C.ar      1 <0>        -0.1598
      9 C8          0.5461   -4.3301   -2.2229 C.3       1 <0>        -0.0810
     10 C9          0.6594   -4.7064   -3.6996 C.3       1 <0>        -0.0773
     11 C10         1.6854   -3.8509   -4.3951 C.ar      1 <0>        -0.1078
     12 C11         1.8442   -2.5281   -3.9939 C.ar      1 <0>         0.0804
     13 C12         2.8962   -1.7481   -4.5181 C.ar      1 <0>        -0.1831
     14 C13         3.6602   -2.2665   -5.5616 C.ar      1 <0>        -0.0228
     15 C14         3.4455   -3.5548   -6.0217 C.ar      1 <0>        -0.0923
     16 C15         2.4188   -4.3538   -5.4661 C.ar      1 <0>         0.1865
     17 N1          2.3439   -5.5181   -6.2095 N.pl3     1 <0>        -0.4941
     18 C16         3.3865   -5.5867   -7.1036 C.ar      1 <0>         0.1381
     19 C17         4.1072   -4.3760   -7.0383 C.ar      1 <0>        -0.0990
     20 C18         5.2203   -4.1419   -7.8436 C.ar      1 <0>        -0.0581
     21 C19         5.5905   -5.1611   -8.7065 C.ar      1 <0>        -0.1477
     22 C20         4.8887   -6.3512   -8.7703 C.ar      1 <0>        -0.0841
     23 C21         3.7754   -6.5960   -7.9814 C.ar      1 <0>        -0.1381
     24 C22         1.3047   -6.5484   -6.1238 C.3       1 <0>         0.1094
     25 C23         1.7723   -7.6681   -5.1919 C.3       1 <0>         0.0563
     26 O2          0.7140   -8.6114   -5.0122 O.3       1 <0>        -0.5674
     27 C24         4.6153   -1.1753   -5.9821 C.3       1 <0>         0.1391
     28 N2          4.4130   -0.0756   -5.0338 N.am      1 <0>        -0.7267
     29 C25         3.4435   -0.4290   -4.1696 C.2       1 <0>         0.5660
     30 O3          3.1067    0.2521   -3.2205 O.2       1 <0>        -0.5190
     31 H1         -0.7432    1.3736    0.2319 H         1 <0>         0.0578
     32 H2         -2.1511    1.2417   -0.8493 H         1 <0>         0.0568
     33 H3         -2.3700    1.1360    0.9140 H         1 <0>         0.1012
     34 H4         -0.3092    0.9380   -1.7775 H         1 <0>         0.1304
     35 H5          1.1163    0.0833   -3.5749 H         1 <0>         0.1337
     36 H6         -0.9822   -3.0516   -0.3950 H         1 <0>         0.1334
     37 H7          1.4680   -4.6047   -1.7115 H         1 <0>         0.0833
     38 H8         -0.2887   -4.8725   -1.7796 H         1 <0>         0.0871
     39 H9          0.9643   -5.7527   -3.7444 H         1 <0>         0.0799
     40 H10        -0.3079   -4.5811   -4.1793 H         1 <0>         0.0821
     41 H11         5.7679   -3.2123   -7.7976 H         1 <0>         0.1338
     42 H12         6.4505   -5.0231   -9.3450 H         1 <0>         0.1251
     43 H13         5.2196   -7.1168   -9.4563 H         1 <0>         0.1265
     44 H14         3.2382   -7.5302   -8.0485 H         1 <0>         0.1321
     45 H15         0.3880   -6.1081   -5.7314 H         1 <0>         0.1023
     46 H16         1.1155   -6.9571   -7.1164 H         1 <0>         0.0998
     47 H17         2.6352   -8.1693   -5.6305 H         1 <0>         0.0548
     48 H18         2.0498   -7.2451   -4.2264 H         1 <0>         0.0545
     49 H19         0.9404   -9.3506   -4.4313 H         1 <0>         0.3897
     50 H20         5.6424   -1.5349   -5.9313 H         1 <0>         0.0983
     51 H21         4.3821   -0.8456   -6.9949 H         1 <0>         0.1012
     52 H22         4.8950    0.7656   -5.0278 H         1 <0>         0.4265
@<TRIPOS>BOND
     1    1    2 1
     2    1   31 1
     3    1   32 1
     4    1   33 1
     5    2    3 1
     6    3    8 ar
     7    3    4 ar
     8    4    5 ar
     9    4   34 1
    10    5    6 ar
    11    5   35 1
    12    6   12 1
    13    6    7 ar
    14    7    8 ar
    15    7    9 1
    16    8   36 1
    17    9   10 1
    18    9   37 1
    19    9   38 1
    20   10   11 1
    21   10   39 1
    22   10   40 1
    23   11   16 ar
    24   11   12 ar
    25   12   13 ar
    26   13   29 1
    27   13   14 ar
    28   14   15 ar
    29   14   27 1
    30   15   19 1
    31   15   16 ar
    32   16   17 1
    33   17   18 1
    34   17   24 1
    35   18   23 ar
    36   18   19 ar
    37   19   20 ar
    38   20   21 ar
    39   20   41 1
    40   21   22 ar
    41   21   42 1
    42   22   23 ar
    43   22   43 1
    44   23   44 1
    45   24   25 1
    46   24   45 1
    47   24   46 1
    48   25   26 1
    49   25   47 1
    50   25   48 1
    51   26   49 1
    52   27   28 1
    53   27   50 1
    54   27   51 1
    55   28   29 am
    56   28   52 1
    57   29   30 2
@<TRIPOS>MOLECULE
ZINC33970297
   58    63     0     0     0
SMALL
USER_CHARGES

@<TRIPOS>ATOM
      1 C1         -1.3611    2.6551    0.1380 C.3       1 <0>        -0.1829
      2 C2         -0.9829    1.1775    0.0173 C.3       1 <0>         0.0761
      3 C3         -0.2442    0.9463   -1.3025 C.3       1 <0>        -0.1487
      4 O1         -0.1350    0.8121    1.1080 O.3       1 <0>        -0.3091
      5 C4         -0.7415    0.4946    2.2808 C.ar      1 <0>         0.1514
      6 C5         -2.1151    0.6487    2.4168 C.ar      1 <0>        -0.2198
      7 C6         -2.7330    0.3189    3.6056 C.ar      1 <0>        -0.0153
      8 C7         -1.9884   -0.1778    4.6677 C.ar      1 <0>        -0.1076
      9 C8         -0.6024   -0.3095    4.5329 C.ar      1 <0>        -0.0236
     10 C9          0.0131    0.0225    3.3465 C.ar      1 <0>        -0.1615
     11 C10         0.2072   -0.8081    5.6978 C.3       1 <0>        -0.0810
     12 C11        -0.3754   -0.2861    7.0105 C.3       1 <0>        -0.0772
     13 C12        -1.8465   -0.5944    7.1059 C.ar      1 <0>        -0.1084
     14 C13        -2.6138   -0.5864    5.9452 C.ar      1 <0>         0.0812
     15 C14        -3.9563   -1.0183    5.9779 C.ar      1 <0>        -0.1834
     16 C15        -4.5447   -1.2870    7.2121 C.ar      1 <0>        -0.0228
     17 C16        -3.8035   -1.2110    8.3793 C.ar      1 <0>        -0.0927
     18 C17        -2.4444   -0.8202    8.3425 C.ar      1 <0>         0.1867
     19 N1         -2.0084   -0.6935    9.6493 N.pl3     1 <0>        -0.4942
     20 C18        -2.9652   -1.1539   10.5233 C.ar      1 <0>         0.1381
     21 C19        -4.1199   -1.4834    9.7834 C.ar      1 <0>        -0.0989
     22 C20        -5.2713   -1.9692   10.4003 C.ar      1 <0>        -0.0582
     23 C21        -5.2236   -2.1214   11.7770 C.ar      1 <0>        -0.1478
     24 C22        -4.0916   -1.8032   12.5052 C.ar      1 <0>        -0.0842
     25 C23        -2.9416   -1.3121   11.9070 C.ar      1 <0>        -0.1380
     26 C24        -0.7342   -0.1240   10.0978 C.3       1 <0>         0.1095
     27 C25         0.2823   -1.2486   10.3045 C.3       1 <0>         0.0563
     28 O2          1.5462   -0.6879   10.6652 O.3       1 <0>        -0.5674
     29 C26        -5.9944   -1.6090    6.9392 C.3       1 <0>         0.1391
     30 N2         -6.1371   -1.6185    5.4801 N.am      1 <0>        -0.7269
     31 C27        -4.9467   -1.3117    4.9319 C.2       1 <0>         0.5660
     32 O3         -4.7362   -1.3147    3.7345 O.2       1 <0>        -0.5189
     33 H1         -0.4576    3.2643    0.1158 H         1 <0>         0.0679
     34 H2         -2.0078    2.9337   -0.6940 H         1 <0>         0.0729
     35 H3         -1.8873    2.8197    1.0783 H         1 <0>         0.0643
     36 H4         -1.8864    0.5682    0.0395 H         1 <0>         0.0752
     37 H5          0.6593    1.5556   -1.3247 H         1 <0>         0.0673
     38 H6          0.0252   -0.1064   -1.3885 H         1 <0>         0.0655
     39 H7         -0.8909    1.2250   -2.1345 H         1 <0>         0.0779
     40 H8         -2.7004    1.0276    1.5918 H         1 <0>         0.1318
     41 H9         -3.7957    0.4828    3.7125 H         1 <0>         0.1331
     42 H10         1.0831   -0.0845    3.2440 H         1 <0>         0.1326
     43 H11         0.1948   -1.8973    5.7085 H         1 <0>         0.0830
     44 H12         1.2350   -0.4591    5.6000 H         1 <0>         0.0868
     45 H13         0.1564   -0.7849    7.8216 H         1 <0>         0.0796
     46 H14        -0.2218    0.7883    7.0718 H         1 <0>         0.0819
     47 H15        -6.1571   -2.2153    9.8340 H         1 <0>         0.1337
     48 H16        -6.0926   -2.4997   12.2945 H         1 <0>         0.1251
     49 H17        -4.1026   -1.9436   13.5759 H         1 <0>         0.1265
     50 H18        -2.0690   -1.0655   12.4933 H         1 <0>         0.1321
     51 H19        -0.3608    0.5693    9.3441 H         1 <0>         0.1020
     52 H20        -0.8844    0.4073   11.0376 H         1 <0>         0.0999
     53 H21        -0.0628   -1.9086   11.1004 H         1 <0>         0.0547
     54 H22         0.3876   -1.8176    9.3808 H         1 <0>         0.0546
     55 H23         2.2404   -1.3448   10.8123 H         1 <0>         0.3897
     56 H24        -6.2461   -2.5858    7.3506 H         1 <0>         0.0982
     57 H25        -6.6350   -0.8415    7.3744 H         1 <0>         0.1011
     58 H26        -6.9507   -1.8126    4.9898 H         1 <0>         0.4265
@<TRIPOS>BOND
     1    1    2 1
     2    1   33 1
     3    1   34 1
     4    1   35 1
     5    2    3 1
     6    2    4 1
     7    2   36 1
     8    3   37 1
     9    3   38 1
    10    3   39 1
    11    4    5 1
    12    5   10 ar
    13    5    6 ar
    14    6    7 ar
    15    6   40 1
    16    7    8 ar
    17    7   41 1
    18    8   14 1
    19    8    9 ar
    20    9   10 ar
    21    9   11 1
    22   10   42 1
    23   11   12 1
    24   11   43 1
    25   11   44 1
    26   12   13 1
    27   12   45 1
    28   12   46 1
    29   13   18 ar
    30   13   14 ar
    31   14   15 ar
    32   15   31 1
    33   15   16 ar
    34   16   17 ar
    35   16   29 1
    36   17   21 1
    37   17   18 ar
    38   18   19 1
    39   19   20 1
    40   19   26 1
    41   20   25 ar
    42   20   21 ar
    43   21   22 ar
    44   22   23 ar
    45   22   47 1
    46   23   24 ar
    47   23   48 1
    48   24   25 ar
    49   24   49 1
    50   25   50 1
    51   26   27 1
    52   26   51 1
    53   26   52 1
    54   27   28 1
    55   27   53 1
    56   27   54 1
    57   28   55 1
    58   29   30 1
    59   29   56 1
    60   29   57 1
    61   30   31 am
    62   30   58 1
    63   31   32 2
@<TRIPOS>MOLECULE
ZINC40423853
   72    77     0     0     0
SMALL
USER_CHARGES

@<TRIPOS>ATOM
      1 C1          2.2379    1.3842   -0.2342 C.3       1 <0>        -0.0473
      2 N1          2.0950   -0.0778   -0.2340 N.4       1 <0>        -0.3852
      3 C2          2.3510   -0.5928    1.1164 C.3       1 <0>        -0.0072
      4 C3          2.2832   -2.1215    1.1048 C.3       1 <0>        -0.1412
      5 C4          0.8905   -2.5617    0.6445 C.3       1 <0>        -0.0508
      6 C5          0.6045   -1.9576   -0.7334 C.3       1 <0>        -0.1411
      7 C6          0.7345   -0.4350   -0.6536 C.3       1 <0>        -0.0070
      8 C7          0.8410   -4.0652    0.5556 C.ar      1 <0>        -0.1132
      9 C8          1.7052   -4.7351   -0.2911 C.ar      1 <0>        -0.0936
     10 C9          1.6627   -6.1130   -0.3746 C.ar      1 <0>        -0.1063
     11 C10         0.7508   -6.8260    0.3931 C.ar      1 <0>         0.1731
     12 C11        -0.1158   -6.1500    1.2425 C.ar      1 <0>        -0.1391
     13 C12        -0.0645   -4.7724    1.3252 C.ar      1 <0>        -0.0851
     14 N2          0.7049   -8.2209    0.3106 N.pl3     1 <0>        -0.6282
     15 C13         1.8651   -8.9385    0.0937 C.ar      1 <0>         0.6099
     16 N3          3.0240   -8.2890    0.0752 N.ar      1 <0>        -0.5706
     17 C14         4.1613   -8.9305   -0.1280 C.ar      1 <0>         0.2834
     18 C15         4.1194  -10.3120   -0.3238 C.ar      1 <0>        -0.3313
     19 C16         5.3361  -11.1038   -0.5559 C.2       1 <0>         0.4546
     20 O1          6.4377  -10.5834   -0.5870 O.2       1 <0>        -0.4810
     21 C17         5.1647  -12.5548   -0.7488 C.2       1 <0>        -0.3113
     22 C18         3.8948  -13.0872   -0.7027 C.2       1 <0>         0.2582
     23 N4          2.8056  -12.3289   -0.4878 N.pl3     1 <0>        -0.4194
     24 C19         2.8738  -10.9709   -0.2983 C.ar      1 <0>         0.4674
     25 N5          1.7802  -10.2481   -0.0825 N.ar      1 <0>        -0.5809
     26 C20         1.5509  -12.9492   -0.4559 C.ar      1 <0>         0.0883
     27 C21         1.2863  -13.9382    0.4827 C.ar      1 <0>        -0.1031
     28 C22         0.0480  -14.5458    0.5100 C.ar      1 <0>        -0.0925
     29 C23        -0.9333  -14.1744   -0.3952 C.ar      1 <0>        -0.0738
     30 C24        -0.6729  -13.1902   -1.3310 C.ar      1 <0>        -0.0858
     31 C25         0.5659  -12.5741   -1.3581 C.ar      1 <0>        -0.0652
     32 C26        -1.8957  -12.9701   -2.1958 C.3       1 <0>        -0.0822
     33 C27        -2.7753  -14.2193   -1.9772 C.3       1 <0>        -0.1217
     34 C28        -2.3491  -14.6821   -0.5678 C.3       1 <0>        -0.0880
     35 C29         6.3305  -13.4204   -0.9871 C.2       1 <0>         0.5966
     36 O2          6.1706  -14.5976   -1.2487 O.2       1 <0>        -0.5314
     37 N6          7.5754  -12.9090   -0.9156 N.am      1 <0>        -0.5864
     38 O3          8.6911  -13.7114   -1.2572 O.3       1 <0>        -0.1461
     39 C30         9.9476  -13.0417   -1.1356 C.3       1 <0>         0.0006
     40 H1          1.5174    1.8198    0.4581 H         1 <0>         0.1214
     41 H2          3.2479    1.6506    0.0773 H         1 <0>         0.1237
     42 H3          2.0544    1.7671   -1.2381 H         1 <0>         0.1236
     43 H4          3.3412   -0.2760    1.4439 H         1 <0>         0.1315
     44 H5          1.5999   -0.2014    1.8025 H         1 <0>         0.1287
     45 H6          3.0341   -2.5139    0.4192 H         1 <0>         0.0906
     46 H7          2.4718   -2.5018    2.1087 H         1 <0>         0.1143
     47 H8          0.1437   -2.2128    1.3576 H         1 <0>         0.0951
     48 H9          1.3206   -2.3466   -1.4572 H         1 <0>         0.0901
     49 H10        -0.4068   -2.2207   -1.0433 H         1 <0>         0.1139
     50 H11         0.0179   -0.0470    0.0702 H         1 <0>         0.1288
     51 H12         0.5313   -0.0016   -1.6329 H         1 <0>         0.1312
     52 H13         2.4138   -4.1801   -0.8880 H         1 <0>         0.1216
     53 H14         2.3377   -6.6355   -1.0363 H         1 <0>         0.1388
     54 H15        -0.8262   -6.7014    1.8405 H         1 <0>         0.1306
     55 H16        -0.7352   -4.2465    1.9885 H         1 <0>         0.1285
     56 H17        -0.1417   -8.6848    0.4058 H         1 <0>         0.4293
     57 H18         5.1010   -8.3984   -0.1425 H         1 <0>         0.1942
     58 H19         3.7699  -14.1506   -0.8446 H         1 <0>         0.1944
     59 H20         2.0483  -14.2307    1.1900 H         1 <0>         0.1352
     60 H21        -0.1575  -15.3147    1.2400 H         1 <0>         0.1355
     61 H22         0.7678  -11.8022   -2.0860 H         1 <0>         0.1235
     62 H23        -2.4271  -12.0730   -1.8781 H         1 <0>         0.0831
     63 H24        -1.6080  -12.8888   -3.2440 H         1 <0>         0.0783
     64 H25        -3.8330  -13.9565   -1.9953 H         1 <0>         0.0815
     65 H26        -2.5524  -14.9850   -2.7203 H         1 <0>         0.0768
     66 H27        -2.3711  -15.7701   -0.5043 H         1 <0>         0.0826
     67 H28        -3.0023  -14.2451    0.1874 H         1 <0>         0.0863
     68 H29         7.7072  -11.9914   -0.6302 H         1 <0>         0.4186
     69 H30         9.9619  -12.1736   -1.7947 H         1 <0>         0.0568
     70 H31        10.0882  -12.7174   -0.1045 H         1 <0>         0.0563
     71 H32        10.7511  -13.7232   -1.4150 H         1 <0>         0.1145
     72 H33         2.7606   -0.4799   -0.8769 H         1 <0>         0.4244
@<TRIPOS>BOND
     1    1    2 1
     2    1   40 1
     3    1   41 1
     4    1   42 1
     5    2    7 1
     6    2    3 1
     7    2   72 1
     8    3    4 1
     9    3   43 1
    10    3   44 1
    11    4    5 1
    12    4   45 1
    13    4   46 1
    14    5    6 1
    15    5    8 1
    16    5   47 1
    17    6    7 1
    18    6   48 1
    19    6   49 1
    20    7   50 1
    21    7   51 1
    22    8   13 ar
    23    8    9 ar
    24    9   10 ar
    25    9   52 1
    26   10   11 ar
    27   10   53 1
    28   11   12 ar
    29   11   14 1
    30   12   13 ar
    31   12   54 1
    32   13   55 1
    33   14   15 1
    34   14   56 1
    35   15   25 ar
    36   15   16 ar
    37   16   17 ar
    38   17   18 ar
    39   17   57 1
    40   18   24 ar
    41   18   19 1
    42   19   20 2
    43   19   21 1
    44   21   22 2
    45   21   35 1
    46   22   23 1
    47   22   58 1
    48   23   24 1
    49   23   26 1
    50   24   25 ar
    51   26   31 ar
    52   26   27 ar
    53   27   28 ar
    54   27   59 1
    55   28   29 ar
    56   28   60 1
    57   29   34 1
    58   29   30 ar
    59   30   31 ar
    60   30   32 1
    61   31   61 1
    62   32   33 1
    63   32   62 1
    64   32   63 1
    65   33   34 1
    66   33   64 1
    67   33   65 1
    68   34   66 1
    69   34   67 1
    70   35   36 2
    71   35   37 am
    72   37   38 1
    73   37   68 1
    74   38   39 1
    75   39   69 1
    76   39   70 1
    77   39   71 1
@<TRIPOS>MOLECULE
ZINC40393428
   43    46     0     0     0
SMALL
USER_CHARGES

@<TRIPOS>ATOM
      1 C1          1.0860   -0.4602    0.7525 C.ar      1 <0>        -0.0841
      2 C2          2.2745    0.2438    0.7392 C.ar      1 <0>        -0.1151
      3 C3          2.3811    1.4103   -0.0065 C.ar      1 <0>         0.1760
      4 C4          1.2918    1.8661   -0.7371 C.ar      1 <0>        -0.1379
      5 C5          0.1052    1.1577   -0.7200 C.ar      1 <0>        -0.0148
      6 C6          0.0027   -0.0047    0.0245 C.ar      1 <0>        -0.1235
      7 Cl1        -1.2579    1.7264   -1.6324 Cl        1 <0>        -0.0629
      8 N1          3.5838    2.1253   -0.0212 N.am      1 <0>        -0.6779
      9 C7          4.7585    1.4702    0.0657 C.2       1 <0>         0.7004
     10 O1          4.7784    0.2546    0.0596 O.2       1 <0>        -0.5033
     11 N2          5.9109    2.1627    0.1596 N.am      1 <0>        -0.6266
     12 C8          7.1223    1.4870    0.2493 C.2       1 <0>         0.2860
     13 N3          7.3361    0.1891    0.2518 N.2       1 <0>        -0.5158
     14 C9          8.5589   -0.3008    0.3445 C.2       1 <0>         0.0768
     15 C10         9.5748    0.5917    0.4362 C.2       1 <0>        -0.2162
     16 S1          8.6723    2.1310    0.3736 S.3       1 <0>         0.1280
     17 C11        11.0579    0.3512    0.5526 C.3       1 <0>        -0.0363
     18 C12        11.6753    0.2860   -0.8457 C.3       1 <0>         0.1313
     19 N4         13.1171    0.0522   -0.7326 N.pl3     1 <0>        -0.7061
     20 C13        13.8949   -0.0448   -1.8749 C.ar      1 <0>         0.4986
     21 C14        15.2577   -0.2712   -1.7887 C.ar      1 <0>        -0.2996
     22 C15        16.0555   -0.3716   -2.9487 C.ar      1 <0>         0.1938
     23 C16        17.4235   -0.6022   -2.7204 C.2       1 <0>        -0.1561
     24 C17        17.8907   -0.7126   -1.4622 C.2       1 <0>        -0.1043
     25 S2         16.4217   -0.4971   -0.4711 S.3       1 <0>         0.0744
     26 N5         15.3968   -0.2319   -4.1261 N.ar      1 <0>        -0.5372
     27 C18        14.1074   -0.0188   -4.1645 C.ar      1 <0>         0.3437
     28 N6         13.3491    0.0719   -3.0857 N.ar      1 <0>        -0.5638
     29 H1          1.0044   -1.3699    1.3289 H         1 <0>         0.1384
     30 H2          3.1201   -0.1128    1.3086 H         1 <0>         0.1426
     31 H3          1.3716    2.7733   -1.3178 H         1 <0>         0.1376
     32 H4         -0.9253   -0.5572    0.0363 H         1 <0>         0.1366
     33 H5          3.5722    3.0925   -0.0941 H         1 <0>         0.4112
     34 H6          5.8950    3.1325    0.1645 H         1 <0>         0.4247
     35 H7          8.7413   -1.3653    0.3475 H         1 <0>         0.1767
     36 H8         11.5152    1.1660    1.1141 H         1 <0>         0.0881
     37 H9         11.2335   -0.5911    1.0716 H         1 <0>         0.0988
     38 H10        11.2181   -0.5287   -1.4072 H         1 <0>         0.0778
     39 H11        11.4997    1.2283   -1.3647 H         1 <0>         0.0747
     40 H12        13.5272   -0.0346    0.1422 H         1 <0>         0.4118
     41 H13        18.1015   -0.6915   -3.5564 H         1 <0>         0.1518
     42 H14        18.9044   -0.8881   -1.1337 H         1 <0>         0.2028
     43 H15        13.6355    0.0848   -5.1304 H         1 <0>         0.1990
@<TRIPOS>BOND
     1    1    6 ar
     2    1    2 ar
     3    1   29 1
     4    2    3 ar
     5    2   30 1
     6    3    4 ar
     7    3    8 1
     8    4    5 ar
     9    4   31 1
    10    5    6 ar
    11    5    7 1
    12    6   32 1
    13    8    9 am
    14    8   33 1
    15    9   10 2
    16    9   11 am
    17   11   12 1
    18   11   34 1
    19   12   16 1
    20   12   13 2
    21   13   14 1
    22   14   15 2
    23   14   35 1
    24   15   16 1
    25   15   17 1
    26   17   18 1
    27   17   36 1
    28   17   37 1
    29   18   19 1
    30   18   38 1
    31   18   39 1
    32   19   20 1
    33   19   40 1
    34   20   28 ar
    35   20   21 ar
    36   21   25 1
    37   21   22 ar
    38   22   23 1
    39   22   26 ar
    40   23   24 2
    41   23   41 1
    42   24   25 1
    43   24   42 1
    44   26   27 ar
    45   27   28 ar
    46   27   43 1
@<TRIPOS>MOLECULE
ZINC16052714
   62    67     0     0     0
SMALL
USER_CHARGES

@<TRIPOS>ATOM
      1 C1         -1.2179    0.3618   -0.7929 C.3       1 <0>        -0.6727
      2 S1         -0.8608   -1.4165   -0.7657 S.o2      1 <0>         2.6086
      3 O1         -0.0554   -1.7368    0.3604 O.2       1 <0>        -0.9532
      4 O2         -2.0406   -2.1570   -1.0467 O.2       1 <0>        -0.9539
      5 N1          0.1211   -1.6734   -2.0742 N.pl3     1 <0>        -1.0033
      6 C2         -0.4464   -1.9994   -3.3914 C.3       1 <0>         0.1224
      7 C3          0.2528   -3.2539   -3.9258 C.3       1 <0>         0.0451
      8 N2          1.7067   -3.0443   -3.9105 N.3       1 <0>        -0.5316
      9 C4          2.2031   -2.8527   -2.5412 C.3       1 <0>         0.0371
     10 C5          1.5835   -1.5758   -1.9515 C.3       1 <0>         0.1234
     11 C6          2.4055   -4.1534   -4.5734 C.3       1 <0>         0.1300
     12 C7          3.8574   -3.7940   -4.7575 C.2       1 <0>        -0.0864
     13 C8          4.8850   -4.0220   -3.9198 C.2       1 <0>        -0.1471
     14 C9          6.2159   -3.5887   -4.2968 C.ar      1 <0>         0.2076
     15 C10         6.2960   -2.9484   -5.5522 C.ar      1 <0>        -0.3029
     16 S2          4.6250   -2.9718   -6.1413 S.3       1 <0>         0.1024
     17 C11         7.5058   -2.4811   -6.0423 C.ar      1 <0>         0.5055
     18 N3          8.5981   -2.6496   -5.2999 N.ar      1 <0>        -0.5559
     19 C12         8.5129   -3.2543   -4.1181 C.ar      1 <0>         0.4114
     20 N4          7.3823   -3.7111   -3.6207 N.ar      1 <0>        -0.5253
     21 C13         9.7506   -3.4228   -3.3231 C.ar      1 <0>         0.0278
     22 C14        10.9622   -2.9521   -3.8074 C.ar      1 <0>        -0.1016
     23 C15        12.1227   -3.1090   -3.0655 C.ar      1 <0>        -0.0792
     24 C16        12.0948   -3.7329   -1.8377 C.ar      1 <0>        -0.1198
     25 C17        10.8933   -4.2156   -1.3259 C.ar      1 <0>         0.1177
     26 C18         9.7061   -4.0584   -2.0641 C.ar      1 <0>        -0.1364
     27 C19         8.6656   -4.6312   -1.2987 C.2       1 <0>         0.0923
     28 N5          9.1685   -5.0916   -0.1893 N.2       1 <0>        -0.2546
     29 N6         10.5502   -4.8651   -0.1671 N.pl3     1 <0>        -0.5083
     30 H1         11.1568   -5.1130    0.5481 H         1 <0>         0.4418
     31 N7          7.5766   -1.8539   -7.2757 N.pl3     1 <0>        -0.5948
     32 C20         6.3563   -1.5252   -8.0294 C.3       1 <0>         0.0878
     33 C21         6.4273   -0.0515   -8.4456 C.3       1 <0>         0.0500
     34 O3          7.6692    0.1903   -9.1113 O.3       1 <0>        -0.3752
     35 C22         8.8226   -0.0241   -8.2943 C.3       1 <0>         0.0453
     36 C23         8.8740   -1.4913   -7.8678 C.3       1 <0>         0.0863
     37 H2         -0.2856    0.9209   -0.7133 H         1 <0>         0.1276
     38 H3         -1.7166    0.6180   -1.7276 H         1 <0>         0.1278
     39 H4         -1.8661    0.6151    0.0461 H         1 <0>         0.1284
     40 H5         -1.5151   -2.1898   -3.2927 H         1 <0>         0.1007
     41 H6         -0.2815   -1.1682   -4.0770 H         1 <0>         0.0790
     42 H7          0.0016   -4.1068   -3.2953 H         1 <0>         0.0472
     43 H8         -0.0762   -3.4465   -4.9469 H         1 <0>         0.0927
     44 H9          1.9247   -3.7112   -1.9300 H         1 <0>         0.0475
     45 H10         3.2885   -2.7545   -2.5582 H         1 <0>         0.0918
     46 H11         1.9397   -0.7046   -2.5013 H         1 <0>         0.0780
     47 H12         1.8575   -1.4860   -0.9003 H         1 <0>         0.0997
     48 H13         2.3283   -5.0505   -3.9590 H         1 <0>         0.0677
     49 H14         1.9510   -4.3394   -5.5465 H         1 <0>         0.1006
     50 H15         4.7202   -4.5219   -2.9767 H         1 <0>         0.1479
     51 H16        11.0018   -2.4609   -4.7683 H         1 <0>         0.1410
     52 H17        13.0593   -2.7381   -3.4547 H         1 <0>         0.1377
     53 H18        13.0070   -3.8483   -1.2711 H         1 <0>         0.1302
     54 H19         7.6256   -4.6789   -1.5860 H         1 <0>         0.2037
     55 H20         6.2923   -2.1546   -8.9170 H         1 <0>         0.0878
     56 H21         5.4812   -1.6871   -7.4000 H         1 <0>         0.0911
     57 H22         5.6022    0.1764   -9.1203 H         1 <0>         0.1135
     58 H23         6.3598    0.5805   -7.5601 H         1 <0>         0.0595
     59 H24         9.7207    0.2235   -8.8601 H         1 <0>         0.1116
     60 H25         8.7638    0.6080   -7.4083 H         1 <0>         0.0581
     61 H26         9.6654   -1.6309   -7.1314 H         1 <0>         0.1107
     62 H27         9.0678   -2.1173   -8.7388 H         1 <0>         0.0783
@<TRIPOS>BOND
     1    1    2 1
     2    1   37 1
     3    1   38 1
     4    1   39 1
     5    2    3 2
     6    2    4 2
     7    2    5 1
     8    5   10 1
     9    5    6 1
    10    6    7 1
    11    6   40 1
    12    6   41 1
    13    7    8 1
    14    7   42 1
    15    7   43 1
    16    8    9 1
    17    8   11 1
    18    9   10 1
    19    9   44 1
    20    9   45 1
    21   10   46 1
    22   10   47 1
    23   11   12 1
    24   11   48 1
    25   11   49 1
    26   12   16 1
    27   12   13 2
    28   13   14 1
    29   13   50 1
    30   14   20 ar
    31   14   15 ar
    32   15   16 1
    33   15   17 ar
    34   17   18 ar
    35   17   31 1
    36   18   19 ar
    37   19   20 ar
    38   19   21 1
    39   21   26 ar
    40   21   22 ar
    41   22   23 ar
    42   22   51 1
    43   23   24 ar
    44   23   52 1
    45   24   25 ar
    46   24   53 1
    47   25   29 1
    48   25   26 ar
    49   26   27 1
    50   27   28 2
    51   27   54 1
    52   28   29 1
    53   29   30 1
    54   31   36 1
    55   31   32 1
    56   32   33 1
    57   32   55 1
    58   32   56 1
    59   33   34 1
    60   33   57 1
    61   33   58 1
    62   34   35 1
    63   35   36 1
    64   35   59 1
    65   35   60 1
    66   36   61 1
    67   36   62 1
@<TRIPOS>MOLECULE
ZINC16052714
   63    68     0     0     0
SMALL
USER_CHARGES

@<TRIPOS>ATOM
      1 C1         -1.2288    0.3975   -0.8157 C.3       1 <0>        -0.6666
      2 S1         -0.8705   -1.3801   -0.7668 S.o2      1 <0>         2.6057
      3 O1         -0.0610   -1.6854    0.3604 O.2       1 <0>        -0.9385
      4 O2         -2.0509   -2.1248   -1.0340 O.2       1 <0>        -0.9391
      5 N1          0.1069   -1.6534   -2.0754 N.pl3     1 <0>        -1.0167
      6 C2         -0.4638   -1.9967   -3.3871 C.3       1 <0>         0.0929
      7 C3          0.2495   -3.2458   -3.9152 C.3       1 <0>        -0.0180
      8 N2          1.6991   -3.0122   -3.9273 N.4       1 <0>        -0.3841
      9 C4          2.1876   -2.8289   -2.5547 C.3       1 <0>        -0.0264
     10 C5          1.5701   -1.5537   -1.9606 C.3       1 <0>         0.0955
     11 C6          2.3742   -4.1665   -4.5353 C.3       1 <0>         0.0906
     12 C7          3.8480   -3.8777   -4.6608 C.2       1 <0>        -0.2191
     13 C8          4.8258   -4.1336   -3.7730 C.2       1 <0>        -0.0705
     14 C9          6.1908   -3.7698   -4.0981 C.ar      1 <0>         0.1897
     15 C10         6.3561   -3.1619   -5.3612 C.ar      1 <0>        -0.2890
     16 S2          4.7135   -3.1223   -6.0247 S.3       1 <0>         0.1250
     17 C11         7.6068   -2.7612   -5.8054 C.ar      1 <0>         0.5074
     18 N3          8.6561   -2.9627   -5.0111 N.ar      1 <0>        -0.5423
     19 C12         8.4906   -3.5364   -3.8224 C.ar      1 <0>         0.4316
     20 N4          7.3192   -3.9301   -3.3675 N.ar      1 <0>        -0.5198
     21 C13         9.6828   -3.7434   -2.9689 C.ar      1 <0>         0.0088
     22 C14        10.9352   -3.3393   -3.4073 C.ar      1 <0>        -0.0901
     23 C15        12.0531   -3.5322   -2.6106 C.ar      1 <0>        -0.0812
     24 C16        11.9420   -4.1268   -1.3730 C.ar      1 <0>        -0.1070
     25 C17        10.6979   -4.5428   -0.9064 C.ar      1 <0>         0.1172
     26 C18         9.5531   -4.3482   -1.7007 C.ar      1 <0>        -0.1343
     27 C19         8.4542   -4.8558   -0.9717 C.2       1 <0>         0.0841
     28 N5          8.8856   -5.3138    0.1684 N.2       1 <0>        -0.2483
     29 N6         10.2740   -5.1500    0.2485 N.pl3     1 <0>        -0.5025
     30 H1         10.8361   -5.4093    0.9953 H         1 <0>         0.4451
     31 N7          7.7612   -2.1655   -7.0467 N.pl3     1 <0>        -0.5896
     32 C20         6.5921   -1.7984   -7.8614 C.3       1 <0>         0.0915
     33 C21         6.7499   -0.3391   -8.3036 C.3       1 <0>         0.0496
     34 O3          8.0299   -0.1690   -8.9171 O.3       1 <0>        -0.3699
     35 C22         9.1348   -0.4174   -8.0446 C.3       1 <0>         0.0446
     36 C23         9.0990   -1.8756   -7.5867 C.3       1 <0>         0.0824
     37 H2         -0.2965    0.9581   -0.7467 H         1 <0>         0.1315
     38 H3         -1.7309    0.6413   -1.7519 H         1 <0>         0.1318
     39 H4         -1.8742    0.6613    0.0221 H         1 <0>         0.1388
     40 H5         -1.5292   -2.2006   -3.2810 H         1 <0>         0.1421
     41 H6         -0.3136   -1.1687   -4.0800 H         1 <0>         0.0993
     42 H7          0.0234   -4.0939   -3.2689 H         1 <0>         0.1407
     43 H8         -0.0927   -3.4589   -4.9279 H         1 <0>         0.1486
     44 H9          1.9028   -3.6897   -1.9496 H         1 <0>         0.1416
     45 H10         3.2735   -2.7349   -2.5649 H         1 <0>         0.1425
     46 H11         1.9222   -0.6817   -2.5118 H         1 <0>         0.0986
     47 H12         1.8499   -1.4646   -0.9109 H         1 <0>         0.1411
     48 H13         2.2283   -5.0452   -3.9071 H         1 <0>         0.1533
     49 H14         1.9551   -4.3531   -5.5241 H         1 <0>         0.1519
     50 H15         4.5964   -4.6044   -2.8284 H         1 <0>         0.1590
     51 H16        11.0401   -2.8718   -4.3752 H         1 <0>         0.1422
     52 H17        13.0223   -3.2131   -2.9644 H         1 <0>         0.1420
     53 H18        12.8219   -4.2709   -0.7635 H         1 <0>         0.1349
     54 H19         7.4269   -4.8625   -1.3048 H         1 <0>         0.2003
     55 H20         6.5382   -2.4438   -8.7381 H         1 <0>         0.0941
     56 H21         5.6834   -1.9063   -7.2691 H         1 <0>         0.0802
     57 H22         5.9669   -0.0889   -9.0194 H         1 <0>         0.1156
     58 H23         6.6727    0.3149   -7.4350 H         1 <0>         0.0597
     59 H24        10.0676   -0.2236   -8.5741 H         1 <0>         0.1177
     60 H25         9.0663    0.2363   -7.1751 H         1 <0>         0.0604
     61 H26         9.8497   -2.0346   -6.8126 H         1 <0>         0.1144
     62 H27         9.3019   -2.5290   -8.4352 H         1 <0>         0.0852
     63 H28         1.9007   -2.1845   -4.4680 H         1 <0>         0.4244
@<TRIPOS>BOND
     1    1    2 1
     2    1   37 1
     3    1   38 1
     4    1   39 1
     5    2    3 2
     6    2    4 2
     7    2    5 1
     8    5   10 1
     9    5    6 1
    10    6    7 1
    11    6   40 1
    12    6   41 1
    13    7    8 1
    14    7   42 1
    15    7   43 1
    16    8    9 1
    17    8   11 1
    18    8   63 1
    19    9   10 1
    20    9   44 1
    21    9   45 1
    22   10   46 1
    23   10   47 1
    24   11   12 1
    25   11   48 1
    26   11   49 1
    27   12   16 1
    28   12   13 2
    29   13   14 1
    30   13   50 1
    31   14   20 ar
    32   14   15 ar
    33   15   16 1
    34   15   17 ar
    35   17   18 ar
    36   17   31 1
    37   18   19 ar
    38   19   20 ar
    39   19   21 1
    40   21   26 ar
    41   21   22 ar
    42   22   23 ar
    43   22   51 1
    44   23   24 ar
    45   23   52 1
    46   24   25 ar
    47   24   53 1
    48   25   29 1
    49   25   26 ar
    50   26   27 1
    51   27   28 2
    52   27   54 1
    53   28   29 1
    54   29   30 1
    55   31   36 1
    56   31   32 1
    57   32   33 1
    58   32   55 1
    59   32   56 1
    60   33   34 1
    61   33   57 1
    62   33   58 1
    63   34   35 1
    64   35   36 1
    65   35   59 1
    66   35   60 1
    67   36   61 1
    68   36   62 1
@<TRIPOS>MOLECULE
ZINC03816310
   51    55     0     0     0
SMALL
USER_CHARGES
4-amino-5-fluoro-3-[5-(4-methylpiperazin-1-yl)-3H-benzoimidazol-2-yl]-1H-quinolin-2-one
@<TRIPOS>ATOM
      1 C1         -4.4670    0.8494    3.0633 C.3       1 <0>        -0.0407
      2 C2         -3.3790    0.9463    0.9019 C.3       1 <0>         0.0019
      3 C3         -3.5151    1.4789   -0.5264 C.3       1 <0>         0.0203
      4 N1         -3.5799    2.9467   -0.4951 N.pl3     1 <0>        -0.4822
      5 C4         -4.7239    3.4034    0.3063 C.3       1 <0>         0.0231
      6 C5         -4.5878    2.8708    1.7347 C.3       1 <0>         0.0021
      7 C6         -3.6324    3.4738   -1.7895 C.ar      1 <0>         0.0898
      8 C7         -3.6187    2.6172   -2.8884 C.ar      1 <0>        -0.1658
      9 C8         -3.6694    3.1157   -4.1588 C.ar      1 <0>        -0.0428
     10 C9         -3.7362    4.4973   -4.3655 C.ar      1 <0>         0.0571
     11 C10        -3.7506    5.3641   -3.2589 C.ar      1 <0>         0.0655
     12 C11        -3.7036    4.8454   -1.9734 C.ar      1 <0>        -0.1134
     13 N2         -3.8198    6.6467   -3.7722 N.pl3     1 <0>        -0.5851
     14 H1         -3.8464    7.4962   -3.2453 H         1 <0>         0.4436
     15 C12        -3.8451    6.5353   -5.1390 C.2       1 <0>         0.4046
     16 N3         -3.7957    5.2687   -5.4809 N.2       1 <0>        -0.5294
     17 C13        -3.9164    7.6652   -6.0804 C.2       1 <0>        -0.3025
     18 C14        -4.0559    7.4305   -7.4504 C.2       1 <0>         0.3760
     19 C15        -4.1228    8.5898   -8.3476 C.ar      1 <0>        -0.1878
     20 C16        -4.0447    9.8830   -7.7997 C.ar      1 <0>         0.2450
     21 C17        -4.1078   10.9864   -8.6429 C.ar      1 <0>        -0.1734
     22 C18        -4.2458   10.8081  -10.0035 C.ar      1 <0>        -0.0185
     23 C19        -4.3231    9.5350  -10.5468 C.ar      1 <0>        -0.1801
     24 C20        -4.2628    8.4239   -9.7304 C.ar      1 <0>         0.1680
     25 F1         -4.3388    7.1843  -10.2623 F         1 <0>        -0.1206
     26 N4         -3.9076   10.0470   -6.4354 N.am      1 <0>        -0.6368
     27 H2         -3.8498   10.9715   -6.0585 H         1 <0>         0.4300
     28 C21        -3.8500    8.9949   -5.6023 C.2       1 <0>         0.5826
     29 O1         -3.7334    9.1908   -4.4050 O.2       1 <0>        -0.5600
     30 N5         -4.1288    6.1500   -7.9440 N.pl3     1 <0>        -0.8025
     31 H3         -3.5472    1.1734    3.5502 H         1 <0>         0.1241
     32 H4         -5.3249    1.2032    3.6351 H         1 <0>         0.1225
     33 H5         -4.4877   -0.2393    3.0134 H         1 <0>         0.1228
     34 H6         -3.3598   -0.1434    0.8835 H         1 <0>         0.1376
     35 H7         -2.4541    1.3189    1.3424 H         1 <0>         0.1399
     36 H8         -2.6529    1.1655   -1.1151 H         1 <0>         0.1307
     37 H9         -4.4260    1.0841   -0.9765 H         1 <0>         0.0717
     38 H10        -4.7431    4.4931    0.3248 H         1 <0>         0.1261
     39 H11        -5.6486    3.0309   -0.1345 H         1 <0>         0.0691
     40 H12        -3.6769    3.2656    2.1847 H         1 <0>         0.1400
     41 H13        -5.4498    3.1846    2.3235 H         1 <0>         0.1367
     42 H14        -3.5672    1.5496   -2.7341 H         1 <0>         0.1314
     43 H15        -3.6582    2.4431   -5.0037 H         1 <0>         0.1346
     44 H16        -3.7183    5.5073   -1.1202 H         1 <0>         0.1268
     45 H17        -4.0491   11.9836   -8.2323 H         1 <0>         0.1496
     46 H18        -4.2944   11.6697  -10.6529 H         1 <0>         0.1516
     47 H19        -4.4307    9.4121  -11.6144 H         1 <0>         0.1515
     48 H20        -4.3218    5.4103   -7.3468 H         1 <0>         0.4285
     49 H21        -3.9874    5.9859   -8.8895 H         1 <0>         0.4092
     50 N6         -4.5458    1.3938    1.6909 N.4       1 <0>        -0.3998
     51 H22        -5.4033    1.0486    1.2438 H         1 <0>         0.4274
@<TRIPOS>BOND
     1    1   31 1
     2    1   32 1
     3    1   33 1
     4    1   50 1
     5    2    3 1
     6    2   34 1
     7    2   35 1
     8    2   50 1
     9    3    4 1
    10    3   36 1
    11    3   37 1
    12    4    5 1
    13    4    7 1
    14    5    6 1
    15    5   38 1
    16    5   39 1
    17    6   40 1
    18    6   41 1
    19    6   50 1
    20    7   12 ar
    21    7    8 ar
    22    8    9 ar
    23    8   42 1
    24    9   10 ar
    25    9   43 1
    26   10   16 1
    27   10   11 ar
    28   11   12 ar
    29   11   13 1
    30   12   44 1
    31   13   14 1
    32   13   15 1
    33   15   16 2
    34   15   17 1
    35   17   28 1
    36   17   18 2
    37   18   19 1
    38   18   30 1
    39   19   24 ar
    40   19   20 ar
    41   20   21 ar
    42   20   26 1
    43   21   22 ar
    44   21   45 1
    45   22   23 ar
    46   22   46 1
    47   23   24 ar
    48   23   47 1
    49   24   25 1
    50   26   27 1
    51   26   28 am
    52   28   29 2
    53   30   48 1
    54   30   49 1
    55   50   51 1
@<TRIPOS>MOLECULE
ZINC03964325
   57    59     0     0     0
SMALL
USER_CHARGES

@<TRIPOS>ATOM
      1 C1          0.1489    2.0884    0.1150 C.3       1 <0>        -0.1876
      2 C2          0.1348    0.5603    0.1888 C.3       1 <0>        -0.0191
      3 N1         -1.2520    0.0881    0.2979 N.4       1 <0>        -0.3822
      4 C3         -1.9779    0.4111   -0.9377 C.3       1 <0>        -0.0142
      5 C4         -3.4549    0.0484   -0.7712 C.3       1 <0>        -0.1895
      6 C5         -1.2593   -1.3663    0.5041 C.3       1 <0>        -0.0265
      7 C6         -0.6131   -1.6936    1.8518 C.3       1 <0>         0.0952
      8 N2         -0.6203   -3.1440    2.0575 N.am      1 <0>        -0.7289
      9 C7         -0.0988   -3.6675    3.1846 C.2       1 <0>         0.6111
     10 O1          0.3779   -2.9358    4.0309 O.2       1 <0>        -0.5184
     11 C8         -0.1061   -5.1270    3.3915 C.2       1 <0>        -0.2420
     12 C9          0.9071   -6.0320    3.0089 C.2       1 <0>        -0.0577
     13 C10         0.4868   -7.2892    3.3960 C.2       1 <0>        -0.0075
     14 N3         -0.7476   -7.1595    3.9982 N.pl3     1 <0>        -0.4910
     15 H1         -1.2731   -7.8879    4.3645 H         1 <0>         0.4270
     16 C11        -1.1044   -5.8642    4.0022 C.2       1 <0>         0.1158
     17 C12        -2.3825   -5.3072    4.5743 C.3       1 <0>        -0.0999
     18 C13         1.1957   -8.4957    3.2079 C.2       1 <0>         0.0729
     19 C14         0.5100   -9.6674    2.9570 C.2       1 <0>        -0.1889
     20 C15         1.0648  -11.0377    2.8871 C.ar      1 <0>        -0.0736
     21 C16         2.3472  -11.5557    3.0375 C.ar      1 <0>        -0.1000
     22 C17         2.5553  -12.9162    2.9116 C.ar      1 <0>         0.0861
     23 C18         1.4888  -13.7593    2.6366 C.ar      1 <0>        -0.1139
     24 C19         0.2139  -13.2531    2.4856 C.ar      1 <0>        -0.1021
     25 C20        -0.0144  -11.8871    2.6092 C.ar      1 <0>         0.1282
     26 N4         -1.1765  -11.1301    2.5069 N.am      1 <0>        -0.6466
     27 C21        -0.9294   -9.8245    2.7079 C.2       1 <0>         0.5595
     28 O2         -1.7538   -8.9280    2.6842 O.2       1 <0>        -0.5156
     29 F1          3.7984  -13.4252    3.0561 F         1 <0>        -0.1318
     30 C22         2.1990   -5.6919    2.3116 C.3       1 <0>        -0.0931
     31 H2          1.1793    2.4435    0.1331 H         1 <0>         0.1076
     32 H3         -0.3308    2.4121   -0.8087 H         1 <0>         0.0811
     33 H4         -0.3916    2.4984    0.9682 H         1 <0>         0.0809
     34 H5          0.5888    0.1488   -0.7126 H         1 <0>         0.1317
     35 H6          0.6996    0.2334    1.0619 H         1 <0>         0.1337
     36 H7         -1.8867    1.4775   -1.1444 H         1 <0>         0.1351
     37 H8         -1.5554   -0.1571   -1.7664 H         1 <0>         0.1307
     38 H9         -3.5537   -1.0316   -0.6617 H         1 <0>         0.0802
     39 H10        -3.8523    0.5414    0.1160 H         1 <0>         0.0808
     40 H11        -4.0109    0.3769   -1.6492 H         1 <0>         0.1074
     41 H12        -2.2871   -1.7292    0.4963 H         1 <0>         0.1397
     42 H13        -0.6973   -1.8494   -0.2952 H         1 <0>         0.1376
     43 H14         0.4147   -1.3306    1.8596 H         1 <0>         0.0893
     44 H15        -1.1751   -1.2105    2.6511 H         1 <0>         0.0890
     45 H16        -1.0005   -3.7277    1.3824 H         1 <0>         0.4099
     46 H17        -3.1529   -5.3000    3.8032 H         1 <0>         0.0840
     47 H18        -2.7087   -5.9289    5.4080 H         1 <0>         0.0782
     48 H19        -2.2103   -4.2898    4.9254 H         1 <0>         0.0840
     49 H20         2.2744   -8.5020    3.2604 H         1 <0>         0.1589
     50 H21         3.1765  -10.8977    3.2512 H         1 <0>         0.1436
     51 H22         1.6578  -14.8215    2.5394 H         1 <0>         0.1485
     52 H23        -0.6084  -13.9196    2.2712 H         1 <0>         0.1415
     53 H24        -2.0541  -11.4980    2.3189 H         1 <0>         0.4217
     54 H25         2.9686   -5.4822    3.0545 H         1 <0>         0.0785
     55 H26         2.5107   -6.5337    1.6932 H         1 <0>         0.0726
     56 H27         2.0522   -4.8138    1.6827 H         1 <0>         0.0634
     57 H28        -1.7009    0.5410    1.0799 H         1 <0>         0.4247
@<TRIPOS>BOND
     1    1    2 1
     2    1   31 1
     3    1   32 1
     4    1   33 1
     5    2    3 1
     6    2   34 1
     7    2   35 1
     8    3    4 1
     9    3    6 1
    10    3   57 1
    11    4    5 1
    12    4   36 1
    13    4   37 1
    14    5   38 1
    15    5   39 1
    16    5   40 1
    17    6    7 1
    18    6   41 1
    19    6   42 1
    20    7    8 1
    21    7   43 1
    22    7   44 1
    23    8    9 am
    24    8   45 1
    25    9   10 2
    26    9   11 1
    27   11   16 2
    28   11   12 1
    29   12   13 2
    30   12   30 1
    31   13   14 1
    32   13   18 1
    33   14   15 1
    34   14   16 1
    35   16   17 1
    36   17   46 1
    37   17   47 1
    38   17   48 1
    39   18   19 2
    40   18   49 1
    41   19   27 1
    42   19   20 1
    43   20   25 ar
    44   20   21 ar
    45   21   22 ar
    46   21   50 1
    47   22   23 ar
    48   22   29 1
    49   23   24 ar
    50   23   51 1
    51   24   25 ar
    52   24   52 1
    53   25   26 1
    54   26   27 am
    55   26   53 1
    56   27   28 2
    57   30   54 1
    58   30   55 1
    59   30   56 1
@<TRIPOS>MOLECULE
ZINC03820040
   62    66     0     0     0
SMALL
USER_CHARGES
N-[4-[4-(4-methylpiperazin-1-yl)-6-[(5-methyl-2H-pyrazol-3-yl)amino]pyrimidin-2-yl]sulfanylphenyl]cyclopropanecarboxamide
@<TRIPOS>ATOM
      1 C1          1.8035   -7.6837    0.5070 C.3       1 <0>        -0.0779
      2 C2          2.3685   -6.3674    0.0389 C.2       1 <0>         0.0949
      3 C3          1.9325   -5.1020    0.4407 C.2       1 <0>        -0.2905
      4 C4          2.6904   -4.1743   -0.2066 C.2       1 <0>         0.3252
      5 N1          3.5799   -4.8447   -0.9836 N.pl3     1 <0>        -0.4853
      6 H1          4.2729   -4.4328   -1.5753 H         1 <0>         0.4473
      7 N2          3.3537   -6.2159   -0.8085 N.2       1 <0>        -0.2711
      8 N3          2.5778   -2.7905   -0.0888 N.pl3     1 <0>        -0.6296
      9 C5          1.3376   -2.2123    0.1391 C.ar      1 <0>         0.4706
     10 C6          0.1755   -2.9717    0.0343 C.ar      1 <0>        -0.2983
     11 C7         -1.0466   -2.3490    0.2714 C.ar      1 <0>         0.3791
     12 N4         -1.0643   -1.0564    0.5886 N.ar      1 <0>        -0.5664
     13 C8          0.0620   -0.3646    0.6795 C.ar      1 <0>         0.3511
     14 N5          1.2425   -0.9231    0.4557 N.ar      1 <0>        -0.5606
     15 S1         -0.0125    1.3444    1.1018 S.3       1 <0>         0.1303
     16 C9          1.7078    1.7032    1.2298 C.ar      1 <0>        -0.1638
     17 C10         2.3806    1.4637    2.4214 C.ar      1 <0>        -0.0284
     18 C11         3.7293    1.7409    2.5200 C.ar      1 <0>        -0.1315
     19 C12         4.4114    2.2681    1.4313 C.ar      1 <0>         0.1902
     20 C13         3.7379    2.5125    0.2417 C.ar      1 <0>        -0.1573
     21 C14         2.3903    2.2311    0.1410 C.ar      1 <0>        -0.0288
     22 N6          5.7793    2.5539    1.5333 N.am      1 <0>        -0.6744
     23 C15         6.5739    1.7808    2.2997 C.2       1 <0>         0.5466
     24 O1          6.1269    0.7811    2.8213 O.2       1 <0>        -0.5140
     25 C16         8.0178    2.1584    2.5086 C.3       1 <0>        -0.2022
     26 C17         9.0818    1.2604    1.8742 C.3       1 <0>        -0.1494
     27 C18         8.8679    1.2402    3.3890 C.3       1 <0>        -0.1425
     28 N7         -2.2296   -3.0657    0.1789 N.pl3     1 <0>        -0.4710
     29 C19        -2.3617   -3.6957   -1.1422 C.3       1 <0>         0.0277
     30 C20        -3.6379   -4.5399   -1.1765 C.3       1 <0>         0.0040
     31 C21        -4.6643   -3.0537    0.4349 C.3       1 <0>        -0.0004
     32 C22        -3.3881   -2.2095    0.4692 C.3       1 <0>         0.0347
     33 C23        -6.0501   -4.4431   -0.9842 C.3       1 <0>        -0.0407
     34 H2          2.3381   -8.0122    1.3982 H         1 <0>         0.0831
     35 H3          0.7460   -7.5623    0.7417 H         1 <0>         0.0784
     36 H4          1.9177   -8.4287   -0.2805 H         1 <0>         0.0774
     37 H5          1.1347   -4.8964    1.1389 H         1 <0>         0.1550
     38 H6          3.3667   -2.2314   -0.1662 H         1 <0>         0.4241
     39 H7          0.2211   -4.0192   -0.2246 H         1 <0>         0.1631
     40 H8          1.8494    1.0573    3.2693 H         1 <0>         0.1319
     41 H9          4.2533    1.5509    3.4451 H         1 <0>         0.1405
     42 H10         4.2686    2.9225   -0.6049 H         1 <0>         0.1339
     43 H11         1.8666    2.4209   -0.7843 H         1 <0>         0.1341
     44 H12         6.1543    3.3081    1.0523 H         1 <0>         0.4168
     45 H13         8.2224    3.2282    2.5520 H         1 <0>         0.1306
     46 H14         8.7374    0.3965    1.3057 H         1 <0>         0.0995
     47 H15         9.9866    1.7393    1.5000 H         1 <0>         0.1100
     48 H16         9.6320    1.7059    4.0114 H         1 <0>         0.1092
     49 H17         8.3827    0.3633    3.8175 H         1 <0>         0.1093
     50 H18        -2.4158   -2.9234   -1.9095 H         1 <0>         0.0737
     51 H19        -1.4982   -4.3342   -1.3286 H         1 <0>         0.1318
     52 H20        -3.5722   -5.3290   -0.4274 H         1 <0>         0.1439
     53 H21        -3.7533   -4.9852   -2.1646 H         1 <0>         0.1412
     54 H22        -4.6102   -3.8259    1.2022 H         1 <0>         0.1407
     55 H23        -5.5278   -2.4152    0.6217 H         1 <0>         0.1407
     56 H24        -3.2729   -1.7645    1.4575 H         1 <0>         0.1357
     57 H25        -3.4537   -1.4201   -0.2796 H         1 <0>         0.0793
     58 H26        -6.8948   -3.7714   -0.8313 H         1 <0>         0.1238
     59 H27        -6.1225   -4.8989   -1.9717 H         1 <0>         0.1230
     60 H28        -6.0632   -5.2226   -0.2224 H         1 <0>         0.1251
     61 N8         -4.7966   -3.6630   -0.9051 N.4       1 <0>        -0.4014
     62 H29        -4.8229   -2.9169   -1.6099 H         1 <0>         0.4281
@<TRIPOS>BOND
     1    1    2 1
     2    1   34 1
     3    1   35 1
     4    1   36 1
     5    2    7 2
     6    2    3 1
     7    3    4 2
     8    3   37 1
     9    4    5 1
    10    4    8 1
    11    5    6 1
    12    5    7 1
    13    8    9 1
    14    8   38 1
    15    9   14 ar
    16    9   10 ar
    17   10   11 ar
    18   10   39 1
    19   11   12 ar
    20   11   28 1
    21   12   13 ar
    22   13   14 ar
    23   13   15 1
    24   15   16 1
    25   16   21 ar
    26   16   17 ar
    27   17   18 ar
    28   17   40 1
    29   18   19 ar
    30   18   41 1
    31   19   20 ar
    32   19   22 1
    33   20   21 ar
    34   20   42 1
    35   21   43 1
    36   22   23 am
    37   22   44 1
    38   23   24 2
    39   23   25 1
    40   25   27 1
    41   25   26 1
    42   25   45 1
    43   26   27 1
    44   26   46 1
    45   26   47 1
    46   27   48 1
    47   27   49 1
    48   28   32 1
    49   28   29 1
    50   29   30 1
    51   29   50 1
    52   29   51 1
    53   30   52 1
    54   30   53 1
    55   30   61 1
    56   31   32 1
    57   31   54 1
    58   31   55 1
    59   31   61 1
    60   32   56 1
    61   32   57 1
    62   33   58 1
    63   33   59 1
    64   33   60 1
    65   33   61 1
    66   61   62 1
@<TRIPOS>MOLECULE
ZINC18825339
   59    62     0     0     0
SMALL
USER_CHARGES
5-[(Z)-(5-fluoro-2-oxo-indolin-3-ylidene)methyl]-N-[(2R)-2-hydroxy-3-morpholino-propyl]-2,4-dimethyl-1H-pyrrole-3-carboxamide
@<TRIPOS>ATOM
      1 C1          3.5607    0.7280    0.3667 C.3       1 <0>        -0.0956
      2 C2          2.0758    0.7165    0.1102 C.2       1 <0>        -0.0564
      3 C3          1.2591    1.8188   -0.0477 C.2       1 <0>        -0.0308
      4 N1         -0.0271    1.3691   -0.2640 N.pl3     1 <0>        -0.5068
      5 H1         -0.8436    2.0903   -0.4163 H         1 <0>         0.4494
      6 C4         -0.0354    0.0257   -0.2455 C.2       1 <0>         0.1277
      7 C5          1.2525   -0.4230   -0.0155 C.2       1 <0>        -0.2308
      8 C6          1.6847   -1.8291    0.0810 C.2       1 <0>         0.5980
      9 O1          2.0430   -2.4250   -0.9167 O.2       1 <0>        -0.5421
     10 N2          1.6827   -2.4542    1.2750 N.am      1 <0>        -0.7266
     11 C7          2.1121   -3.8516    1.3710 C.3       1 <0>         0.1299
     12 C8          2.0150   -4.3162    2.8255 C.3       1 <0>         0.1144
     13 H2          2.5334   -3.6206    3.5018 H         1 <0>         0.0568
     14 C9          2.5799   -5.7329    2.9471 C.3       1 <0>         0.0228
     15 N3          2.4867   -6.1790    4.3436 N.3       1 <0>        -0.5349
     16 C10         3.3671   -5.3829    5.2109 C.3       1 <0>         0.0083
     17 C11         3.1945   -5.8402    6.6618 C.3       1 <0>         0.0618
     18 O2          3.4694   -7.2408    6.7508 O.3       1 <0>        -0.3843
     19 C12         2.6296   -8.0463    5.9193 C.3       1 <0>         0.0614
     20 C13         2.7965   -7.6114    4.4609 C.3       1 <0>         0.0172
     21 O3          0.6463   -4.3123    3.2364 O.3       1 <0>        -0.5882
     22 C14        -1.2476   -0.8477   -0.4426 C.3       1 <0>        -0.0994
     23 C15         1.6686    3.1691    0.0027 C.2       1 <0>         0.0908
     24 C16         0.8216    4.1284    0.5209 C.2       1 <0>        -0.2125
     25 C17         1.0162    5.5955    0.5210 C.ar      1 <0>        -0.0684
     26 C18         2.0202    6.4240    0.0297 C.ar      1 <0>        -0.1043
     27 C19         1.9118    7.7937    0.1786 C.ar      1 <0>         0.0808
     28 C20         0.8031    8.3379    0.8097 C.ar      1 <0>        -0.1198
     29 C21        -0.2000    7.5233    1.2941 C.ar      1 <0>        -0.1061
     30 C22        -0.1080    6.1430    1.1533 C.ar      1 <0>         0.1250
     31 N4         -0.9593    5.1144    1.5420 N.am      1 <0>        -0.6604
     32 C23        -0.4649    3.9133    1.1971 C.2       1 <0>         0.5647
     33 O4         -0.9909    2.8351    1.4086 O.2       1 <0>        -0.5132
     34 F1          2.8866    8.6030   -0.2904 F         1 <0>        -0.1355
     35 H3          3.9167    1.7678    0.4131 H         1 <0>         0.0672
     36 H4          4.0776    0.1994   -0.4478 H         1 <0>         0.0746
     37 H5          3.7717    0.2252    1.3221 H         1 <0>         0.0710
     38 H6          1.3586   -1.9152    2.1775 H         1 <0>         0.4262
     39 H7          1.4633   -4.4786    0.7417 H         1 <0>         0.0750
     40 H8          3.1531   -3.9398    1.0266 H         1 <0>         0.0785
     41 H9          2.0023   -6.4143    2.3052 H         1 <0>         0.0900
     42 H10         3.6334   -5.7360    2.6307 H         1 <0>         0.0465
     43 H11         4.4130   -5.5254    4.9015 H         1 <0>         0.0459
     44 H12         3.1012   -4.3189    5.1257 H         1 <0>         0.0881
     45 H13         3.8925   -5.2859    7.3064 H         1 <0>         0.1001
     46 H14         2.1618   -5.6458    6.9871 H         1 <0>         0.0615
     47 H15         2.9156   -9.1033    6.0238 H         1 <0>         0.1009
     48 H16         1.5805   -7.9185    6.2243 H         1 <0>         0.0621
     49 H17         2.1104   -8.1883    3.8234 H         1 <0>         0.0898
     50 H18         3.8332   -7.7899    4.1393 H         1 <0>         0.0455
     51 H19         0.3780   -4.6185    4.2583 H         1 <0>         0.4136
     52 H20        -0.9523   -1.9052   -0.3757 H         1 <0>         0.0845
     53 H21        -1.6843   -0.6508   -1.4328 H         1 <0>         0.0777
     54 H22        -1.9909   -0.6245    0.3369 H         1 <0>         0.0809
     55 H23         2.6624    3.4568   -0.3709 H         1 <0>         0.1579
     56 H24         2.8828    5.9984   -0.4614 H         1 <0>         0.1409
     57 H25         0.7239    9.4091    0.9228 H         1 <0>         0.1443
     58 H26        -1.0583    7.9589    1.7840 H         1 <0>         0.1386
     59 H27        -1.9003    5.3463    2.0623 H         1 <0>         0.4455
@<TRIPOS>BOND
     1    1    2 1
     2    1   35 1
     3    1   36 1
     4    1   37 1
     5    2    7 1
     6    2    3 2
     7    3    4 1
     8    3   23 1
     9    4    5 1
    10    4    6 1
    11    6    7 2
    12    6   22 1
    13    7    8 1
    14    8    9 2
    15    8   10 am
    16   10   11 1
    17   10   38 1
    18   11   12 1
    19   11   39 1
    20   11   40 1
    21   12   13 1
    22   12   14 1
    23   12   21 1
    24   14   15 1
    25   14   41 1
    26   14   42 1
    27   15   20 1
    28   15   16 1
    29   16   17 1
    30   16   43 1
    31   16   44 1
    32   17   18 1
    33   17   45 1
    34   17   46 1
    35   18   19 1
    36   19   20 1
    37   19   47 1
    38   19   48 1
    39   20   49 1
    40   20   50 1
    41   21   51 1
    42   22   52 1
    43   22   53 1
    44   22   54 1
    45   23   24 2
    46   23   55 1
    47   24   32 1
    48   24   25 1
    49   25   30 ar
    50   25   26 ar
    51   26   27 ar
    52   26   56 1
    53   27   28 ar
    54   27   34 1
    55   28   29 ar
    56   28   57 1
    57   29   30 ar
    58   29   58 1
    59   30   31 1
    60   31   32 am
    61   31   59 1
    62   32   33 2
@<TRIPOS>MOLECULE
ZINC18825344
   59    62     0     0     0
SMALL
USER_CHARGES
5-[(Z)-(5-fluoro-2-oxo-indolin-3-ylidene)methyl]-N-[(2S)-2-hydroxy-3-morpholino-propyl]-2,4-dimethyl-1H-pyrrole-3-carboxamide
@<TRIPOS>ATOM
      1 C1          4.7056    0.6287    1.0117 C.3       1 <0>        -0.0968
      2 C2          3.2464    0.8378    0.6983 C.2       1 <0>        -0.0523
      3 C3          2.5980    2.0501    0.5678 C.2       1 <0>        -0.0327
      4 N1          1.2732    1.7961    0.2789 N.pl3     1 <0>        -0.5060
      5 H1          0.5720    2.6311    0.1339 H         1 <0>         0.4496
      6 C4          1.0783    0.4679    0.2258 C.2       1 <0>         0.1246
      7 C5          2.2801   -0.1676    0.4808 C.2       1 <0>        -0.2308
      8 C6          2.5088   -1.6234    0.5191 C.2       1 <0>         0.5976
      9 O1          2.8262   -2.2159   -0.4944 O.2       1 <0>        -0.5428
     10 N2          2.3662   -2.2977    1.6773 N.am      1 <0>        -0.7254
     11 C7          2.5935   -3.7444    1.7154 C.3       1 <0>         0.1298
     12 C8          2.3672   -4.2590    3.1384 C.3       1 <0>         0.1172
     13 H2          1.3599   -4.0040    3.4994 H         1 <0>         0.0560
     14 C9          2.6045   -5.7699    3.1781 C.3       1 <0>         0.0219
     15 N3          2.3382   -6.2720    4.5327 N.3       1 <0>        -0.5356
     16 C10         2.9762   -7.5793    4.7450 C.3       1 <0>         0.0168
     17 C11         2.7241   -8.0365    6.1842 C.3       1 <0>         0.0612
     18 O2          1.3152   -8.0759    6.4267 O.3       1 <0>        -0.3844
     19 C12         0.6618   -6.8191    6.2299 C.3       1 <0>         0.0617
     20 C13         0.8930   -6.3496    4.7911 C.3       1 <0>         0.0111
     21 O3          3.2765   -3.6103    4.0297 O.3       1 <0>        -0.5892
     22 C14        -0.2328   -0.2165   -0.0637 C.3       1 <0>        -0.0987
     23 C15         3.1876    3.3256    0.7056 C.2       1 <0>         0.0935
     24 C16         2.4515    4.3746    1.2192 C.2       1 <0>        -0.2157
     25 C17         2.8515    5.7966    1.3077 C.ar      1 <0>        -0.0669
     26 C18         3.9943    6.4912    0.9234 C.ar      1 <0>        -0.1048
     27 C19         4.0710    7.8545    1.1363 C.ar      1 <0>         0.0814
     28 C20         3.0098    8.5263    1.7247 C.ar      1 <0>        -0.1204
     29 C21         1.8704    7.8457    2.1029 C.ar      1 <0>        -0.1055
     30 C22         1.7753    6.4739    1.8965 C.ar      1 <0>         0.1237
     31 N4          0.7622    5.5637    2.1775 N.am      1 <0>        -0.6596
     32 C23         1.1039    4.3195    1.8021 C.2       1 <0>         0.5657
     33 O4          0.4171    3.3209    1.9242 O.2       1 <0>        -0.5153
     34 F1          5.1807    8.5334    0.7715 F         1 <0>        -0.1355
     35 H3          5.1994    1.6049    1.1269 H         1 <0>         0.0668
     36 H4          5.1808    0.0720    0.1906 H         1 <0>         0.0744
     37 H5          4.8016    0.0567    1.9464 H         1 <0>         0.0741
     38 H6          2.0791   -1.7617    2.5940 H         1 <0>         0.4273
     39 H7          1.8935   -4.2437    1.0293 H         1 <0>         0.0777
     40 H8          3.6268   -3.9615    1.4070 H         1 <0>         0.0736
     41 H9          1.9304   -6.2658    2.4641 H         1 <0>         0.0486
     42 H10         3.6486   -5.9844    2.9062 H         1 <0>         0.0884
     43 H11         2.5501   -8.3132    4.0451 H         1 <0>         0.0451
     44 H12         4.0587   -7.4917    4.5704 H         1 <0>         0.0900
     45 H13         3.1515   -9.0395    6.3305 H         1 <0>         0.1008
     46 H14         3.1986   -7.3305    6.8817 H         1 <0>         0.0620
     47 H15        -0.4170   -6.9344    6.4112 H         1 <0>         0.1000
     48 H16         1.0741   -6.0778    6.9303 H         1 <0>         0.0613
     49 H17         0.4415   -5.3564    4.6504 H         1 <0>         0.0873
     50 H18         0.4333   -7.0637    4.0920 H         1 <0>         0.0461
     51 H19         3.2627   -3.8533    5.1024 H         1 <0>         0.4141
     52 H20        -0.0899   -1.3070   -0.0417 H         1 <0>         0.0829
     53 H21        -0.5927    0.0862   -1.0581 H         1 <0>         0.0781
     54 H22        -0.9728    0.0718    0.6974 H         1 <0>         0.0803
     55 H23         4.2335    3.4835    0.4037 H         1 <0>         0.1584
     56 H24         4.8196    5.9664    0.4654 H         1 <0>         0.1411
     57 H25         3.0756    9.5918    1.8882 H         1 <0>         0.1443
     58 H26         1.0507    8.3797    2.5605 H         1 <0>         0.1385
     59 H27        -0.1701    5.9069    2.6497 H         1 <0>         0.4455
@<TRIPOS>BOND
     1    1    2 1
     2    1   35 1
     3    1   36 1
     4    1   37 1
     5    2    7 1
     6    2    3 2
     7    3    4 1
     8    3   23 1
     9    4    5 1
    10    4    6 1
    11    6    7 2
    12    6   22 1
    13    7    8 1
    14    8    9 2
    15    8   10 am
    16   10   11 1
    17   10   38 1
    18   11   12 1
    19   11   39 1
    20   11   40 1
    21   12   13 1
    22   12   14 1
    23   12   21 1
    24   14   15 1
    25   14   41 1
    26   14   42 1
    27   15   20 1
    28   15   16 1
    29   16   17 1
    30   16   43 1
    31   16   44 1
    32   17   18 1
    33   17   45 1
    34   17   46 1
    35   18   19 1
    36   19   20 1
    37   19   47 1
    38   19   48 1
    39   20   49 1
    40   20   50 1
    41   21   51 1
    42   22   52 1
    43   22   53 1
    44   22   54 1
    45   23   24 2
    46   23   55 1
    47   24   32 1
    48   24   25 1
    49   25   30 ar
    50   25   26 ar
    51   26   27 ar
    52   26   56 1
    53   27   28 ar
    54   27   34 1
    55   28   29 ar
    56   28   57 1
    57   29   30 ar
    58   29   58 1
    59   30   31 1
    60   31   32 am
    61   31   59 1
    62   32   33 2
@<TRIPOS>MOLECULE
ZINC23247639
   69    72     0     0     0
SMALL
USER_CHARGES
1-[4-[(4-ethylpiperazin-1-yl)methyl]-3-(trifluoromethyl)phenyl]-3-[4-(6-methylaminopyrimidin-4-yl)oxyphenyl]urea
@<TRIPOS>ATOM
      1 C1          8.9417    3.3719    8.2172 C.3       1 <0>        -0.1901
      2 C2         10.1498    2.9102    7.3997 C.3       1 <0>        -0.0070
      3 N1          9.9972    3.3533    6.0075 N.4       1 <0>        -0.4011
      4 C3         11.2367    3.1387    5.2477 C.3       1 <0>         0.0016
      5 C4         11.0629    3.6845    3.8284 C.3       1 <0>         0.0271
      6 N2          9.9288    3.0094    3.1822 N.3       1 <0>        -0.5300
      7 C5          8.6893    3.2240    3.9420 C.3       1 <0>         0.0232
      8 C6          8.8631    2.6781    5.3612 C.3       1 <0>        -0.0016
      9 C7          9.7762    3.4524    1.7899 C.3       1 <0>         0.0786
     10 C8          8.7879    2.5601    1.0842 C.ar      1 <0>        -0.0666
     11 C9          7.5022    3.0092    0.8434 C.ar      1 <0>        -0.0932
     12 C10         6.5958    2.1959    0.1923 C.ar      1 <0>        -0.0888
     13 C11         6.9731    0.9214   -0.2106 C.ar      1 <0>         0.1880
     14 C12         8.2646    0.4735    0.0326 C.ar      1 <0>        -0.1043
     15 C13         9.1683    1.2940    0.6793 C.ar      1 <0>        -0.1369
     16 C14        10.5702    0.8086    0.9441 C.3       1 <0>         0.5111
     17 F1         10.7250   -0.4786    0.4184 F         1 <0>        -0.1776
     18 F2         11.4860    1.6739    0.3362 F         1 <0>        -0.1774
     19 F3         10.8008    0.7797    2.3237 F         1 <0>        -0.1628
     20 N3          6.0552    0.0926   -0.8655 N.am      1 <0>        -0.6979
     21 C15         4.7513    0.1311   -0.5266 C.2       1 <0>         0.7117
     22 O1          4.3858    0.8194    0.4067 O.2       1 <0>        -0.5623
     23 N4          3.8526   -0.5934   -1.2222 N.am      1 <0>        -0.6900
     24 C16         2.4863   -0.4790   -0.9335 C.ar      1 <0>         0.1635
     25 C17         1.5516   -0.5518   -1.9576 C.ar      1 <0>        -0.1265
     26 C18         0.2052   -0.4394   -1.6724 C.ar      1 <0>        -0.0923
     27 C19        -0.2137   -0.2543   -0.3628 C.ar      1 <0>         0.0841
     28 C20         0.7198   -0.1815    0.6609 C.ar      1 <0>        -0.0957
     29 C21         2.0665   -0.2932    0.3769 C.ar      1 <0>        -0.1058
     30 O2         -1.5393   -0.1385   -0.0833 O.3       1 <0>        -0.2424
     31 C22        -2.3129   -1.2454   -0.1983 C.ar      1 <0>         0.3836
     32 C23        -3.6894   -1.1637   -0.0277 C.ar      1 <0>        -0.3134
     33 C24        -4.4409   -2.3284   -0.1601 C.ar      1 <0>         0.4631
     34 N5         -3.8165   -3.4721   -0.4341 N.ar      1 <0>        -0.5936
     35 C25        -2.5082   -3.5081   -0.5840 C.ar      1 <0>         0.3760
     36 N6         -1.7644   -2.4263   -0.4707 N.ar      1 <0>        -0.6039
     37 N7         -5.8178   -2.2988   -0.0034 N.pl3     1 <0>        -0.7218
     38 C26        -6.4937   -1.0344    0.2979 C.3       1 <0>         0.0891
     39 H1          9.0560    3.0401    9.2597 H         1 <0>         0.1066
     40 H2          8.0243    2.9380    7.7928 H         1 <0>         0.0798
     41 H3          8.8763    4.4695    8.1868 H         1 <0>         0.0803
     42 H4         11.0672    3.3441    7.8241 H         1 <0>         0.1306
     43 H5         10.2153    1.8126    7.4301 H         1 <0>         0.1269
     44 H6         12.0665    3.6630    5.7442 H         1 <0>         0.1361
     45 H7         11.4577    2.0621    5.2031 H         1 <0>         0.1357
     46 H8         10.8699    4.7665    3.8728 H         1 <0>         0.0625
     47 H9         11.9796    3.4990    3.2494 H         1 <0>         0.1239
     48 H10         8.4684    4.3007    3.9867 H         1 <0>         0.0621
     49 H11         7.8594    2.6998    3.4455 H         1 <0>         0.1239
     50 H12         9.0569    1.5962    5.3178 H         1 <0>         0.1351
     51 H13         7.9470    2.8635    5.9412 H         1 <0>         0.1359
     52 H14         9.4106    4.4897    1.7732 H         1 <0>         0.0663
     53 H15        10.7489    3.3982    1.2791 H         1 <0>         0.1073
     54 H16         7.2082    3.9988    1.1607 H         1 <0>         0.1358
     55 H17         5.5933    2.5489    0.0003 H         1 <0>         0.1466
     56 H18         8.5625   -0.5152   -0.2838 H         1 <0>         0.1447
     57 H19         6.3979   -0.5903   -1.6569 H         1 <0>         0.4387
     58 H20         4.1917   -1.2745   -2.0166 H         1 <0>         0.4355
     59 H21         1.8775   -0.6959   -2.9771 H         1 <0>         0.1334
     60 H22        -0.5220   -0.4960   -2.4689 H         1 <0>         0.1303
     61 H23         0.3932   -0.0371    1.6801 H         1 <0>         0.1327
     62 H24         2.7931   -0.2369    1.1740 H         1 <0>         0.1442
     63 H25        -4.1646   -0.2205    0.1982 H         1 <0>         0.1466
     64 H26        -2.0315   -4.4515   -0.8058 H         1 <0>         0.2000
     65 H27        -6.4030   -3.2246   -0.1053 H         1 <0>         0.4376
     66 H28        -7.5762   -1.2091    0.3856 H         1 <0>         0.0864
     67 H29        -6.3028   -0.3146   -0.5117 H         1 <0>         0.0603
     68 H30        -6.1096   -0.6302    1.2461 H         1 <0>         0.0599
     69 H31         9.7882    4.4332    6.0188 H         1 <0>         0.4364
@<TRIPOS>BOND
     1    1    2 1
     2    1   39 1
     3    1   40 1
     4    1   41 1
     5    2    3 1
     6    2   42 1
     7    2   43 1
     8    3    8 1
     9    3    4 1
    10    3   69 1
    11    4    5 1
    12    4   44 1
    13    4   45 1
    14    5    6 1
    15    5   46 1
    16    5   47 1
    17    6    7 1
    18    6    9 1
    19    7    8 1
    20    7   48 1
    21    7   49 1
    22    8   50 1
    23    8   51 1
    24    9   10 1
    25    9   52 1
    26    9   53 1
    27   10   15 ar
    28   10   11 ar
    29   11   12 ar
    30   11   54 1
    31   12   13 ar
    32   12   55 1
    33   13   14 ar
    34   13   20 1
    35   14   15 ar
    36   14   56 1
    37   15   16 1
    38   16   17 1
    39   16   18 1
    40   16   19 1
    41   20   21 am
    42   20   57 1
    43   21   22 2
    44   21   23 am
    45   23   24 1
    46   23   58 1
    47   24   29 ar
    48   24   25 ar
    49   25   26 ar
    50   25   59 1
    51   26   27 ar
    52   26   60 1
    53   27   28 ar
    54   27   30 1
    55   28   29 ar
    56   28   61 1
    57   29   62 1
    58   30   31 1
    59   31   36 ar
    60   31   32 ar
    61   32   33 ar
    62   32   63 1
    63   33   34 ar
    64   33   37 1
    65   34   35 ar
    66   35   36 ar
    67   35   64 1
    68   37   38 1
    69   37   65 1
    70   38   66 1
    71   38   67 1
    72   38   68 1
@<TRIPOS>MOLECULE
ZINC23247639
   69    72     0     0     0
SMALL
USER_CHARGES
1-[4-[(4-ethylpiperazin-1-yl)methyl]-3-(trifluoromethyl)phenyl]-3-[4-(6-methylaminopyrimidin-4-yl)oxyphenyl]urea
@<TRIPOS>ATOM
      1 C1          8.9417    3.3719    8.2172 C.3       1 <0>        -0.1569
      2 C2         10.1498    2.9102    7.3997 C.3       1 <0>         0.0486
      3 N1          9.9972    3.3533    6.0075 N.3       1 <0>        -0.5379
      4 C3         11.2367    3.1387    5.2477 C.3       1 <0>         0.0250
      5 C4         11.0629    3.6845    3.8284 C.3       1 <0>         0.0004
      6 N2          9.9288    3.0094    3.1822 N.4       1 <0>        -0.4202
      7 C5          8.6893    3.2240    3.9420 C.3       1 <0>        -0.0009
      8 C6          8.8631    2.6781    5.3612 C.3       1 <0>         0.0222
      9 C7          9.7762    3.4524    1.7899 C.3       1 <0>         0.0266
     10 C8          8.7879    2.5601    1.0842 C.ar      1 <0>        -0.1272
     11 C9          7.5022    3.0092    0.8434 C.ar      1 <0>        -0.0630
     12 C10         6.5958    2.1959    0.1923 C.ar      1 <0>        -0.0846
     13 C11         6.9731    0.9214   -0.2106 C.ar      1 <0>         0.2154
     14 C12         8.2646    0.4735    0.0326 C.ar      1 <0>        -0.0955
     15 C13         9.1683    1.2940    0.6793 C.ar      1 <0>        -0.1507
     16 C14        10.5702    0.8086    0.9441 C.3       1 <0>         0.5109
     17 F1         10.7250   -0.4786    0.4184 F         1 <0>        -0.1491
     18 F2         11.4860    1.6739    0.3362 F         1 <0>        -0.1584
     19 F3         10.8008    0.7797    2.3237 F         1 <0>        -0.1724
     20 N3          6.0552    0.0926   -0.8655 N.am      1 <0>        -0.6988
     21 C15         4.7513    0.1311   -0.5266 C.2       1 <0>         0.7114
     22 O1          4.3858    0.8194    0.4067 O.2       1 <0>        -0.5584
     23 N4          3.8526   -0.5934   -1.2222 N.am      1 <0>        -0.6858
     24 C16         2.4863   -0.4790   -0.9335 C.ar      1 <0>         0.1577
     25 C17         1.5516   -0.5518   -1.9576 C.ar      1 <0>        -0.1240
     26 C18         0.2052   -0.4394   -1.6724 C.ar      1 <0>        -0.0926
     27 C19        -0.2137   -0.2543   -0.3628 C.ar      1 <0>         0.0883
     28 C20         0.7198   -0.1815    0.6609 C.ar      1 <0>        -0.0957
     29 C21         2.0665   -0.2932    0.3769 C.ar      1 <0>        -0.1046
     30 O2         -1.5393   -0.1385   -0.0833 O.3       1 <0>        -0.2426
     31 C22        -2.3129   -1.2454   -0.1983 C.ar      1 <0>         0.3832
     32 C23        -3.6894   -1.1637   -0.0277 C.ar      1 <0>        -0.3126
     33 C24        -4.4409   -2.3284   -0.1601 C.ar      1 <0>         0.4635
     34 N5         -3.8165   -3.4721   -0.4341 N.ar      1 <0>        -0.5931
     35 C25        -2.5082   -3.5081   -0.5840 C.ar      1 <0>         0.3762
     36 N6         -1.7644   -2.4263   -0.4707 N.ar      1 <0>        -0.6049
     37 N7         -5.8178   -2.2988   -0.0034 N.pl3     1 <0>        -0.7212
     38 C26        -6.4937   -1.0344    0.2979 C.3       1 <0>         0.0887
     39 H1          9.0560    3.0401    9.2597 H         1 <0>         0.0714
     40 H2          8.0243    2.9380    7.7928 H         1 <0>         0.0562
     41 H3          8.8763    4.4695    8.1868 H         1 <0>         0.0696
     42 H4         11.0672    3.3441    7.8241 H         1 <0>         0.0895
     43 H5         10.2153    1.8126    7.4301 H         1 <0>         0.0455
     44 H6         12.0665    3.6630    5.7442 H         1 <0>         0.1253
     45 H7         11.4577    2.0621    5.2031 H         1 <0>         0.0582
     46 H8         10.8699    4.7665    3.8728 H         1 <0>         0.1369
     47 H9         11.9796    3.4990    3.2494 H         1 <0>         0.1329
     48 H10         8.4684    4.3007    3.9867 H         1 <0>         0.1355
     49 H11         7.8594    2.6998    3.4455 H         1 <0>         0.1312
     50 H12         9.0569    1.5962    5.3178 H         1 <0>         0.0572
     51 H13         7.9470    2.8635    5.9412 H         1 <0>         0.1266
     52 H14         9.4106    4.4897    1.7732 H         1 <0>         0.1472
     53 H15        10.7489    3.3982    1.2791 H         1 <0>         0.1420
     54 H16         7.2082    3.9988    1.1607 H         1 <0>         0.1512
     55 H17         5.5933    2.5489    0.0003 H         1 <0>         0.1583
     56 H18         8.5625   -0.5152   -0.2838 H         1 <0>         0.1556
     57 H19         6.3979   -0.5903   -1.6569 H         1 <0>         0.4440
     58 H20         4.1917   -1.2745   -2.0166 H         1 <0>         0.4371
     59 H21         1.8775   -0.6959   -2.9771 H         1 <0>         0.1338
     60 H22        -0.5220   -0.4960   -2.4689 H         1 <0>         0.1313
     61 H23         0.3932   -0.0371    1.6801 H         1 <0>         0.1341
     62 H24         2.7931   -0.2369    1.1740 H         1 <0>         0.1440
     63 H25        -4.1646   -0.2205    0.1982 H         1 <0>         0.1470
     64 H26        -2.0315   -4.4515   -0.8058 H         1 <0>         0.2001
     65 H27        -6.4030   -3.2246   -0.1053 H         1 <0>         0.4380
     66 H28        -7.5762   -1.2091    0.3856 H         1 <0>         0.0868
     67 H29        -6.3028   -0.3146   -0.5117 H         1 <0>         0.0604
     68 H30        -6.1096   -0.6302    1.2461 H         1 <0>         0.0603
     69 H31        10.1379    1.9295    3.1711 H         1 <0>         0.4253
@<TRIPOS>BOND
     1    1    2 1
     2    1   39 1
     3    1   40 1
     4    1   41 1
     5    2    3 1
     6    2   42 1
     7    2   43 1
     8    3    8 1
     9    3    4 1
    10    4    5 1
    11    4   44 1
    12    4   45 1
    13    5    6 1
    14    5   46 1
    15    5   47 1
    16    6    7 1
    17    6    9 1
    18    6   69 1
    19    7    8 1
    20    7   48 1
    21    7   49 1
    22    8   50 1
    23    8   51 1
    24    9   10 1
    25    9   52 1
    26    9   53 1
    27   10   15 ar
    28   10   11 ar
    29   11   12 ar
    30   11   54 1
    31   12   13 ar
    32   12   55 1
    33   13   14 ar
    34   13   20 1
    35   14   15 ar
    36   14   56 1
    37   15   16 1
    38   16   17 1
    39   16   18 1
    40   16   19 1
    41   20   21 am
    42   20   57 1
    43   21   22 2
    44   21   23 am
    45   23   24 1
    46   23   58 1
    47   24   29 ar
    48   24   25 ar
    49   25   26 ar
    50   25   59 1
    51   26   27 ar
    52   26   60 1
    53   27   28 ar
    54   27   30 1
    55   28   29 ar
    56   28   61 1
    57   29   62 1
    58   30   31 1
    59   31   36 ar
    60   31   32 ar
    61   32   33 ar
    62   32   63 1
    63   33   34 ar
    64   33   37 1
    65   34   35 ar
    66   35   36 ar
    67   35   64 1
    68   37   38 1
    69   37   65 1
    70   38   66 1
    71   38   67 1
    72   38   68 1
@<TRIPOS>MOLECULE
ZINC23247639
   68    71     0     0     0
SMALL
USER_CHARGES
1-[4-[(4-ethylpiperazin-1-yl)methyl]-3-(trifluoromethyl)phenyl]-3-[4-(6-methylaminopyrimidin-4-yl)oxyphenyl]urea
@<TRIPOS>ATOM
      1 C1          8.9417    3.3719    8.2172 C.3       1 <0>        -0.1510
      2 C2         10.1498    2.9102    7.3997 C.3       1 <0>         0.0499
      3 N1          9.9972    3.3533    6.0075 N.3       1 <0>        -0.5402
      4 C3         11.2367    3.1387    5.2477 C.3       1 <0>         0.0569
      5 C4         11.0629    3.6845    3.8284 C.3       1 <0>         0.0590
      6 N2          9.9288    3.0094    3.1822 N.3       1 <0>        -0.5268
      7 C5          8.6893    3.2240    3.9420 C.3       1 <0>         0.0561
      8 C6          8.8631    2.6781    5.3612 C.3       1 <0>         0.0550
      9 C7          9.7762    3.4524    1.7899 C.3       1 <0>         0.0729
     10 C8          8.7879    2.5601    1.0842 C.ar      1 <0>        -0.0447
     11 C9          7.5022    3.0092    0.8434 C.ar      1 <0>        -0.0942
     12 C10         6.5958    2.1959    0.1923 C.ar      1 <0>        -0.0884
     13 C11         6.9731    0.9214   -0.2106 C.ar      1 <0>         0.1720
     14 C12         8.2646    0.4735    0.0326 C.ar      1 <0>        -0.1038
     15 C13         9.1683    1.2940    0.6793 C.ar      1 <0>        -0.1404
     16 C14        10.5702    0.8086    0.9441 C.3       1 <0>         0.5095
     17 F1         10.7250   -0.4786    0.4184 F         1 <0>        -0.1841
     18 F2         11.4860    1.6739    0.3362 F         1 <0>        -0.1795
     19 F3         10.8008    0.7797    2.3237 F         1 <0>        -0.1519
     20 N3          6.0552    0.0926   -0.8655 N.am      1 <0>        -0.6948
     21 C15         4.7513    0.1311   -0.5266 C.2       1 <0>         0.7096
     22 O1          4.3858    0.8194    0.4067 O.2       1 <0>        -0.5587
     23 N4          3.8526   -0.5934   -1.2222 N.am      1 <0>        -0.6930
     24 C16         2.4863   -0.4790   -0.9335 C.ar      1 <0>         0.1697
     25 C17         1.5516   -0.5518   -1.9576 C.ar      1 <0>        -0.1297
     26 C18         0.2052   -0.4394   -1.6724 C.ar      1 <0>        -0.0930
     27 C19        -0.2137   -0.2543   -0.3628 C.ar      1 <0>         0.0783
     28 C20         0.7198   -0.1815    0.6609 C.ar      1 <0>        -0.0936
     29 C21         2.0665   -0.2932    0.3769 C.ar      1 <0>        -0.1059
     30 O2         -1.5393   -0.1385   -0.0833 O.3       1 <0>        -0.2412
     31 C22        -2.3129   -1.2454   -0.1983 C.ar      1 <0>         0.3851
     32 C23        -3.6894   -1.1637   -0.0277 C.ar      1 <0>        -0.3141
     33 C24        -4.4409   -2.3284   -0.1601 C.ar      1 <0>         0.4620
     34 N5         -3.8165   -3.4721   -0.4341 N.ar      1 <0>        -0.5954
     35 C25        -2.5082   -3.5081   -0.5840 C.ar      1 <0>         0.3753
     36 N6         -1.7644   -2.4263   -0.4707 N.ar      1 <0>        -0.6017
     37 N7         -5.8178   -2.2988   -0.0034 N.pl3     1 <0>        -0.7231
     38 C26        -6.4937   -1.0344    0.2979 C.3       1 <0>         0.0898
     39 H1          9.0560    3.0401    9.2597 H         1 <0>         0.0595
     40 H2          8.0243    2.9380    7.7928 H         1 <0>         0.0547
     41 H3          8.8763    4.4695    8.1868 H         1 <0>         0.0631
     42 H4         11.0672    3.3441    7.8241 H         1 <0>         0.0746
     43 H5         10.2153    1.8126    7.4301 H         1 <0>         0.0335
     44 H6         12.0665    3.6630    5.7442 H         1 <0>         0.0800
     45 H7         11.4577    2.0621    5.2031 H         1 <0>         0.0441
     46 H8         10.8699    4.7665    3.8728 H         1 <0>         0.0445
     47 H9         11.9796    3.4990    3.2494 H         1 <0>         0.0809
     48 H10         8.4684    4.3007    3.9867 H         1 <0>         0.0435
     49 H11         7.8594    2.6998    3.4455 H         1 <0>         0.0808
     50 H12         9.0569    1.5962    5.3178 H         1 <0>         0.0425
     51 H13         7.9470    2.8635    5.9412 H         1 <0>         0.0819
     52 H14         9.4106    4.4897    1.7732 H         1 <0>         0.0550
     53 H15        10.7489    3.3982    1.2791 H         1 <0>         0.0962
     54 H16         7.2082    3.9988    1.1607 H         1 <0>         0.1355
     55 H17         5.5933    2.5489    0.0003 H         1 <0>         0.1427
     56 H18         8.5625   -0.5152   -0.2838 H         1 <0>         0.1409
     57 H19         6.3979   -0.5903   -1.6569 H         1 <0>         0.4343
     58 H20         4.1917   -1.2745   -2.0166 H         1 <0>         0.4332
     59 H21         1.8775   -0.6959   -2.9771 H         1 <0>         0.1323
     60 H22        -0.5220   -0.4960   -2.4689 H         1 <0>         0.1282
     61 H23         0.3932   -0.0371    1.6801 H         1 <0>         0.1328
     62 H24         2.7931   -0.2369    1.1740 H         1 <0>         0.1466
     63 H25        -4.1646   -0.2205    0.1982 H         1 <0>         0.1463
     64 H26        -2.0315   -4.4515   -0.8058 H         1 <0>         0.1996
     65 H27        -6.4030   -3.2246   -0.1053 H         1 <0>         0.4362
     66 H28        -7.5762   -1.2091    0.3856 H         1 <0>         0.0851
     67 H29        -6.3028   -0.3146   -0.5117 H         1 <0>         0.0598
     68 H30        -6.1096   -0.6302    1.2461 H         1 <0>         0.0599
@<TRIPOS>BOND
     1    1    2 1
     2    1   39 1
     3    1   40 1
     4    1   41 1
     5    2    3 1
     6    2   42 1
     7    2   43 1
     8    3    8 1
     9    3    4 1
    10    4    5 1
    11    4   44 1
    12    4   45 1
    13    5    6 1
    14    5   46 1
    15    5   47 1
    16    6    7 1
    17    6    9 1
    18    7    8 1
    19    7   48 1
    20    7   49 1
    21    8   50 1
    22    8   51 1
    23    9   10 1
    24    9   52 1
    25    9   53 1
    26   10   15 ar
    27   10   11 ar
    28   11   12 ar
    29   11   54 1
    30   12   13 ar
    31   12   55 1
    32   13   14 ar
    33   13   20 1
    34   14   15 ar
    35   14   56 1
    36   15   16 1
    37   16   17 1
    38   16   18 1
    39   16   19 1
    40   20   21 am
    41   20   57 1
    42   21   22 2
    43   21   23 am
    44   23   24 1
    45   23   58 1
    46   24   29 ar
    47   24   25 ar
    48   25   26 ar
    49   25   59 1
    50   26   27 ar
    51   26   60 1
    52   27   28 ar
    53   27   30 1
    54   28   29 ar
    55   28   61 1
    56   29   62 1
    57   30   31 1
    58   31   36 ar
    59   31   32 ar
    60   32   33 ar
    61   32   63 1
    62   33   34 ar
    63   33   37 1
    64   34   35 ar
    65   35   36 ar
    66   35   64 1
    67   37   38 1
    68   37   65 1
    69   38   66 1
    70   38   67 1
    71   38   68 1
@<TRIPOS>MOLECULE
ZINC35902489
   54    57     0     0     0
SMALL
USER_CHARGES

@<TRIPOS>ATOM
      1 C1         -0.2366    1.5009   -0.1002 C.3       1 <0>        -0.1868
      2 C2          0.0023   -0.0068    0.0032 C.3       1 <0>         0.1262
      3 H1         -0.9541   -0.5203    0.1009 H         1 <0>         0.1027
      4 C3          0.8549   -0.2986    1.2111 C.ar      1 <0>        -0.0648
      5 C4          2.2095   -0.0176    1.1860 C.ar      1 <0>        -0.0174
      6 C5          2.9928   -0.2851    2.2943 C.ar      1 <0>        -0.0698
      7 C6          2.4230   -0.8330    3.4283 C.ar      1 <0>        -0.1110
      8 C7          1.0682   -1.1142    3.4552 C.ar      1 <0>         0.1278
      9 C8          0.2825   -0.8418    2.3465 C.ar      1 <0>        -0.0562
     10 Cl1        -1.4183   -1.1878    2.3810 Cl        1 <0>        -0.0259
     11 F1          0.5110   -1.6502    4.5631 F         1 <0>        -0.1090
     12 Cl2         2.9265    0.6706   -0.2374 Cl        1 <0>        -0.0327
     13 O1          0.6709   -0.4649   -1.1737 O.3       1 <0>        -0.2750
     14 C9         -0.1076   -0.7749   -2.2450 C.ar      1 <0>         0.0922
     15 C10        -1.4721   -0.5389   -2.2126 C.ar      1 <0>        -0.0840
     16 C11        -2.2312   -0.8738   -3.3386 C.ar      1 <0>         0.0162
     17 C12        -1.5947   -1.4281   -4.4440 C.ar      1 <0>         0.0781
     18 N1         -0.2926   -1.6388   -4.4381 N.ar      1 <0>        -0.4651
     19 C13         0.4590   -1.3297   -3.3941 C.ar      1 <0>         0.4321
     20 N2          1.8309   -1.5659   -3.4397 N.pl3     1 <0>        -0.8070
     21 C14        -3.6979   -0.6410   -3.3535 C.2       1 <0>        -0.2043
     22 C15        -4.4627   -0.0847   -2.3100 C.2       1 <0>         0.0864
     23 N3         -5.7097   -0.0414   -2.6987 N.2       1 <0>        -0.2628
     24 N4         -5.7898   -0.5640   -3.9951 N.pl3     1 <0>        -0.3634
     25 C16        -4.5480   -0.9216   -4.3826 C.2       1 <0>         0.0838
     26 C17        -7.0103   -0.6949   -4.7948 C.3       1 <0>         0.1502
     27 C18        -6.9271   -1.9605   -5.6529 C.3       1 <0>        -0.1621
     28 C19        -8.1684   -2.0490   -6.5433 C.3       1 <0>        -0.0015
     29 N5         -8.2355   -0.8693   -7.4141 N.4       1 <0>        -0.5088
     30 C20        -8.3877    0.3426   -6.6000 C.3       1 <0>        -0.0035
     31 C21        -7.1548    0.5231   -5.7117 C.3       1 <0>        -0.1623
     32 H2          0.7199    2.0145   -0.1979 H         1 <0>         0.0878
     33 H3         -0.8533    1.7120   -0.9739 H         1 <0>         0.0744
     34 H4         -0.7466    1.8504    0.7975 H         1 <0>         0.0940
     35 H5          4.0502   -0.0661    2.2735 H         1 <0>         0.1611
     36 H6          3.0352   -1.0420    4.2932 H         1 <0>         0.1666
     37 H7         -1.9384   -0.1073   -1.3393 H         1 <0>         0.1754
     38 H8         -2.1735   -1.6895   -5.3175 H         1 <0>         0.2000
     39 H9          2.3867   -1.3451   -2.6760 H         1 <0>         0.4445
     40 H10         2.2306   -1.9511   -4.2352 H         1 <0>         0.4249
     41 H11        -4.0846    0.2477   -1.3545 H         1 <0>         0.1959
     42 H12        -4.2766   -1.3540   -5.3343 H         1 <0>         0.1825
     43 H13        -7.8744   -0.7577   -4.1333 H         1 <0>         0.1289
     44 H14        -6.0340   -1.9194   -6.2765 H         1 <0>         0.0978
     45 H15        -6.8801   -2.8365   -5.0059 H         1 <0>         0.1266
     46 H16        -8.1124   -2.9491   -7.1555 H         1 <0>         0.1473
     47 H17        -9.0608   -2.0903   -5.9188 H         1 <0>         0.1409
     48 H18        -7.3873   -0.8043   -7.9567 H         1 <0>         0.4290
     49 H19        -8.4936    1.2082   -7.2540 H         1 <0>         0.1462
     50 H20        -9.2754    0.2503   -5.9742 H         1 <0>         0.1402
     51 H21        -7.2705    1.4224   -5.1068 H         1 <0>         0.1256
     52 H22        -6.2665    0.6158   -6.3365 H         1 <0>         0.0962
     53 H23        -9.0248   -0.9564   -8.0365 H         1 <0>         0.4414
     54 H24         0.1260   -2.0273   -5.2222 H         1 <0>         0.4508
@<TRIPOS>BOND
     1    1    2 1
     2    1   32 1
     3    1   33 1
     4    1   34 1
     5    2    3 1
     6    2    4 1
     7    2   13 1
     8    4    9 ar
     9    4    5 ar
    10    5    6 ar
    11    5   12 1
    12    6    7 ar
    13    6   35 1
    14    7    8 ar
    15    7   36 1
    16    8    9 ar
    17    8   11 1
    18    9   10 1
    19   13   14 1
    20   14   19 ar
    21   14   15 ar
    22   15   16 ar
    23   15   37 1
    24   16   17 ar
    25   16   21 1
    26   17   18 ar
    27   17   38 1
    28   18   19 ar
    29   18   54 1
    30   19   20 1
    31   20   39 1
    32   20   40 1
    33   21   25 2
    34   21   22 1
    35   22   23 2
    36   22   41 1
    37   23   24 1
    38   24   25 1
    39   24   26 1
    40   25   42 1
    41   26   31 1
    42   26   27 1
    43   26   43 1
    44   27   28 1
    45   27   44 1
    46   27   45 1
    47   28   29 1
    48   28   46 1
    49   28   47 1
    50   29   30 1
    51   29   48 1
    52   29   53 1
    53   30   31 1
    54   30   49 1
    55   30   50 1
    56   31   51 1
    57   31   52 1
@<TRIPOS>MOLECULE
ZINC35902489
   53    56     0     0     0
SMALL
USER_CHARGES

@<TRIPOS>ATOM
      1 C1         -0.2366    1.5009   -0.1002 C.3       1 <0>        -0.1800
      2 C2          0.0023   -0.0068    0.0032 C.3       1 <0>         0.1238
      3 H1         -0.9541   -0.5203    0.1009 H         1 <0>         0.0939
      4 C3          0.8549   -0.2986    1.2111 C.ar      1 <0>        -0.0507
      5 C4          2.2095   -0.0176    1.1860 C.ar      1 <0>        -0.0168
      6 C5          2.9928   -0.2851    2.2943 C.ar      1 <0>        -0.0751
      7 C6          2.4230   -0.8330    3.4283 C.ar      1 <0>        -0.1208
      8 C7          1.0682   -1.1142    3.4552 C.ar      1 <0>         0.1197
      9 C8          0.2825   -0.8418    2.3465 C.ar      1 <0>        -0.0574
     10 Cl1        -1.4183   -1.1878    2.3810 Cl        1 <0>        -0.0303
     11 F1          0.5110   -1.6502    4.5631 F         1 <0>        -0.1157
     12 Cl2         2.9265    0.6706   -0.2374 Cl        1 <0>        -0.0266
     13 O1          0.6709   -0.4649   -1.1737 O.3       1 <0>        -0.2903
     14 C9         -0.1076   -0.7749   -2.2450 C.ar      1 <0>         0.0299
     15 C10        -1.4721   -0.5389   -2.2126 C.ar      1 <0>        -0.1219
     16 C11        -2.2312   -0.8738   -3.3386 C.ar      1 <0>        -0.0860
     17 C12        -1.5947   -1.4281   -4.4440 C.ar      1 <0>         0.1181
     18 N1         -0.2926   -1.6388   -4.4381 N.ar      1 <0>        -0.5097
     19 C13         0.4590   -1.3297   -3.3941 C.ar      1 <0>         0.3993
     20 N2          1.8309   -1.5659   -3.4397 N.pl3     1 <0>        -0.8414
     21 C14        -3.6979   -0.6410   -3.3535 C.2       1 <0>        -0.1558
     22 C15        -4.4627   -0.0847   -2.3100 C.2       1 <0>         0.0711
     23 N3         -5.7097   -0.0414   -2.6987 N.2       1 <0>        -0.2815
     24 N4         -5.7898   -0.5640   -3.9951 N.pl3     1 <0>        -0.3795
     25 C16        -4.5480   -0.9216   -4.3826 C.2       1 <0>         0.0495
     26 C17        -7.0103   -0.6949   -4.7948 C.3       1 <0>         0.1592
     27 C18        -6.9271   -1.9605   -5.6529 C.3       1 <0>        -0.1636
     28 C19        -8.1684   -2.0490   -6.5433 C.3       1 <0>         0.0000
     29 N5         -8.2355   -0.8693   -7.4141 N.4       1 <0>        -0.5082
     30 C20        -8.3877    0.3426   -6.6000 C.3       1 <0>        -0.0019
     31 C21        -7.1548    0.5231   -5.7117 C.3       1 <0>        -0.1640
     32 H2          0.7199    2.0145   -0.1979 H         1 <0>         0.0791
     33 H3         -0.8533    1.7120   -0.9739 H         1 <0>         0.0735
     34 H4         -0.7466    1.8504    0.7975 H         1 <0>         0.0781
     35 H5          4.0502   -0.0661    2.2735 H         1 <0>         0.1565
     36 H6          3.0352   -1.0420    4.2932 H         1 <0>         0.1608
     37 H7         -1.9384   -0.1073   -1.3393 H         1 <0>         0.1391
     38 H8         -2.1735   -1.6895   -5.3175 H         1 <0>         0.1503
     39 H9          2.3867   -1.3451   -2.6760 H         1 <0>         0.4140
     40 H10         2.2306   -1.9511   -4.2352 H         1 <0>         0.4065
     41 H11        -4.0846    0.2477   -1.3545 H         1 <0>         0.1874
     42 H12        -4.2766   -1.3540   -5.3343 H         1 <0>         0.1760
     43 H13        -7.8744   -0.7577   -4.1333 H         1 <0>         0.1197
     44 H14        -6.0340   -1.9194   -6.2765 H         1 <0>         0.0999
     45 H15        -6.8801   -2.8365   -5.0059 H         1 <0>         0.1250
     46 H16        -8.1124   -2.9491   -7.1555 H         1 <0>         0.1440
     47 H17        -9.0608   -2.0903   -5.9188 H         1 <0>         0.1374
     48 H18        -7.3873   -0.8043   -7.9567 H         1 <0>         0.4300
     49 H19        -8.4936    1.2082   -7.2540 H         1 <0>         0.1421
     50 H20        -9.2754    0.2503   -5.9742 H         1 <0>         0.1368
     51 H21        -7.2705    1.4224   -5.1068 H         1 <0>         0.1226
     52 H22        -6.2665    0.6158   -6.3365 H         1 <0>         0.0966
     53 H23        -9.0248   -0.9564   -8.0365 H         1 <0>         0.4369
@<TRIPOS>BOND
     1    1    2 1
     2    1   32 1
     3    1   33 1
     4    1   34 1
     5    2    3 1
     6    2    4 1
     7    2   13 1
     8    4    9 ar
     9    4    5 ar
    10    5    6 ar
    11    5   12 1
    12    6    7 ar
    13    6   35 1
    14    7    8 ar
    15    7   36 1
    16    8    9 ar
    17    8   11 1
    18    9   10 1
    19   13   14 1
    20   14   19 ar
    21   14   15 ar
    22   15   16 ar
    23   15   37 1
    24   16   17 ar
    25   16   21 1
    26   17   18 ar
    27   17   38 1
    28   18   19 ar
    29   19   20 1
    30   20   39 1
    31   20   40 1
    32   21   25 2
    33   21   22 1
    34   22   23 2
    35   22   41 1
    36   23   24 1
    37   24   25 1
    38   24   26 1
    39   25   42 1
    40   26   31 1
    41   26   27 1
    42   26   43 1
    43   27   28 1
    44   27   44 1
    45   27   45 1
    46   28   29 1
    47   28   46 1
    48   28   47 1
    49   29   30 1
    50   29   48 1
    51   29   53 1
    52   30   31 1
    53   30   49 1
    54   30   50 1
    55   31   51 1
    56   31   52 1
@<TRIPOS>MOLECULE
ZINC03872983
   56    63     0     0     0
SMALL
USER_CHARGES

@<TRIPOS>ATOM
      1 C1         -0.0187    1.5258    0.0104 C.3       1 <0>        -0.1407
      2 C2          0.0021   -0.0041    0.0020 C.3       1 <0>         0.3579
      3 C3          0.6608   -0.5271   -1.2917 C.3       1 <0>         0.1132
      4 C4          1.6076   -1.6561   -0.8349 C.3       1 <0>        -0.1898
      5 C5          1.4457   -1.7229    0.6980 C.3       1 <0>         0.3130
      6 H1          2.4193   -1.8096    1.1803 H         1 <0>         0.1532
      7 O1          0.8138   -0.4973    1.0676 O.3       1 <0>        -0.3330
      8 N1          0.6026   -2.8728    1.0385 N.pl3     1 <0>        -0.5167
      9 C6          1.0184   -4.1199    1.4309 C.ar      1 <0>         0.1519
     10 C7          2.2990   -4.6615    1.5345 C.ar      1 <0>        -0.1541
     11 C8          2.3988   -5.9678    1.9816 C.ar      1 <0>        -0.0734
     12 C9          1.2861   -6.7205    2.3154 C.ar      1 <0>        -0.1593
     13 C10         0.0034   -6.2102    2.2168 C.ar      1 <0>        -0.0353
     14 C11        -0.1195   -4.8946    1.7654 C.ar      1 <0>        -0.1066
     15 C12        -1.2883   -4.0550    1.5216 C.ar      1 <0>         0.0006
     16 C13        -0.7856   -2.8411    1.0562 C.ar      1 <0>         0.1042
     17 C14        -1.6574   -1.8321    0.6310 C.ar      1 <0>         0.1849
     18 N2         -1.3604   -0.5342    0.1091 N.pl3     1 <0>        -0.5069
     19 C15        -2.5268    0.1096   -0.2279 C.ar      1 <0>         0.1905
     20 C16        -2.7381    1.3431   -0.8422 C.ar      1 <0>        -0.1655
     21 C17        -4.0518    1.7366   -1.0343 C.ar      1 <0>        -0.0792
     22 C18        -5.1215    0.9522   -0.6409 C.ar      1 <0>        -0.1580
     23 C19        -4.9386   -0.2798   -0.0351 C.ar      1 <0>        -0.0532
     24 C20        -3.6224   -0.6962    0.1618 C.ar      1 <0>        -0.0932
     25 C21        -3.0439   -2.0199    0.7036 C.ar      1 <0>        -0.0470
     26 C22        -3.5450   -3.2021    1.2390 C.ar      1 <0>        -0.0435
     27 C23        -2.6872   -4.2198    1.6501 C.ar      1 <0>        -0.1376
     28 C24        -3.5012   -5.3310    2.1668 C.2       1 <0>         0.5687
     29 O2         -3.0532   -6.3689    2.6153 O.2       1 <0>        -0.5251
     30 N3         -4.8090   -5.0377    2.0742 N.am      1 <0>        -0.7236
     31 C25        -4.9478   -3.6986    1.4912 C.3       1 <0>         0.1448
     32 C26        -0.3867   -1.0704   -2.2290 C.2       1 <0>         0.4303
     33 O3         -1.4390   -1.4719   -1.7917 O.2       1 <0>        -0.4517
     34 O4         -0.1506   -1.1083   -3.5499 O.3       1 <0>        -0.3530
     35 C27        -1.1878   -1.6359   -4.3794 C.3       1 <0>         0.0364
     36 O5          1.4030    0.5158   -1.9268 O.3       1 <0>        -0.5193
     37 H2          0.9864    1.9017    0.2018 H         1 <0>         0.0986
     38 H3         -0.3647    1.8898   -0.9570 H         1 <0>         0.0944
     39 H4         -0.6925    1.8757    0.7925 H         1 <0>         0.0826
     40 H5          1.3135   -2.6029   -1.2879 H         1 <0>         0.1035
     41 H6          2.6379   -1.4147   -1.0962 H         1 <0>         0.1271
     42 H7          3.1760   -4.0863    1.2766 H         1 <0>         0.1299
     43 H8          3.3777   -6.4148    2.0726 H         1 <0>         0.1264
     44 H9          1.4227   -7.7342    2.6620 H         1 <0>         0.1255
     45 H10        -0.8619   -6.8015    2.4775 H         1 <0>         0.1518
     46 H11        -1.9125    1.9655   -1.1544 H         1 <0>         0.1356
     47 H12        -4.2479    2.6877   -1.5068 H         1 <0>         0.1246
     48 H13        -6.1261    1.3105   -0.8104 H         1 <0>         0.1240
     49 H14        -5.7761   -0.8897    0.2698 H         1 <0>         0.1343
     50 H15        -5.5393   -5.6148    2.3469 H         1 <0>         0.4267
     51 H16        -5.4595   -3.0369    2.1901 H         1 <0>         0.1001
     52 H17        -5.5003   -3.7534    0.5532 H         1 <0>         0.0997
     53 H18        -0.8686   -1.6093   -5.4213 H         1 <0>         0.1065
     54 H19        -1.3964   -2.6657   -4.0895 H         1 <0>         0.0617
     55 H20        -2.0894   -1.0351   -4.2601 H         1 <0>         0.0644
     56 H21         1.8396    0.2451   -2.7461 H         1 <0>         0.3986
@<TRIPOS>BOND
     1    1    2 1
     2    1   37 1
     3    1   38 1
     4    1   39 1
     5    2    7 1
     6    2   18 1
     7    2    3 1
     8    3    4 1
     9    3   32 1
    10    3   36 1
    11    4    5 1
    12    4   40 1
    13    4   41 1
    14    5    6 1
    15    5    7 1
    16    5    8 1
    17    8   16 1
    18    8    9 1
    19    9   14 ar
    20    9   10 ar
    21   10   11 ar
    22   10   42 1
    23   11   12 ar
    24   11   43 1
    25   12   13 ar
    26   12   44 1
    27   13   14 ar
    28   13   45 1
    29   14   15 1
    30   15   27 ar
    31   15   16 ar
    32   16   17 ar
    33   17   25 ar
    34   17   18 1
    35   18   19 1
    36   19   24 ar
    37   19   20 ar
    38   20   21 ar
    39   20   46 1
    40   21   22 ar
    41   21   47 1
    42   22   23 ar
    43   22   48 1
    44   23   24 ar
    45   23   49 1
    46   24   25 1
    47   25   26 ar
    48   26   31 1
    49   26   27 ar
    50   27   28 1
    51   28   29 2
    52   28   30 am
    53   30   31 1
    54   30   50 1
    55   31   51 1
    56   31   52 1
    57   32   33 2
    58   32   34 1
    59   34   35 1
    60   35   53 1
    61   35   54 1
    62   35   55 1
    63   36   56 1
