@<TRIPOS>MOLECULE
ZINC01851251
   48    50     0     0     0
SMALL
USER_CHARGES

@<TRIPOS>ATOM
      1 C1          0.3114    1.5545   -0.4063 C.ar      1 <0>        -0.0908
      2 C2          1.4692    2.3001   -0.5226 C.ar      1 <0>        -0.1510
      3 C3          2.6930    1.6634   -0.6415 C.ar      1 <0>         0.1047
      4 C4          2.7552    0.2802   -0.6439 C.ar      1 <0>        -0.1491
      5 C5          1.5961   -0.4633   -0.5275 C.ar      1 <0>        -0.0850
      6 C6          0.3748    0.1735   -0.4087 C.ar      1 <0>        -0.1069
      7 C7         -0.8885   -0.6383   -0.2819 C.3       1 <0>        -0.0733
      8 C8         -1.4576   -0.9171   -1.6745 C.3       1 <0>        -0.0954
      9 C9         -1.8967    0.3998   -2.3212 C.3       1 <0>        -0.1454
     10 C10        -2.5372    0.1060   -3.6795 C.3       1 <0>        -0.0116
     11 N1         -3.7051   -0.7640   -3.4959 N.4       1 <0>        -0.3791
     12 C11        -3.2817   -2.0559   -2.9425 C.3       1 <0>        -0.0063
     13 C12        -2.6699   -1.8453   -1.5559 C.3       1 <0>        -0.1427
     14 C13        -4.3617   -0.9797   -4.7921 C.3       1 <0>        -0.0436
     15 C14        -4.9439    0.3427   -5.2952 C.3       1 <0>         0.1359
     16 H1         -4.1428    1.0733   -5.4068 H         1 <0>         0.1320
     17 C15        -5.6123    0.1226   -6.6279 C.ar      1 <0>        -0.1404
     18 C16        -6.9225   -0.3151   -6.6798 C.ar      1 <0>        -0.0929
     19 C17        -7.5361   -0.5171   -7.9017 C.ar      1 <0>        -0.1031
     20 C18        -6.8386   -0.2812   -9.0730 C.ar      1 <0>        -0.0191
     21 C19        -5.5274    0.1569   -9.0205 C.ar      1 <0>        -0.1041
     22 C20        -4.9167    0.3640   -7.7979 C.ar      1 <0>        -0.0883
     23 Cl1        -7.6084   -0.5352  -10.6082 Cl        1 <0>        -0.0459
     24 O1         -5.9043    0.8287   -4.3552 O.3       1 <0>        -0.5460
     25 F1          3.8254    2.3912   -0.7557 F         1 <0>        -0.1340
     26 H2         -0.6428    2.0509   -0.3090 H         1 <0>         0.1313
     27 H3          1.4195    3.3789   -0.5210 H         1 <0>         0.1386
     28 H4          3.7091   -0.2175   -0.7370 H         1 <0>         0.1391
     29 H5          1.6443   -1.5422   -0.5296 H         1 <0>         0.1330
     30 H6         -0.6653   -1.5824    0.2150 H         1 <0>         0.0858
     31 H7         -1.6200   -0.0829    0.3051 H         1 <0>         0.0813
     32 H8         -0.6946   -1.3911   -2.2919 H         1 <0>         0.0919
     33 H9         -2.6215    0.8977   -1.6771 H         1 <0>         0.0910
     34 H10        -1.0287    1.0444   -2.4599 H         1 <0>         0.1154
     35 H11        -2.8508    1.0415   -4.1428 H         1 <0>         0.1307
     36 H12        -1.8115   -0.3917   -4.3228 H         1 <0>         0.1291
     37 H13        -4.1450   -2.7165   -2.8618 H         1 <0>         0.1304
     38 H14        -2.5402   -2.5075   -3.6016 H         1 <0>         0.1290
     39 H15        -2.3545   -2.8054   -1.1475 H         1 <0>         0.1146
     40 H16        -3.4107   -1.3939   -0.8959 H         1 <0>         0.0906
     41 H17        -3.6324   -1.3526   -5.5113 H         1 <0>         0.1424
     42 H18        -5.1635   -1.7090   -4.6763 H         1 <0>         0.1362
     43 H19        -7.4667   -0.4996   -5.7653 H         1 <0>         0.1323
     44 H20        -8.5596   -0.8595   -7.9421 H         1 <0>         0.1431
     45 H21        -4.9823    0.3410   -9.9345 H         1 <0>         0.1435
     46 H22        -3.8947    0.7106   -7.7567 H         1 <0>         0.1369
     47 H23        -6.6474    0.2281   -4.2060 H         1 <0>         0.3886
     48 H24        -4.3545   -0.3240   -2.8613 H         1 <0>         0.4266
@<TRIPOS>BOND
     1    1    6 ar
     2    1    2 ar
     3    1   26 1
     4    2    3 ar
     5    2   27 1
     6    3    4 ar
     7    3   25 1
     8    4    5 ar
     9    4   28 1
    10    5    6 ar
    11    5   29 1
    12    6    7 1
    13    7    8 1
    14    7   30 1
    15    7   31 1
    16    8   13 1
    17    8    9 1
    18    8   32 1
    19    9   10 1
    20    9   33 1
    21    9   34 1
    22   10   11 1
    23   10   35 1
    24   10   36 1
    25   11   12 1
    26   11   14 1
    27   11   48 1
    28   12   13 1
    29   12   37 1
    30   12   38 1
    31   13   39 1
    32   13   40 1
    33   14   15 1
    34   14   41 1
    35   14   42 1
    36   15   16 1
    37   15   17 1
    38   15   24 1
    39   17   22 ar
    40   17   18 ar
    41   18   19 ar
    42   18   43 1
    43   19   20 ar
    44   19   44 1
    45   20   21 ar
    46   20   23 1
    47   21   22 ar
    48   21   45 1
    49   22   46 1
    50   24   47 1
@<TRIPOS>MOLECULE
ZINC00004041
   48    50     0     0     0
SMALL
USER_CHARGES

@<TRIPOS>ATOM
      1 C1         -0.0167    1.3782    0.0096 C.ar      1 <0>        -0.0911
      2 C2          1.1703    2.0860    0.0021 C.ar      1 <0>        -0.1512
      3 C3          2.3786    1.4101   -0.0131 C.ar      1 <0>         0.1047
      4 C4          2.3962    0.0256   -0.0207 C.ar      1 <0>        -0.1489
      5 C5          1.2079   -0.6800   -0.0132 C.ar      1 <0>        -0.0849
      6 C6          0.0021   -0.0041    0.0020 C.ar      1 <0>        -0.1067
      7 C7         -1.2930   -0.7747    0.0103 C.3       1 <0>        -0.0734
      8 C8         -1.7450   -1.0277   -1.4294 C.3       1 <0>        -0.0953
      9 C9         -2.0824    0.3060   -2.1021 C.3       1 <0>        -0.1467
     10 C10        -2.6090    0.0401   -3.5140 C.3       1 <0>        -0.0062
     11 N1         -3.8160   -0.7920   -3.4412 N.4       1 <0>        -0.3793
     12 C11        -3.4852   -2.0998   -2.8627 C.3       1 <0>        -0.0126
     13 C12        -2.9923   -1.9162   -1.4257 C.3       1 <0>        -0.1415
     14 C13        -4.3617   -0.9797   -4.7921 C.3       1 <0>        -0.0437
     15 C14        -5.6863   -1.7406   -4.7059 C.3       1 <0>         0.1354
     16 H1         -5.5342   -2.6746   -4.1650 H         1 <0>         0.1314
     17 C15        -6.1846   -2.0407   -6.0961 C.ar      1 <0>        -0.1401
     18 C16        -6.8293   -1.0594   -6.8258 C.ar      1 <0>        -0.0939
     19 C17        -7.2866   -1.3340   -8.1008 C.ar      1 <0>        -0.1030
     20 C18        -7.0990   -2.5913   -8.6469 C.ar      1 <0>        -0.0191
     21 C19        -6.4538   -3.5730   -7.9161 C.ar      1 <0>        -0.1040
     22 C20        -5.9919   -3.2955   -6.6433 C.ar      1 <0>        -0.0874
     23 Cl1        -7.6736   -2.9371  -10.2481 Cl        1 <0>        -0.0458
     24 O1         -6.6502   -0.9423   -4.0163 O.3       1 <0>        -0.5454
     25 F1          3.5396    2.1009   -0.0209 F         1 <0>        -0.1340
     26 H2         -0.9592    1.9052    0.0260 H         1 <0>         0.1310
     27 H3          1.1554    3.1659    0.0077 H         1 <0>         0.1384
     28 H4          3.3381   -0.5027   -0.0329 H         1 <0>         0.1392
     29 H5          1.2213   -1.7599   -0.0195 H         1 <0>         0.1332
     30 H6         -1.1453   -1.7280    0.5176 H         1 <0>         0.0861
     31 H7         -2.0553   -0.1984    0.5345 H         1 <0>         0.0814
     32 H8         -0.9460   -1.5235   -1.9805 H         1 <0>         0.0919
     33 H9         -2.8450    0.8243   -1.5208 H         1 <0>         0.0903
     34 H10        -1.1852    0.9225   -2.1584 H         1 <0>         0.1156
     35 H11        -2.8499    0.9876   -3.9959 H         1 <0>         0.1300
     36 H12        -1.8456   -0.4780   -4.0945 H         1 <0>         0.1287
     37 H13        -4.3731   -2.7321   -2.8638 H         1 <0>         0.1313
     38 H14        -2.7031   -2.5723   -3.4570 H         1 <0>         0.1298
     39 H15        -2.7456   -2.8882   -0.9986 H         1 <0>         0.1146
     40 H16        -3.7738   -1.4441   -0.8304 H         1 <0>         0.0915
     41 H17        -4.5309   -0.0070   -5.2540 H         1 <0>         0.1361
     42 H18        -3.6538   -1.5496   -5.3940 H         1 <0>         0.1422
     43 H19        -6.9760   -0.0781   -6.3993 H         1 <0>         0.1319
     44 H20        -7.7906   -0.5674   -8.6707 H         1 <0>         0.1431
     45 H21        -6.3073   -4.5547   -8.3417 H         1 <0>         0.1436
     46 H22        -5.4839   -4.0603   -6.0746 H         1 <0>         0.1370
     47 H23        -6.8356   -0.0942   -4.4423 H         1 <0>         0.3890
     48 H24        -4.5046   -0.3341   -2.8631 H         1 <0>         0.4269
@<TRIPOS>BOND
     1    1    6 ar
     2    1    2 ar
     3    1   26 1
     4    2    3 ar
     5    2   27 1
     6    3    4 ar
     7    3   25 1
     8    4    5 ar
     9    4   28 1
    10    5    6 ar
    11    5   29 1
    12    6    7 1
    13    7    8 1
    14    7   30 1
    15    7   31 1
    16    8   13 1
    17    8    9 1
    18    8   32 1
    19    9   10 1
    20    9   33 1
    21    9   34 1
    22   10   11 1
    23   10   35 1
    24   10   36 1
    25   11   12 1
    26   11   14 1
    27   11   48 1
    28   12   13 1
    29   12   37 1
    30   12   38 1
    31   13   39 1
    32   13   40 1
    33   14   15 1
    34   14   41 1
    35   14   42 1
    36   15   16 1
    37   15   17 1
    38   15   24 1
    39   17   22 ar
    40   17   18 ar
    41   18   19 ar
    42   18   43 1
    43   19   20 ar
    44   19   44 1
    45   20   21 ar
    46   20   23 1
    47   21   22 ar
    48   21   45 1
    49   22   46 1
    50   24   47 1
