@<TRIPOS>MOLECULE
ZINC00058172
   20    20     0     0     0
SMALL
USER_CHARGES

@<TRIPOS>ATOM
      1 C1         -0.0169    1.3957    0.0097 C.ar      1 <0>        -0.1140
      2 C2          1.1668    2.1000    0.0022 C.ar      1 <0>        -0.1250
      3 C3          2.3804    1.4254   -0.0135 C.ar      1 <0>         0.0593
      4 C4          2.4079    0.0305   -0.0212 C.ar      1 <0>         0.0806
      5 C5          1.2269   -0.6836   -0.0138 C.ar      1 <0>        -0.1286
      6 C6          0.0021   -0.0041    0.0020 C.ar      1 <0>        -0.0222
      7 C7         -1.2582   -0.7578    0.0105 C.2       1 <0>        -0.1234
      8 C8         -2.4405   -0.0992    0.0258 C.2       1 <0>        -0.1542
      9 C9         -3.6536   -0.8247    0.0339 C.2       1 <0>         0.4982
     10 O1         -3.6348   -2.0498    0.0272 O.co2     1 <0>        -0.6929
     11 O2         -4.7239   -0.2284    0.0477 O.co2     1 <0>        -0.6968
     12 O3          3.5989   -0.6258   -0.0366 O.3       1 <0>        -0.4900
     13 O4          3.5440    2.1254   -0.0217 O.3       1 <0>        -0.4895
     14 H1         -0.9592    1.9231    0.0260 H         1 <0>         0.1353
     15 H2          1.1511    3.1799    0.0081 H         1 <0>         0.1310
     16 H3          1.2470   -1.7634   -0.0205 H         1 <0>         0.1354
     17 H4         -1.2417   -1.8376    0.0045 H         1 <0>         0.1311
     18 H5         -2.4570    0.9807    0.0317 H         1 <0>         0.1021
     19 H6          3.9522   -0.8203    0.8423 H         1 <0>         0.3831
     20 H7          3.8899    2.3237    0.8592 H         1 <0>         0.3804
@<TRIPOS>BOND
     1    1    6 ar
     2    1    2 ar
     3    1   14 1
     4    2    3 ar
     5    2   15 1
     6    3    4 ar
     7    3   13 1
     8    4    5 ar
     9    4   12 1
    10    5    6 ar
    11    5   16 1
    12    6    7 1
    13    7    8 2
    14    7   17 1
    15    8    9 1
    16    8   18 1
    17    9   10 2
    18    9   11 1
    19   12   19 1
    20   13   20 1
