@<TRIPOS>MOLECULE
ZINC04217571
   60    61     0     0     0
SMALL
USER_CHARGES

@<TRIPOS>ATOM
      1 C1          3.1460   -6.2382    0.0109 C.3       1 <0>        -0.1540
      2 C2          2.1767   -5.6636   -1.0241 C.3       1 <0>        -0.0941
      3 C3          0.7622   -6.1694   -0.7341 C.3       1 <0>        -0.1477
      4 C4          2.1974   -4.1356   -0.9490 C.3       1 <0>        -0.1148
      5 C5          3.5792   -3.6234   -1.3603 C.3       1 <0>         0.0563
      6 O1          3.5985   -2.1962   -1.2902 O.3       1 <0>        -0.3141
      7 C6          4.7616   -1.5773   -1.6264 C.ar      1 <0>         0.1403
      8 C7          5.8583   -2.3296   -2.0208 C.ar      1 <0>        -0.1995
      9 C8          7.0399   -1.7017   -2.3624 C.ar      1 <0>        -0.0313
     10 C9          7.1300   -0.3171   -2.3110 C.ar      1 <0>         0.0800
     11 C10         6.0318    0.4353   -1.9161 C.ar      1 <0>        -0.0807
     12 C11         4.8491   -0.1937   -1.5803 C.ar      1 <0>        -0.1479
     13 N1          8.3284    0.3205   -2.6569 N.pl3     1 <0>        -0.6209
     14 C12         9.0644   -0.1412   -3.6872 C.2       1 <0>         0.5487
     15 S1          8.4605   -1.4047   -4.6721 S.2       1 <0>        -0.5955
     16 N2         10.2758    0.3916   -3.9422 N.pl3     1 <0>        -0.6209
     17 C13        10.9995   -0.0209   -5.0685 C.ar      1 <0>         0.0728
     18 C14        11.6175    0.9209   -5.8803 C.ar      1 <0>        -0.0765
     19 C15        12.3311    0.5135   -6.9901 C.ar      1 <0>        -0.1513
     20 C16        12.4306   -0.8363   -7.2941 C.ar      1 <0>         0.1441
     21 C17        11.8131   -1.7778   -6.4838 C.ar      1 <0>        -0.2035
     22 C18        11.1039   -1.3722   -5.3704 C.ar      1 <0>        -0.0233
     23 O2         13.1334   -1.2368   -8.3871 O.3       1 <0>        -0.3140
     24 C19        13.1945   -2.6419   -8.6401 C.3       1 <0>         0.0561
     25 C20        14.0217   -2.8975   -9.9016 C.3       1 <0>        -0.1149
     26 C21        14.0870   -4.4019  -10.1725 C.3       1 <0>        -0.0935
     27 C22        12.6853   -4.9234  -10.4951 C.3       1 <0>        -0.1547
     28 C23        15.0153   -4.6664  -11.3596 C.3       1 <0>        -0.1477
     29 H1          4.1538   -5.8779   -0.1957 H         1 <0>         0.0554
     30 H2          2.8435   -5.9193    1.0084 H         1 <0>         0.0573
     31 H3          3.1313   -7.3268   -0.0426 H         1 <0>         0.0577
     32 H4          2.4792   -5.9825   -2.0215 H         1 <0>         0.0733
     33 H5          0.4597   -5.8505    0.2634 H         1 <0>         0.0565
     34 H6          0.0716   -5.7600   -1.4714 H         1 <0>         0.0566
     35 H7          0.7475   -7.2580   -0.7876 H         1 <0>         0.0579
     36 H8          1.4436   -3.7285   -1.6229 H         1 <0>         0.0747
     37 H9          1.9815   -3.8190    0.0714 H         1 <0>         0.0745
     38 H10         4.3330   -4.0305   -0.6864 H         1 <0>         0.0658
     39 H11         3.7951   -3.9399   -2.3808 H         1 <0>         0.0640
     40 H12         5.7882   -3.4065   -2.0604 H         1 <0>         0.1327
     41 H13         7.8938   -2.2875   -2.6691 H         1 <0>         0.1484
     42 H14         6.1012    1.5123   -1.8759 H         1 <0>         0.1313
     43 H15         3.9934    0.3916   -1.2777 H         1 <0>         0.1364
     44 H16         8.6285    1.0944   -2.1549 H         1 <0>         0.4078
     45 H17        10.6466    1.0608   -3.3458 H         1 <0>         0.4077
     46 H18        11.5398    1.9719   -5.6440 H         1 <0>         0.1308
     47 H19        12.8115    1.2459   -7.6218 H         1 <0>         0.1362
     48 H20        11.8906   -2.8285   -6.7212 H         1 <0>         0.1329
     49 H21        10.6272   -2.1056   -4.7369 H         1 <0>         0.1501
     50 H22        13.6605   -3.1439   -7.7922 H         1 <0>         0.0630
     51 H23        12.1857   -3.0296   -8.7823 H         1 <0>         0.0673
     52 H24        13.5557   -2.3955  -10.7495 H         1 <0>         0.0750
     53 H25        15.0304   -2.5097   -9.7594 H         1 <0>         0.0743
     54 H26        14.4709   -4.9136   -9.2900 H         1 <0>         0.0728
     55 H27        12.0240   -4.7349   -9.6494 H         1 <0>         0.0560
     56 H28        12.3014   -4.4116  -11.3776 H         1 <0>         0.0577
     57 H29        12.7318   -5.9951  -10.6881 H         1 <0>         0.0578
     58 H30        16.0139   -4.2949  -11.1298 H         1 <0>         0.0562
     59 H31        15.0619   -5.7382  -11.5526 H         1 <0>         0.0580
     60 H32        14.6314   -4.1547  -12.2421 H         1 <0>         0.0567
@<TRIPOS>BOND
     1    1    2 1
     2    1   29 1
     3    1   30 1
     4    1   31 1
     5    2    3 1
     6    2    4 1
     7    2   32 1
     8    3   33 1
     9    3   34 1
    10    3   35 1
    11    4    5 1
    12    4   36 1
    13    4   37 1
    14    5    6 1
    15    5   38 1
    16    5   39 1
    17    6    7 1
    18    7   12 ar
    19    7    8 ar
    20    8    9 ar
    21    8   40 1
    22    9   10 ar
    23    9   41 1
    24   10   11 ar
    25   10   13 1
    26   11   12 ar
    27   11   42 1
    28   12   43 1
    29   13   14 1
    30   13   44 1
    31   14   15 2
    32   14   16 1
    33   16   17 1
    34   16   45 1
    35   17   22 ar
    36   17   18 ar
    37   18   19 ar
    38   18   46 1
    39   19   20 ar
    40   19   47 1
    41   20   21 ar
    42   20   23 1
    43   21   22 ar
    44   21   48 1
    45   22   49 1
    46   23   24 1
    47   24   25 1
    48   24   50 1
    49   24   51 1
    50   25   26 1
    51   25   52 1
    52   25   53 1
    53   26   27 1
    54   26   28 1
    55   26   54 1
    56   27   55 1
    57   27   56 1
    58   27   57 1
    59   28   58 1
    60   28   59 1
    61   28   60 1
