@<TRIPOS>MOLECULE
ZINC13559954
   21    22     0     0     0
SMALL
USER_CHARGES

@<TRIPOS>ATOM
      1 C1         -0.0167    1.3781    0.0096 C.ar      1 <0>        -0.1148
      2 C2          1.1709    2.0855    0.0021 C.ar      1 <0>        -0.1146
      3 C3          2.3773    1.4107   -0.0130 C.ar      1 <0>        -0.1019
      4 C4          2.3960    0.0285   -0.0201 C.ar      1 <0>        -0.0766
      5 C5          1.2084   -0.6789   -0.0117 C.ar      1 <0>        -0.1108
      6 C6          0.0021   -0.0041    0.0020 C.ar      1 <0>        -0.1155
      7 C7          3.7112   -0.7071   -0.0376 C.3       1 <0>         0.0870
      8 C8          3.9462   -1.7599    1.0474 C.3       1 <0>        -0.1605
      9 C9          3.6840   -2.1943   -0.3960 C.3       1 <0>         0.0158
     10 H1          2.7150   -2.6406   -0.6192 H         1 <0>         0.1040
     11 N1          4.8191   -2.7286   -1.1603 N.3       1 <0>        -0.8176
     12 F1          4.8148    0.0399   -0.4632 F         1 <0>        -0.1639
     13 H2         -0.9591    1.9053    0.0259 H         1 <0>         0.1263
     14 H3          1.1563    3.1654    0.0076 H         1 <0>         0.1277
     15 H4          3.3051    1.9634   -0.0196 H         1 <0>         0.1279
     16 H5          1.2231   -1.7588   -0.0176 H         1 <0>         0.1252
     17 H6         -0.9258   -0.5567    0.0082 H         1 <0>         0.1277
     18 H7          4.9608   -1.8706    1.4300 H         1 <0>         0.1167
     19 H8          3.1496   -1.9205    1.7739 H         1 <0>         0.1129
     20 H9          4.7008   -3.7140   -1.3421 H         1 <0>         0.3535
     21 H10         4.9502   -2.2157   -2.0192 H         1 <0>         0.3517
@<TRIPOS>BOND
     1    1    6 ar
     2    1    2 ar
     3    1   13 1
     4    2    3 ar
     5    2   14 1
     6    3    4 ar
     7    3   15 1
     8    4    5 ar
     9    4    7 1
    10    5    6 ar
    11    5   16 1
    12    6   17 1
    13    7    9 1
    14    7    8 1
    15    7   12 1
    16    8    9 1
    17    8   18 1
    18    8   19 1
    19    9   10 1
    20    9   11 1
    21   11   20 1
    22   11   21 1
@<TRIPOS>MOLECULE
ZINC13559955
   21    22     0     0     0
SMALL
USER_CHARGES

@<TRIPOS>ATOM
      1 C1         -0.3600    0.6128    0.3657 C.ar      1 <0>        -0.1110
      2 C2          0.6947    1.4708    0.1159 C.ar      1 <0>        -0.1192
      3 C3          1.9811    0.9745    0.0177 C.ar      1 <0>        -0.0979
      4 C4          2.2130   -0.3798    0.1699 C.ar      1 <0>        -0.0644
      5 C5          1.1584   -1.2376    0.4206 C.ar      1 <0>        -0.0927
      6 C6         -0.1282   -0.7415    0.5173 C.ar      1 <0>        -0.1190
      7 C7          3.6153   -0.9209    0.0619 C.3       1 <0>         0.0825
      8 C8          4.0078   -2.0595    1.0056 C.3       1 <0>        -0.1618
      9 C9          4.5676   -0.6532    1.2291 C.3       1 <0>         0.0187
     10 H1          5.6187   -0.4866    0.9931 H         1 <0>         0.0984
     11 N1          4.0451    0.1116    2.3692 N.3       1 <0>        -0.8136
     12 F1          4.1600   -0.9326   -1.2266 F         1 <0>        -0.1710
     13 H2         -1.3645    1.0011    0.4468 H         1 <0>         0.1247
     14 H3          0.5135    2.5288   -0.0030 H         1 <0>         0.1255
     15 H4          2.8050    1.6448   -0.1782 H         1 <0>         0.1196
     16 H5          1.3395   -2.2957    0.5391 H         1 <0>         0.1246
     17 H6         -0.9521   -1.4119    0.7128 H         1 <0>         0.1263
     18 H7          3.2517   -2.4171    1.7046 H         1 <0>         0.1187
     19 H8          4.6904   -2.8180    0.6226 H         1 <0>         0.1106
     20 H9          4.7198    0.1503    3.1184 H         1 <0>         0.3526
     21 H10         3.7664    1.0389    2.0853 H         1 <0>         0.3484
@<TRIPOS>BOND
     1    1    6 ar
     2    1    2 ar
     3    1   13 1
     4    2    3 ar
     5    2   14 1
     6    3    4 ar
     7    3   15 1
     8    4    5 ar
     9    4    7 1
    10    5    6 ar
    11    5   16 1
    12    6   17 1
    13    7    9 1
    14    7    8 1
    15    7   12 1
    16    8    9 1
    17    8   18 1
    18    8   19 1
    19    9   10 1
    20    9   11 1
    21   11   20 1
    22   11   21 1
@<TRIPOS>MOLECULE
ZINC13584952
   21    22     0     0     0
SMALL
USER_CHARGES

@<TRIPOS>ATOM
      1 C1         -0.0167    1.3781    0.0096 C.ar      1 <0>        -0.1154
      2 C2          1.1709    2.0855    0.0021 C.ar      1 <0>        -0.1148
      3 C3          2.3773    1.4107   -0.0130 C.ar      1 <0>        -0.1024
      4 C4          2.3960    0.0285   -0.0201 C.ar      1 <0>        -0.0729
      5 C5          1.2084   -0.6789   -0.0117 C.ar      1 <0>        -0.1098
      6 C6          0.0021   -0.0041    0.0020 C.ar      1 <0>        -0.1156
      7 C7          3.7112   -0.7071   -0.0376 C.3       1 <0>         0.0880
      8 C8          3.9233   -1.7490   -1.1377 C.3       1 <0>        -0.2155
      9 C9          3.6914   -2.1978    0.3065 C.3       1 <0>         0.0391
     10 H1          2.7272   -2.6464    0.5454 H         1 <0>         0.1350
     11 N1          4.8422   -2.7396    1.0414 N.3       1 <0>        -0.8103
     12 F1          4.8236    0.0357    0.3723 F         1 <0>        -0.1662
     13 H2         -0.9591    1.9053    0.0259 H         1 <0>         0.1260
     14 H3          1.1563    3.1654    0.0076 H         1 <0>         0.1273
     15 H4          3.3051    1.9634   -0.0196 H         1 <0>         0.1271
     16 H5          1.2231   -1.7588   -0.0176 H         1 <0>         0.1249
     17 H6         -0.9258   -0.5567    0.0082 H         1 <0>         0.1276
     18 H7          3.1116   -1.9024   -1.8489 H         1 <0>         0.1140
     19 H8          4.9297   -1.8558   -1.5425 H         1 <0>         0.1097
     20 H9          4.7276   -3.7268    1.2158 H         1 <0>         0.3545
     21 H10         5.7040   -2.5570    0.5495 H         1 <0>         0.3498
@<TRIPOS>BOND
     1    1    6 ar
     2    1    2 ar
     3    1   13 1
     4    2    3 ar
     5    2   14 1
     6    3    4 ar
     7    3   15 1
     8    4    5 ar
     9    4    7 1
    10    5    6 ar
    11    5   16 1
    12    6   17 1
    13    7    9 1
    14    7    8 1
    15    7   12 1
    16    8    9 1
    17    8   18 1
    18    8   19 1
    19    9   10 1
    20    9   11 1
    21   11   20 1
    22   11   21 1
@<TRIPOS>MOLECULE
ZINC13584960
   21    22     0     0     0
SMALL
USER_CHARGES

@<TRIPOS>ATOM
      1 C1         -0.3892    0.5782   -0.0981 C.ar      1 <0>        -0.1101
      2 C2          0.6718    1.4264   -0.3547 C.ar      1 <0>        -0.1242
      3 C3          1.9651    0.9382   -0.3447 C.ar      1 <0>        -0.1028
      4 C4          2.1973   -0.3981   -0.0777 C.ar      1 <0>        -0.0742
      5 C5          1.1364   -1.2461    0.1798 C.ar      1 <0>        -0.0742
      6 C6         -0.1569   -0.7582    0.1684 C.ar      1 <0>        -0.1226
      7 C7          3.6071   -0.9305   -0.0677 C.3       1 <0>         0.0828
      8 C8          4.6978   -0.0312    0.5174 C.3       1 <0>        -0.2156
      9 C9          4.2266   -1.2643    1.2909 C.3       1 <0>         0.0433
     10 H1          4.9038   -2.1171    1.3393 H         1 <0>         0.1302
     11 N1          3.4017   -1.0413    2.4857 N.3       1 <0>        -0.8076
     12 F1          3.9527   -1.7435   -1.1525 F         1 <0>        -0.1703
     13 H2         -1.3992    0.9605   -0.1016 H         1 <0>         0.1239
     14 H3          0.4904    2.4704   -0.5633 H         1 <0>         0.1248
     15 H4          2.7939    1.6007   -0.5458 H         1 <0>         0.1222
     16 H5          1.3179   -2.2902    0.3880 H         1 <0>         0.1241
     17 H6         -0.9858   -1.4208    0.3691 H         1 <0>         0.1254
     18 H7          5.6850   -0.0726    0.0571 H         1 <0>         0.1113
     19 H8          4.3957    0.9456    0.8952 H         1 <0>         0.1112
     20 H9          3.8690   -1.3753    3.3153 H         1 <0>         0.3539
     21 H10         3.1541   -0.0674    2.5775 H         1 <0>         0.3485
@<TRIPOS>BOND
     1    1    6 ar
     2    1    2 ar
     3    1   13 1
     4    2    3 ar
     5    2   14 1
     6    3    4 ar
     7    3   15 1
     8    4    5 ar
     9    4    7 1
    10    5    6 ar
    11    5   16 1
    12    6   17 1
    13    7    9 1
    14    7    8 1
    15    7   12 1
    16    8    9 1
    17    8   18 1
    18    8   19 1
    19    9   10 1
    20    9   11 1
    21   11   20 1
    22   11   21 1
