@<TRIPOS>MOLECULE
ZINC00105789
   33    35     0     0     0
SMALL
USER_CHARGES
benzyl 2-oxochromene-3-carboxylate
@<TRIPOS>ATOM
      1 C1          5.6045   10.2149   -0.0032 C.ar      1 <0>        -0.1071
      2 C2          5.7030    9.5236    1.1898 C.ar      1 <0>        -0.1227
      3 C3          5.8757    8.1521    1.1817 C.ar      1 <0>        -0.0942
      4 C4          5.9504    7.4720   -0.0194 C.ar      1 <0>        -0.1010
      5 C5          5.8576    8.1640   -1.2125 C.ar      1 <0>        -0.0943
      6 C6          5.6792    9.5348   -1.2043 C.ar      1 <0>        -0.1227
      7 C7          6.1392    5.9769   -0.0283 C.3       1 <0>         0.1127
      8 O1          4.8417    5.3251   -0.0185 O.3       1 <0>        -0.3517
      9 C8          4.8338    3.9772   -0.0247 C.2       1 <0>         0.5181
     10 O2          5.8828    3.3634   -0.0380 O.2       1 <0>        -0.4728
     11 C9          3.5556    3.2490   -0.0154 C.2       1 <0>        -0.2573
     12 C10         2.3529    3.9358   -0.0003 C.2       1 <0>         0.0811
     13 C11         1.1452    3.1936    0.0078 C.ar      1 <0>        -0.1795
     14 C12        -0.0910    3.8575    0.0227 C.ar      1 <0>        -0.0377
     15 C13        -1.2499    3.1366    0.0299 C.ar      1 <0>        -0.1466
     16 C14        -1.2157    1.7488    0.0173 C.ar      1 <0>        -0.0419
     17 C15        -0.0126    1.0758    0.0080 C.ar      1 <0>        -0.1417
     18 C16         1.1822    1.7876    0.0004 C.ar      1 <0>         0.1674
     19 O3          2.3591    1.1259   -0.0144 O.3       1 <0>        -0.2587
     20 C17         3.5316    1.7816   -0.0225 C.2       1 <0>         0.5239
     21 O4          4.5760    1.1575   -0.0358 O.2       1 <0>        -0.4171
     22 H1          5.4688   11.2863    0.0032 H         1 <0>         0.1255
     23 H2          5.6446   10.0549    2.1282 H         1 <0>         0.1266
     24 H3          5.9527    7.6120    2.1138 H         1 <0>         0.1252
     25 H4          5.9204    7.6332   -2.1510 H         1 <0>         0.1252
     26 H5          5.6019   10.0748   -2.1364 H         1 <0>         0.1266
     27 H6          6.7033    5.6766    0.8547 H         1 <0>         0.0836
     28 H7          6.6856    5.6849   -0.9251 H         1 <0>         0.0836
     29 H8          2.3356    5.0157    0.0050 H         1 <0>         0.1674
     30 H9         -0.1253    4.9370    0.0288 H         1 <0>         0.1449
     31 H10        -2.2003    3.6494    0.0413 H         1 <0>         0.1406
     32 H11        -2.1405    1.1911    0.0186 H         1 <0>         0.1455
     33 H12         0.0021   -0.0041    0.0020 H         1 <0>         0.1494
@<TRIPOS>BOND
     1    1    6 ar
     2    1    2 ar
     3    1   22 1
     4    2    3 ar
     5    2   23 1
     6    3    4 ar
     7    3   24 1
     8    4    5 ar
     9    4    7 1
    10    5    6 ar
    11    5   25 1
    12    6   26 1
    13    7    8 1
    14    7   27 1
    15    7   28 1
    16    8    9 1
    17    9   10 2
    18    9   11 1
    19   11   20 1
    20   11   12 2
    21   12   13 1
    22   12   29 1
    23   13   18 ar
    24   13   14 ar
    25   14   15 ar
    26   14   30 1
    27   15   16 ar
    28   15   31 1
    29   16   17 ar
    30   16   32 1
    31   17   18 ar
    32   17   33 1
    33   18   19 1
    34   19   20 1
    35   20   21 2
@<TRIPOS>MOLECULE
ZINC00552382
   36    38     0     0     0
SMALL
USER_CHARGES

@<TRIPOS>ATOM
      1 C1         -2.3810   -3.9870    0.9409 C.ar      1 <0>        -0.1011
      2 C2         -2.0908   -5.2999    1.2691 C.ar      1 <0>        -0.1237
      3 C3         -0.7914   -5.7575    1.2123 C.ar      1 <0>        -0.0884
      4 C4          0.2346   -4.8913    0.8213 C.ar      1 <0>        -0.0876
      5 C5         -0.0667   -3.5662    0.4908 C.ar      1 <0>        -0.0952
      6 C6         -1.3711   -3.1236    0.5531 C.ar      1 <0>        -0.1230
      7 C7          1.6244   -5.3715    0.7585 C.2       1 <0>         0.0053
      8 C8          2.6115   -4.5329    0.3809 C.2       1 <0>        -0.2017
      9 C9          3.9924   -5.0101    0.3185 C.2       1 <0>         0.4896
     10 O1          4.2511   -6.1629    0.6070 O.2       1 <0>        -0.4877
     11 O2          4.9794   -4.1715   -0.0591 O.3       1 <0>        -0.3472
     12 C10         6.3169   -4.6695    0.0133 C.3       1 <0>         0.2840
     13 N1          6.7608   -4.6756    1.4094 N.am      1 <0>        -0.5950
     14 C11         7.0888   -3.5742    2.1087 C.2       1 <0>         0.5768
     15 O3          7.0648   -2.4348    1.6890 O.2       1 <0>        -0.4512
     16 C12         7.4833   -3.9829    3.4733 C.ar      1 <0>        -0.1427
     17 C13         7.9076   -3.3016    4.6029 C.ar      1 <0>        -0.0429
     18 C14         8.2072   -4.0062    5.7583 C.ar      1 <0>        -0.0950
     19 C15         8.0855   -5.3828    5.7910 C.ar      1 <0>        -0.0932
     20 C16         7.6622   -6.0776    4.6688 C.ar      1 <0>        -0.0443
     21 C17         7.3592   -5.3865    3.5067 C.ar      1 <0>        -0.1389
     22 C18         6.8887   -5.7829    2.1626 C.2       1 <0>         0.5709
     23 O4          6.6580   -6.9183    1.7987 O.2       1 <0>        -0.4338
     24 H1         -3.4013   -3.6356    0.9833 H         1 <0>         0.1270
     25 H2         -2.8843   -5.9676    1.5708 H         1 <0>         0.1288
     26 H3         -0.5664   -6.7821    1.4694 H         1 <0>         0.1300
     27 H4          0.7202   -2.8912    0.1884 H         1 <0>         0.1301
     28 H5         -1.6055   -2.1006    0.2982 H         1 <0>         0.1287
     29 H6          1.8541   -6.3952    1.0147 H         1 <0>         0.1396
     30 H7          2.3818   -3.5092    0.1247 H         1 <0>         0.1439
     31 H8          6.3486   -5.6846   -0.3825 H         1 <0>         0.1156
     32 H9          6.9751   -4.0297   -0.5745 H         1 <0>         0.1461
     33 H10         8.0049   -2.2262    4.5829 H         1 <0>         0.1439
     34 H11         8.5384   -3.4761    6.6390 H         1 <0>         0.1444
     35 H12         8.3222   -5.9207    6.6971 H         1 <0>         0.1444
     36 H13         7.5692   -7.1532    4.7000 H         1 <0>         0.1436
@<TRIPOS>BOND
     1    1    6 ar
     2    1    2 ar
     3    1   24 1
     4    2    3 ar
     5    2   25 1
     6    3    4 ar
     7    3   26 1
     8    4    5 ar
     9    4    7 1
    10    5    6 ar
    11    5   27 1
    12    6   28 1
    13    7    8 2
    14    7   29 1
    15    8    9 1
    16    8   30 1
    17    9   10 2
    18    9   11 1
    19   11   12 1
    20   12   13 1
    21   12   31 1
    22   12   32 1
    23   13   22 am
    24   13   14 am
    25   14   15 2
    26   14   16 1
    27   16   21 ar
    28   16   17 ar
    29   17   18 ar
    30   17   33 1
    31   18   19 ar
    32   18   34 1
    33   19   20 ar
    34   19   35 1
    35   20   21 ar
    36   20   36 1
    37   21   22 1
    38   22   23 2
@<TRIPOS>MOLECULE
ZINC00287718
   35    37     0     0     0
SMALL
USER_CHARGES
1-naphthyl 3-phenylprop-2-enoate
@<TRIPOS>ATOM
      1 C1         -0.0212    4.2237    0.2035 C.ar      1 <0>        -0.1008
      2 C2          1.1828    3.5445    0.2726 C.ar      1 <0>        -0.1237
      3 C3          1.2023    2.1659    0.2632 C.ar      1 <0>        -0.0881
      4 C4          0.0013    1.4537    0.1836 C.ar      1 <0>        -0.0878
      5 C5         -1.2108    2.1474    0.1082 C.ar      1 <0>        -0.0951
      6 C6         -1.2140    3.5262    0.1245 C.ar      1 <0>        -0.1231
      7 C7          0.0132   -0.0179    0.1730 C.2       1 <0>         0.0066
      8 C8         -1.1476   -0.7014    0.0961 C.2       1 <0>        -0.1994
      9 C9         -1.1357   -2.1634    0.0856 C.2       1 <0>         0.4947
     10 O1         -0.0794   -2.7635    0.1462 O.2       1 <0>        -0.4908
     11 O2         -2.2964   -2.8469    0.0087 O.3       1 <0>        -0.2898
     12 C10        -2.2339   -4.1989   -0.1037 C.ar      1 <0>         0.0945
     13 C11        -2.2663   -4.7946   -1.3444 C.ar      1 <0>        -0.1114
     14 C12        -2.2000   -6.1793   -1.4715 C.ar      1 <0>        -0.1066
     15 C13        -2.1091   -6.9818   -0.3755 C.ar      1 <0>        -0.0973
     16 C14        -2.0776   -6.4131    0.9089 C.ar      1 <0>        -0.0432
     17 C15        -2.1412   -5.0046    1.0495 C.ar      1 <0>        -0.0524
     18 C16        -2.1113   -4.4379    2.3339 C.ar      1 <0>        -0.1023
     19 C17        -2.0216   -5.2467    3.4253 C.ar      1 <0>        -0.1093
     20 C18        -1.9594   -6.6321    3.2880 C.ar      1 <0>        -0.1118
     21 C19        -1.9861   -7.2162    2.0591 C.ar      1 <0>        -0.1040
     22 H1         -0.0300    5.3036    0.2117 H         1 <0>         0.1269
     23 H2          2.1094    4.0959    0.3337 H         1 <0>         0.1289
     24 H3          2.1426    1.6373    0.3175 H         1 <0>         0.1301
     25 H4         -2.1421    1.6045    0.0420 H         1 <0>         0.1305
     26 H5         -2.1495    4.0632    0.0709 H         1 <0>         0.1287
     27 H6          0.9511   -0.5507    0.2268 H         1 <0>         0.1399
     28 H7         -2.0855   -0.1686    0.0423 H         1 <0>         0.1456
     29 H8         -2.3418   -4.1804   -2.2295 H         1 <0>         0.1326
     30 H9         -2.2237   -6.6242   -2.4553 H         1 <0>         0.1342
     31 H10        -2.0609   -8.0543   -0.4932 H         1 <0>         0.1345
     32 H11        -2.1594   -3.3659    2.4553 H         1 <0>         0.1229
     33 H12        -1.9987   -4.8082    4.4120 H         1 <0>         0.1265
     34 H13        -1.8886   -7.2514    4.1700 H         1 <0>         0.1274
     35 H14        -1.9367   -8.2912    1.9679 H         1 <0>         0.1324
@<TRIPOS>BOND
     1    1    6 ar
     2    1    2 ar
     3    1   22 1
     4    2    3 ar
     5    2   23 1
     6    3    4 ar
     7    3   24 1
     8    4    5 ar
     9    4    7 1
    10    5    6 ar
    11    5   25 1
    12    6   26 1
    13    7    8 2
    14    7   27 1
    15    8    9 1
    16    8   28 1
    17    9   10 2
    18    9   11 1
    19   11   12 1
    20   12   17 ar
    21   12   13 ar
    22   13   14 ar
    23   13   29 1
    24   14   15 ar
    25   14   30 1
    26   15   16 ar
    27   15   31 1
    28   16   21 ar
    29   16   17 ar
    30   17   18 ar
    31   18   19 ar
    32   18   32 1
    33   19   20 ar
    34   19   33 1
    35   20   21 ar
    36   20   34 1
    37   21   35 1
@<TRIPOS>MOLECULE
ZINC12358883
   32    33     0     0     0
SMALL
USER_CHARGES

@<TRIPOS>ATOM
      1 C1         -0.0167    1.3781    0.0096 C.ar      1 <0>        -0.1085
      2 C2          1.1709    2.0855    0.0021 C.ar      1 <0>        -0.1226
      3 C3          2.3773    1.4107   -0.0130 C.ar      1 <0>        -0.0952
      4 C4          2.3960    0.0285   -0.0201 C.ar      1 <0>        -0.0997
      5 C5          1.2084   -0.6789   -0.0117 C.ar      1 <0>        -0.0952
      6 C6          0.0021   -0.0041    0.0020 C.ar      1 <0>        -0.1226
      7 C7          3.7112   -0.7071   -0.0376 C.3       1 <0>         0.1088
      8 O1          4.1410   -0.9464    1.3041 O.3       1 <0>        -0.3426
      9 C8          5.3100   -1.6001    1.4654 C.2       1 <0>         0.4979
     10 O2          5.9464   -1.9570    0.4923 O.2       1 <0>        -0.5115
     11 C9          5.8119   -1.8797    2.8101 C.2       1 <0>        -0.1981
     12 C10         6.9810   -2.5335    2.9714 C.2       1 <0>         0.0007
     13 C11         7.4862   -2.8149    4.3247 C.ar      1 <0>        -0.0862
     14 C12         6.7544   -2.4113    5.4461 C.ar      1 <0>        -0.0962
     15 C13         7.2342   -2.6791    6.7108 C.ar      1 <0>        -0.1231
     16 C14         8.4367   -3.3450    6.8721 C.ar      1 <0>        -0.1023
     17 C15         9.1668   -3.7476    5.7673 C.ar      1 <0>        -0.1237
     18 C16         8.6976   -3.4924    4.4961 C.ar      1 <0>        -0.0895
     19 H1         -0.9591    1.9053    0.0259 H         1 <0>         0.1253
     20 H2          1.1563    3.1654    0.0076 H         1 <0>         0.1264
     21 H3          3.3051    1.9634   -0.0196 H         1 <0>         0.1246
     22 H4          1.2231   -1.7588   -0.0176 H         1 <0>         0.1246
     23 H5         -0.9258   -0.5567    0.0082 H         1 <0>         0.1264
     24 H6          3.5884   -1.6586   -0.5549 H         1 <0>         0.0783
     25 H7          4.4573   -0.1052   -0.5563 H         1 <0>         0.0784
     26 H8          5.2468   -1.5628    3.6741 H         1 <0>         0.1429
     27 H9          7.5462   -2.8504    2.1073 H         1 <0>         0.1394
     28 H10         5.8162   -1.8910    5.3219 H         1 <0>         0.1302
     29 H11         6.6702   -2.3681    7.5778 H         1 <0>         0.1282
     30 H12         8.8076   -3.5512    7.8652 H         1 <0>         0.1265
     31 H13        10.1045   -4.2665    5.9013 H         1 <0>         0.1285
     32 H14         9.2662   -3.8112    3.6349 H         1 <0>         0.1299
@<TRIPOS>BOND
     1    1    6 ar
     2    1    2 ar
     3    1   19 1
     4    2    3 ar
     5    2   20 1
     6    3    4 ar
     7    3   21 1
     8    4    5 ar
     9    4    7 1
    10    5    6 ar
    11    5   22 1
    12    6   23 1
    13    7    8 1
    14    7   24 1
    15    7   25 1
    16    8    9 1
    17    9   10 2
    18    9   11 1
    19   11   12 2
    20   11   26 1
    21   12   13 1
    22   12   27 1
    23   13   18 ar
    24   13   14 ar
    25   14   15 ar
    26   14   28 1
    27   15   16 ar
    28   15   29 1
    29   16   17 ar
    30   16   30 1
    31   17   18 ar
    32   17   31 1
    33   18   32 1
@<TRIPOS>MOLECULE
ZINC05772116
   39    41     0     0     0
SMALL
USER_CHARGES

@<TRIPOS>ATOM
      1 C1         -0.0167    1.3798    0.0096 C.ar      1 <0>        -0.1022
      2 C2          1.1681    2.0953    0.0022 C.ar      1 <0>        -0.1239
      3 C3          2.3774    1.4332   -0.0134 C.ar      1 <0>        -0.0895
      4 C4          2.4048    0.0350   -0.0211 C.ar      1 <0>        -0.0862
      5 C5          1.2033   -0.6808   -0.0130 C.ar      1 <0>        -0.0956
      6 C6          0.0021   -0.0041    0.0020 C.ar      1 <0>        -0.1227
      7 C7          3.6914   -0.6796   -0.0381 C.2       1 <0>         0.0009
      8 C8          3.7138   -2.0285   -0.0455 C.2       1 <0>        -0.1977
      9 C9          4.9921   -2.7385   -0.0625 C.2       1 <0>         0.4991
     10 O1          6.0351   -2.1129   -0.0699 O.2       1 <0>        -0.5105
     11 O2          5.0145   -4.0873   -0.0699 O.3       1 <0>        -0.3408
     12 C10         6.2983   -4.7148   -0.0864 C.3       1 <0>         0.0462
     13 C11         6.1230   -6.2347   -0.0927 C.3       1 <0>         0.1150
     14 N1          5.4744   -6.6463   -1.3401 N.am      1 <0>        -0.5772
     15 C12         4.1434   -6.7420   -1.5104 C.2       1 <0>         0.5760
     16 O3          3.3021   -6.5052   -0.6672 O.2       1 <0>        -0.4463
     17 C13         3.8763   -7.1837   -2.8955 C.ar      1 <0>        -0.1393
     18 C14         2.7264   -7.4477   -3.6222 C.ar      1 <0>        -0.0449
     19 C15         2.8270   -7.8574   -4.9426 C.ar      1 <0>        -0.0939
     20 C16         4.0657   -8.0042   -5.5383 C.ar      1 <0>        -0.0956
     21 C17         5.2244   -7.7437   -4.8236 C.ar      1 <0>        -0.0436
     22 C18         5.1393   -7.3334   -3.5029 C.ar      1 <0>        -0.1428
     23 C19         6.1311   -6.9728   -2.4679 C.2       1 <0>         0.5742
     24 O4          7.3371   -6.9731   -2.6111 O.2       1 <0>        -0.4614
     25 H1         -0.9607    1.9042    0.0260 H         1 <0>         0.1265
     26 H2          1.1452    3.1751    0.0081 H         1 <0>         0.1284
     27 H3          3.3011    1.9929   -0.0199 H         1 <0>         0.1297
     28 H4          1.2164   -1.7607   -0.0192 H         1 <0>         0.1303
     29 H5         -0.9266   -0.5553    0.0082 H         1 <0>         0.1284
     30 H6          4.6175   -0.1241   -0.0447 H         1 <0>         0.1390
     31 H7          2.7876   -2.5840   -0.0390 H         1 <0>         0.1434
     32 H8          6.8412   -4.4079   -0.9804 H         1 <0>         0.0765
     33 H9          6.8595   -4.4174    0.7994 H         1 <0>         0.0924
     34 H10         7.0993   -6.7133   -0.0157 H         1 <0>         0.1224
     35 H11         5.5046   -6.5326    0.7539 H         1 <0>         0.1118
     36 H12         1.7560   -7.3350   -3.1618 H         1 <0>         0.1433
     37 H13         1.9313   -8.0637   -5.5097 H         1 <0>         0.1437
     38 H14         4.1311   -8.3244   -6.5677 H         1 <0>         0.1437
     39 H15         6.1895   -7.8605   -5.2941 H         1 <0>         0.1430
@<TRIPOS>BOND
     1    1    6 ar
     2    1    2 ar
     3    1   25 1
     4    2    3 ar
     5    2   26 1
     6    3    4 ar
     7    3   27 1
     8    4    5 ar
     9    4    7 1
    10    5    6 ar
    11    5   28 1
    12    6   29 1
    13    7    8 2
    14    7   30 1
    15    8    9 1
    16    8   31 1
    17    9   10 2
    18    9   11 1
    19   11   12 1
    20   12   13 1
    21   12   32 1
    22   12   33 1
    23   13   14 1
    24   13   34 1
    25   13   35 1
    26   14   23 am
    27   14   15 am
    28   15   16 2
    29   15   17 1
    30   17   22 ar
    31   17   18 ar
    32   18   19 ar
    33   18   36 1
    34   19   20 ar
    35   19   37 1
    36   20   21 ar
    37   20   38 1
    38   21   22 ar
    39   21   39 1
    40   22   23 1
    41   23   24 2
