@<TRIPOS>MOLECULE
ZINC05458899
   58    60     0     0     0
SMALL
USER_CHARGES
N-[1-(2-hydroxy-2-phenyl-ethyl)-3-methyl-4-piperidyl]-N-phenyl-propanamide
@<TRIPOS>ATOM
      1 C1         -1.8914    2.2663   -0.2325 C.3       1 <0>        -0.1399
      2 C2         -0.5688    2.9834   -0.5106 C.3       1 <0>        -0.1460
      3 C3          0.5586    1.9836   -0.4901 C.2       1 <0>         0.5293
      4 O1          0.3174    0.7997   -0.3843 O.2       1 <0>        -0.5280
      5 N1          1.8346    2.4046   -0.5950 N.am      1 <0>        -0.5630
      6 C4          2.1081    3.7556   -0.8358 C.ar      1 <0>         0.1197
      7 C5          1.6812    4.3526   -2.0148 C.ar      1 <0>        -0.1220
      8 C6          1.9473    5.6878   -2.2467 C.ar      1 <0>        -0.0995
      9 C7          2.6483    6.4272   -1.3117 C.ar      1 <0>        -0.1093
     10 C8          3.0801    5.8342   -0.1395 C.ar      1 <0>        -0.1016
     11 C9          2.8118    4.5009    0.1012 C.ar      1 <0>        -0.1224
     12 C10         2.9354    1.4478   -0.4568 C.3       1 <0>         0.1475
     13 H1          3.8869    1.9756   -0.5203 H         1 <0>         0.1047
     14 C11         2.8318    0.7407    0.8973 C.3       1 <0>        -0.1700
     15 C12         3.9470   -0.3014    1.0097 C.3       1 <0>         0.0058
     16 C13         3.9675   -0.6245   -1.3918 C.3       1 <0>        -0.0012
     17 C14         2.8520    0.4068   -1.5766 C.3       1 <0>        -0.1319
     18 H2          1.8842   -0.0931   -1.5374 H         1 <0>         0.1190
     19 C15         3.0157    1.0992   -2.9311 C.3       1 <0>        -0.1455
     20 C16         4.7930   -2.3668    0.0722 C.3       1 <0>        -0.0371
     21 C17         4.5705   -3.4066   -1.0278 C.3       1 <0>         0.1331
     22 H3          4.6071   -2.9186   -2.0018 H         1 <0>         0.1291
     23 C18         5.6484   -4.4571   -0.9515 C.ar      1 <0>        -0.1418
     24 C19         5.5103   -5.5276   -0.0879 C.ar      1 <0>        -0.1067
     25 C20         6.4965   -6.4940   -0.0218 C.ar      1 <0>        -0.1107
     26 C21         7.6261   -6.3838   -0.8110 C.ar      1 <0>        -0.0997
     27 C22         7.7666   -5.3106   -1.6708 C.ar      1 <0>        -0.1119
     28 C23         6.7777   -4.3472   -1.7411 C.ar      1 <0>        -0.1035
     29 O2          3.2928   -4.0214   -0.8507 O.3       1 <0>        -0.5460
     30 H4         -2.7069    2.9895   -0.2473 H         1 <0>         0.0680
     31 H5         -2.0627    1.5099   -0.9985 H         1 <0>         0.0641
     32 H6         -1.8471    1.7887    0.7462 H         1 <0>         0.0607
     33 H7         -0.3976    3.7398    0.2554 H         1 <0>         0.0963
     34 H8         -0.6132    3.4610   -1.4893 H         1 <0>         0.0995
     35 H9          1.1379    3.7744   -2.7475 H         1 <0>         0.1258
     36 H10         1.6114    6.1539   -3.1612 H         1 <0>         0.1331
     37 H11         2.8587    7.4701   -1.4972 H         1 <0>         0.1316
     38 H12         3.6273    6.4143    0.5888 H         1 <0>         0.1318
     39 H13         3.1487    4.0385    1.0172 H         1 <0>         0.1239
     40 H14         2.9340    1.4724    1.6987 H         1 <0>         0.1130
     41 H15         1.8636    0.2462    0.9765 H         1 <0>         0.1117
     42 H16         3.8668   -0.8174    1.9665 H         1 <0>         0.1323
     43 H17         4.9150    0.1956    0.9454 H         1 <0>         0.1309
     44 H18         3.9022   -1.3752   -2.1794 H         1 <0>         0.1334
     45 H19         4.9354   -0.1260   -1.4449 H         1 <0>         0.1314
     46 H20         3.9845    1.5972   -2.9698 H         1 <0>         0.0656
     47 H21         2.9563    0.3577   -3.7278 H         1 <0>         0.0704
     48 H22         2.2230    1.8360   -3.0606 H         1 <0>         0.0737
     49 H23         5.8046   -1.9680   -0.0040 H         1 <0>         0.1428
     50 H24         4.6597   -2.8353    1.0474 H         1 <0>         0.1344
     51 H25         4.6300   -5.6111    0.5322 H         1 <0>         0.1224
     52 H26         6.3866   -7.3326    0.6498 H         1 <0>         0.1317
     53 H27         8.3987   -7.1365   -0.7560 H         1 <0>         0.1318
     54 H28         8.6491   -5.2246   -2.2873 H         1 <0>         0.1319
     55 H29         6.8877   -3.5085   -2.4126 H         1 <0>         0.1260
     56 H30         3.1889   -4.4757   -0.0035 H         1 <0>         0.3882
     57 N2          3.7960   -1.2873   -0.0817 N.4       1 <0>        -0.3917
     58 H31         2.8544   -1.6941   -0.0350 H         1 <0>         0.4350
@<TRIPOS>BOND
     1    1    2 1
     2    1   30 1
     3    1   31 1
     4    1   32 1
     5    2    3 1
     6    2   33 1
     7    2   34 1
     8    3    4 2
     9    3    5 am
    10    5    6 1
    11    5   12 1
    12    6   11 ar
    13    6    7 ar
    14    7    8 ar
    15    7   35 1
    16    8    9 ar
    17    8   36 1
    18    9   10 ar
    19    9   37 1
    20   10   11 ar
    21   10   38 1
    22   11   39 1
    23   12   13 1
    24   12   17 1
    25   12   14 1
    26   14   15 1
    27   14   40 1
    28   14   41 1
    29   15   42 1
    30   15   43 1
    31   15   57 1
    32   16   17 1
    33   16   44 1
    34   16   45 1
    35   16   57 1
    36   17   18 1
    37   17   19 1
    38   19   46 1
    39   19   47 1
    40   19   48 1
    41   20   21 1
    42   20   49 1
    43   20   50 1
    44   20   57 1
    45   21   22 1
    46   21   23 1
    47   21   29 1
    48   23   28 ar
    49   23   24 ar
    50   24   25 ar
    51   24   51 1
    52   25   26 ar
    53   25   52 1
    54   26   27 ar
    55   26   53 1
    56   27   28 ar
    57   27   54 1
    58   28   55 1
    59   29   56 1
    60   57   58 1
@<TRIPOS>MOLECULE
ZINC03802871
   58    65     0     0     0
SMALL
USER_CHARGES

@<TRIPOS>ATOM
      1 C1         -0.1787    1.3963    0.6547 C.ar      1 <0>        -0.1414
      2 C2          0.9728    2.1631    0.5824 C.ar      1 <0>        -0.0890
      3 C3          2.2258    1.5999    0.4142 C.ar      1 <0>        -0.1279
      4 C4          2.2859    0.2109    0.3195 C.ar      1 <0>         0.1099
      5 C5          1.1035   -0.5694    0.3934 C.ar      1 <0>        -0.1040
      6 C6         -0.1499    0.0266    0.5636 C.ar      1 <0>        -0.0690
      7 C7          1.5272   -1.9471    0.2600 C.2       1 <0>        -0.1416
      8 C8          2.8698   -1.9430    0.1215 C.2       1 <0>         0.0479
      9 N1          3.3313   -0.6509    0.1562 N.pl3     1 <0>        -0.5699
     10 H1          4.2619   -0.3893    0.0767 H         1 <0>         0.4203
     11 C9          3.7090   -3.1833   -0.0427 C.3       1 <0>         0.1683
     12 H2          4.5253   -3.2040    0.6793 H         1 <0>         0.1385
     13 C10         2.8539   -4.4413    0.0546 C.3       1 <0>        -0.0264
     14 C11         3.6747   -5.6375    0.5294 C.3       1 <0>        -0.1248
     15 C12         2.8403   -6.9102    0.3481 C.3       1 <0>        -0.0083
     16 N2          1.5888   -6.7900    1.1042 N.4       1 <0>        -0.3731
     17 C13         0.7919   -5.6659    0.6064 C.3       1 <0>         0.0054
     18 H3         -0.1248   -5.6260    1.1949 H         1 <0>         0.1447
     19 C14         1.5496   -4.3510    0.8352 C.3       1 <0>         0.1508
     20 C15         0.6852   -3.1963    0.2658 C.3       1 <0>        -0.0639
     21 O1          1.8215   -4.1764    2.2272 O.3       1 <0>        -0.5343
     22 C16         0.3994   -5.8867   -0.8449 C.3       1 <0>        -0.0912
     23 C17         1.3583   -5.2881   -1.8218 C.ar      1 <0>        -0.0541
     24 C18         2.4439   -4.6354   -1.3838 C.ar      1 <0>        -0.1636
     25 C19         3.3196   -3.9124   -2.1787 C.ar      1 <0>         0.0971
     26 C20         3.1491   -3.9765   -3.5672 C.ar      1 <0>         0.1099
     27 C21         2.0807   -4.7357   -4.0387 C.ar      1 <0>        -0.0939
     28 C22         1.2266   -5.3471   -3.1978 C.ar      1 <0>        -0.1178
     29 O2          3.9886   -3.3265   -4.4170 O.3       1 <0>        -0.4798
     30 O3          4.2102   -3.2159   -1.4071 O.3       1 <0>        -0.2775
     31 C23         0.8164   -8.0315    0.9629 C.3       1 <0>         0.0189
     32 C24         1.5621   -9.1771    1.6501 C.3       1 <0>        -0.2105
     33 C25         2.0486  -10.3311    0.7711 C.3       1 <0>        -0.1681
     34 C26         0.8628  -10.5364    1.7158 C.3       1 <0>        -0.1476
     35 H4         -1.1288    1.8913    0.7915 H         1 <0>         0.1236
     36 H5          0.8898    3.2371    0.6595 H         1 <0>         0.1275
     37 H6          3.1159    2.2089    0.3585 H         1 <0>         0.1328
     38 H7         -1.0530   -0.5629    0.6211 H         1 <0>         0.1285
     39 H8          4.5878   -5.7118   -0.0613 H         1 <0>         0.1185
     40 H9          3.9271   -5.5128    1.5824 H         1 <0>         0.1083
     41 H10         2.6138   -7.0482   -0.7091 H         1 <0>         0.1318
     42 H11         3.4039   -7.7688    0.7132 H         1 <0>         0.1394
     43 H12        -0.1813   -3.0510    0.9109 H         1 <0>         0.0907
     44 H13         0.3565   -3.4213   -0.7488 H         1 <0>         0.1001
     45 H14         1.0291   -4.1120    2.7777 H         1 <0>         0.3942
     46 H15         0.3369   -6.9590   -1.0299 H         1 <0>         0.1059
     47 H16        -0.5853   -5.4493   -1.0102 H         1 <0>         0.1283
     48 H17         1.9459   -4.8247   -5.1065 H         1 <0>         0.1471
     49 H18         0.4150   -5.9082   -3.6368 H         1 <0>         0.1336
     50 H19         4.7521   -3.8515   -4.6937 H         1 <0>         0.3978
     51 H20        -0.1621   -7.9053    1.4263 H         1 <0>         0.1355
     52 H21         0.6904   -8.2626   -0.0948 H         1 <0>         0.1320
     53 H22         2.1865   -8.8909    2.4965 H         1 <0>         0.1255
     54 H23         1.8374  -10.2741   -0.2967 H         1 <0>         0.1058
     55 H24         2.9933  -10.8042    1.0390 H         1 <0>         0.1104
     56 H25         1.0273  -11.1445    2.6053 H         1 <0>         0.1126
     57 H26        -0.1286  -10.6144    1.2696 H         1 <0>         0.1079
     58 H27         1.8022   -6.6407    2.0790 H         1 <0>         0.4282
@<TRIPOS>BOND
     1    1    6 ar
     2    1    2 ar
     3    1   35 1
     4    2    3 ar
     5    2   36 1
     6    3    4 ar
     7    3   37 1
     8    4    9 1
     9    4    5 ar
    10    5    6 ar
    11    5    7 1
    12    6   38 1
    13    7   20 1
    14    7    8 2
    15    8    9 1
    16    8   11 1
    17    9   10 1
    18   11   12 1
    19   11   30 1
    20   11   13 1
    21   13   19 1
    22   13   24 1
    23   13   14 1
    24   14   15 1
    25   14   39 1
    26   14   40 1
    27   15   16 1
    28   15   41 1
    29   15   42 1
    30   16   17 1
    31   16   31 1
    32   16   58 1
    33   17   18 1
    34   17   19 1
    35   17   22 1
    36   19   20 1
    37   19   21 1
    38   20   43 1
    39   20   44 1
    40   21   45 1
    41   22   23 1
    42   22   46 1
    43   22   47 1
    44   23   28 ar
    45   23   24 ar
    46   24   25 ar
    47   25   26 ar
    48   25   30 1
    49   26   27 ar
    50   26   29 1
    51   27   28 ar
    52   27   48 1
    53   28   49 1
    54   29   50 1
    55   31   32 1
    56   31   51 1
    57   31   52 1
    58   32   34 1
    59   32   33 1
    60   32   53 1
    61   33   34 1
    62   33   54 1
    63   33   55 1
    64   34   56 1
    65   34   57 1
@<TRIPOS>MOLECULE
ZINC22066510
   73    75     0     0     0
SMALL
USER_CHARGES

@<TRIPOS>ATOM
      1 C1          2.4910   -1.6080   -3.8112 C.3       1 <0>        -0.1682
      2 C2          1.7409   -0.5348   -3.0198 C.3       1 <0>         0.1082
      3 N1          0.4296   -1.0506   -2.6189 N.am      1 <0>        -0.6052
      4 C3          0.2957   -1.8338   -1.3881 C.3       1 <0>         0.0959
      5 C4          0.2625   -0.8901   -0.1842 C.3       1 <0>        -0.1789
      6 C5         -0.6534   -0.8047   -3.3824 C.2       1 <0>         0.5551
      7 O1         -0.5330   -0.2052   -4.4329 O.2       1 <0>        -0.5297
      8 C6         -1.9880   -1.2642   -2.9423 C.ar      1 <0>        -0.1172
      9 C7         -2.3958   -1.0698   -1.6217 C.ar      1 <0>        -0.0965
     10 C8         -3.6425   -1.5005   -1.2175 C.ar      1 <0>        -0.1206
     11 C9         -4.4878   -2.1244   -2.1179 C.ar      1 <0>        -0.0559
     12 C10        -4.0894   -2.3205   -3.4283 C.ar      1 <0>        -0.0954
     13 C11        -2.8477   -1.8890   -3.8470 C.ar      1 <0>        -0.0706
     14 C12        -5.8481   -2.5927   -1.6693 C.3       1 <0>         0.1758
     15 H1         -6.1289   -2.0701   -0.7549 H         1 <0>         0.0736
     16 C13        -5.8075   -4.0763   -1.4077 C.ar      1 <0>        -0.0583
     17 C14        -5.6865   -4.9609   -2.4637 C.ar      1 <0>        -0.1407
     18 C15        -5.6490   -6.3224   -2.2271 C.ar      1 <0>        -0.0770
     19 C16        -5.7329   -6.8027   -0.9343 C.ar      1 <0>        -0.1994
     20 C17        -5.8544   -5.9174    0.1266 C.ar      1 <0>         0.1361
     21 C18        -5.8856   -4.5511   -0.1130 C.ar      1 <0>        -0.1429
     22 O2         -5.9370   -6.3873    1.3991 O.3       1 <0>        -0.3155
     23 C19        -5.8925   -7.8052    1.5713 C.3       1 <0>         0.0249
     24 N2         -6.8351   -2.3074   -2.7192 N.3       1 <0>        -0.5260
     25 C20        -8.0333   -3.1429   -2.5568 C.3       1 <0>         0.0231
     26 C21        -9.0086   -2.8586   -3.7012 C.3       1 <0>         0.0323
     27 H2         -8.5345   -3.1030   -4.6518 H         1 <0>         0.1445
     28 N3         -9.3769   -1.4368   -3.6891 N.4       1 <0>        -0.3828
     29 C22        -8.1734   -0.6159   -3.8768 C.3       1 <0>         0.0016
     30 C23        -7.1911   -0.8815   -2.7339 C.3       1 <0>         0.0643
     31 H3         -7.6558   -0.6128   -1.7852 H         1 <0>         0.0669
     32 C24        -5.9286   -0.0422   -2.9404 C.3       1 <0>        -0.1606
     33 C25       -10.3271   -1.1681   -4.7766 C.3       1 <0>         0.0243
     34 C26       -10.7993    0.2604   -4.6897 C.2       1 <0>        -0.2350
     35 C27       -10.6767    1.0549   -5.7241 C.2       1 <0>        -0.1053
     36 C28       -10.2657   -3.7125   -3.5238 C.3       1 <0>        -0.1832
     37 H4          2.6235   -2.4927   -3.1884 H         1 <0>         0.0561
     38 H5          1.9172   -1.8718   -4.6997 H         1 <0>         0.0586
     39 H6          3.4666   -1.2242   -4.1095 H         1 <0>         0.0703
     40 H7          2.3147   -0.2710   -2.1314 H         1 <0>         0.0793
     41 H8          1.6084    0.3499   -3.6427 H         1 <0>         0.0876
     42 H9         -0.6286   -2.4105   -1.4232 H         1 <0>         0.0867
     43 H10         1.1438   -2.5120   -1.2949 H         1 <0>         0.0813
     44 H11         1.2763   -0.5666    0.0519 H         1 <0>         0.0652
     45 H12        -0.3505   -0.0205   -0.4210 H         1 <0>         0.0640
     46 H13        -0.1618   -1.4110    0.6741 H         1 <0>         0.0725
     47 H14        -1.7367   -0.5837   -0.9177 H         1 <0>         0.1429
     48 H15        -3.9594   -1.3508   -0.1959 H         1 <0>         0.1276
     49 H16        -4.7538   -2.8085   -4.1262 H         1 <0>         0.1342
     50 H17        -2.5399   -2.0384   -4.8714 H         1 <0>         0.1309
     51 H18        -5.6215   -4.5875   -3.4750 H         1 <0>         0.1305
     52 H19        -5.5545   -7.0113   -3.0535 H         1 <0>         0.1294
     53 H20        -5.7043   -7.8665   -0.7501 H         1 <0>         0.1321
     54 H21        -5.9754   -3.8596    0.7117 H         1 <0>         0.1302
     55 H22        -4.9515   -8.1896    1.1776 H         1 <0>         0.0594
     56 H23        -5.9676   -8.0450    2.6319 H         1 <0>         0.1059
     57 H24        -6.7243   -8.2626    1.0356 H         1 <0>         0.0581
     58 H25        -7.7483   -4.1948   -2.5747 H         1 <0>         0.1343
     59 H26        -8.5118   -2.9115   -1.6052 H         1 <0>         0.0619
     60 H27        -7.7036   -0.8717   -4.8265 H         1 <0>         0.1367
     61 H28        -8.4498    0.4385   -3.8807 H         1 <0>         0.1360
     62 H29        -5.3719   -0.4275   -3.7946 H         1 <0>         0.0844
     63 H30        -6.2082    0.9948   -3.1267 H         1 <0>         0.0700
     64 H31        -5.3065   -0.0959   -2.0470 H         1 <0>         0.0838
     65 H32        -9.8365   -1.3308   -5.7363 H         1 <0>         0.1301
     66 H33       -11.1813   -1.8392   -4.6869 H         1 <0>         0.1384
     67 H34       -11.2387    0.6292   -3.7746 H         1 <0>         0.1330
     68 H35       -10.2373    0.6861   -6.6391 H         1 <0>         0.1115
     69 H36       -11.0151    2.0786   -5.6617 H         1 <0>         0.1228
     70 H37       -10.7398   -3.4682   -2.5732 H         1 <0>         0.0809
     71 H38       -10.9604   -3.5101   -4.3390 H         1 <0>         0.0860
     72 H39        -9.9925   -4.7677   -3.5330 H         1 <0>         0.1076
     73 H40        -9.8052   -1.2080   -2.8046 H         1 <0>         0.4183
@<TRIPOS>BOND
     1    1    2 1
     2    1   37 1
     3    1   38 1
     4    1   39 1
     5    2    3 1
     6    2   40 1
     7    2   41 1
     8    3    4 1
     9    3    6 am
    10    4    5 1
    11    4   42 1
    12    4   43 1
    13    5   44 1
    14    5   45 1
    15    5   46 1
    16    6    7 2
    17    6    8 1
    18    8   13 ar
    19    8    9 ar
    20    9   10 ar
    21    9   47 1
    22   10   11 ar
    23   10   48 1
    24   11   12 ar
    25   11   14 1
    26   12   13 ar
    27   12   49 1
    28   13   50 1
    29   14   15 1
    30   14   16 1
    31   14   24 1
    32   16   21 ar
    33   16   17 ar
    34   17   18 ar
    35   17   51 1
    36   18   19 ar
    37   18   52 1
    38   19   20 ar
    39   19   53 1
    40   20   21 ar
    41   20   22 1
    42   21   54 1
    43   22   23 1
    44   23   55 1
    45   23   56 1
    46   23   57 1
    47   24   30 1
    48   24   25 1
    49   25   26 1
    50   25   58 1
    51   25   59 1
    52   26   27 1
    53   26   28 1
    54   26   36 1
    55   28   29 1
    56   28   33 1
    57   28   73 1
    58   29   30 1
    59   29   60 1
    60   29   61 1
    61   30   31 1
    62   30   32 1
    63   32   62 1
    64   32   63 1
    65   32   64 1
    66   33   34 1
    67   33   65 1
    68   33   66 1
    69   34   35 2
    70   34   67 1
    71   35   68 1
    72   35   69 1
    73   36   70 1
    74   36   71 1
    75   36   72 1
@<TRIPOS>MOLECULE
ZINC22066510
   73    75     0     0     0
SMALL
USER_CHARGES

@<TRIPOS>ATOM
      1 C1          2.0818   -4.4766    3.2676 C.3       1 <0>        -0.1689
      2 C2          1.7388   -3.0977    2.7003 C.3       1 <0>         0.1074
      3 N1          2.1743   -3.0222    1.3035 N.am      1 <0>        -0.6022
      4 C3          1.3002   -3.5147    0.2360 C.3       1 <0>         0.0926
      5 C4          0.2008   -2.4865   -0.0380 C.3       1 <0>        -0.1804
      6 C5          3.3792   -2.4997    1.0006 C.2       1 <0>         0.5507
      7 O1          4.1293   -2.1464    1.8895 O.2       1 <0>        -0.5215
      8 C6          3.7885   -2.3561   -0.4128 C.ar      1 <0>        -0.0969
      9 C7          2.8877   -1.8598   -1.3564 C.ar      1 <0>        -0.0885
     10 C8          3.2762   -1.7279   -2.6736 C.ar      1 <0>        -0.0986
     11 C9          4.5553   -2.0868   -3.0600 C.ar      1 <0>        -0.0985
     12 C10         5.4529   -2.5799   -2.1298 C.ar      1 <0>        -0.1217
     13 C11         5.0792   -2.7110   -0.8082 C.ar      1 <0>        -0.0542
     14 C12         4.9725   -1.9405   -4.5007 C.3       1 <0>         0.1312
     15 H1          4.2422   -1.3285   -5.0301 H         1 <0>         0.1530
     16 C13         5.0470   -3.3018   -5.1429 C.ar      1 <0>        -0.0894
     17 C14         6.1536   -4.1045   -4.9342 C.ar      1 <0>        -0.1656
     18 C15         6.2249   -5.3537   -5.5218 C.ar      1 <0>        -0.0582
     19 C16         5.1905   -5.8032   -6.3198 C.ar      1 <0>        -0.1869
     20 C17         4.0794   -5.0000   -6.5308 C.ar      1 <0>         0.1493
     21 C18         4.0075   -3.7489   -5.9349 C.ar      1 <0>        -0.1219
     22 O2          3.0606   -5.4398   -7.3152 O.3       1 <0>        -0.3093
     23 C19         3.2001   -6.7401   -7.8913 C.3       1 <0>         0.0219
     24 N2          6.2908   -1.2956   -4.5657 N.4       1 <0>        -0.3815
     25 C20         6.7880   -1.3363   -5.9472 C.3       1 <0>        -0.0063
     26 C21         8.1695   -0.6815   -6.0119 C.3       1 <0>         0.0612
     27 H2          8.8619   -1.2291   -5.3726 H         1 <0>         0.0642
     28 N3          8.0710    0.7101   -5.5492 N.3       1 <0>        -0.5312
     29 C22         7.5510    0.7680   -4.1758 C.3       1 <0>         0.0332
     30 C23         6.1745    0.1011   -4.1263 C.3       1 <0>         0.0365
     31 H3          5.4890    0.6335   -4.7856 H         1 <0>         0.1458
     32 C24         5.6392    0.1421   -2.6935 C.3       1 <0>        -0.1984
     33 C25         9.3686    1.3914   -5.6500 C.3       1 <0>         0.0780
     34 C26         9.1817    2.8666   -5.4050 C.2       1 <0>        -0.1649
     35 C27         9.8791    3.4695   -4.4743 C.2       1 <0>        -0.1715
     36 C28         8.6788   -0.7055   -7.4544 C.3       1 <0>        -0.1519
     37 H4          3.1591   -4.6339    3.2139 H         1 <0>         0.0588
     38 H5          1.7578   -4.5328    4.3068 H         1 <0>         0.0724
     39 H6          1.5730   -5.2455    2.6863 H         1 <0>         0.0568
     40 H7          0.6616   -2.9404    2.7540 H         1 <0>         0.0820
     41 H8          2.2477   -2.3288    3.2816 H         1 <0>         0.0896
     42 H9          1.8857   -3.6709   -0.6700 H         1 <0>         0.0853
     43 H10         0.8475   -4.4576    0.5431 H         1 <0>         0.0843
     44 H11        -0.3007   -2.7316   -0.9742 H         1 <0>         0.0751
     45 H12        -0.5230   -2.5026    0.7769 H         1 <0>         0.0685
     46 H13         0.6428   -1.4929   -0.1118 H         1 <0>         0.0633
     47 H14         1.8888   -1.5799   -1.0561 H         1 <0>         0.1541
     48 H15         2.5802   -1.3439   -3.4047 H         1 <0>         0.1427
     49 H16         6.4498   -2.8586   -2.4380 H         1 <0>         0.1243
     50 H17         5.7823   -3.0914   -0.0821 H         1 <0>         0.1428
     51 H18         6.9635   -3.7546   -4.3113 H         1 <0>         0.1167
     52 H19         7.0902   -5.9788   -5.3573 H         1 <0>         0.1385
     53 H20         5.2470   -6.7790   -6.7793 H         1 <0>         0.1409
     54 H21         3.1414   -3.1236   -6.0937 H         1 <0>         0.1422
     55 H22         4.0878   -6.7641   -8.5234 H         1 <0>         0.0622
     56 H23         3.2992   -7.4804   -7.0975 H         1 <0>         0.0621
     57 H24         2.3198   -6.9675   -8.4925 H         1 <0>         0.1108
     58 H25         6.8614   -2.3728   -6.2765 H         1 <0>         0.1408
     59 H26         6.0993   -0.7966   -6.5972 H         1 <0>         0.1402
     60 H27         8.2331    0.2441   -3.5062 H         1 <0>         0.0587
     61 H28         7.4623    1.8086   -3.8640 H         1 <0>         0.1262
     62 H29         6.1642   -0.5969   -2.0883 H         1 <0>         0.0840
     63 H30         5.7995    1.1354   -2.2741 H         1 <0>         0.1007
     64 H31         4.5727   -0.0829   -2.6975 H         1 <0>         0.0994
     65 H32        10.0521    0.9832   -4.9055 H         1 <0>         0.0490
     66 H33         9.7830    1.2382   -6.6464 H         1 <0>         0.1013
     67 H34         8.4728    3.4267   -5.9967 H         1 <0>         0.1193
     68 H35         9.7451    4.5267   -4.2988 H         1 <0>         0.1067
     69 H36        10.5880    2.9094   -3.8826 H         1 <0>         0.0969
     70 H37         7.9867   -0.1570   -8.0933 H         1 <0>         0.0789
     71 H38         9.6629   -0.2390   -7.5001 H         1 <0>         0.0796
     72 H39         8.7498   -1.7377   -7.7975 H         1 <0>         0.0752
     73 H40         6.9346   -1.7852   -3.9624 H         1 <0>         0.4129
@<TRIPOS>BOND
     1    1    2 1
     2    1   37 1
     3    1   38 1
     4    1   39 1
     5    2    3 1
     6    2   40 1
     7    2   41 1
     8    3    4 1
     9    3    6 am
    10    4    5 1
    11    4   42 1
    12    4   43 1
    13    5   44 1
    14    5   45 1
    15    5   46 1
    16    6    7 2
    17    6    8 1
    18    8   13 ar
    19    8    9 ar
    20    9   10 ar
    21    9   47 1
    22   10   11 ar
    23   10   48 1
    24   11   12 ar
    25   11   14 1
    26   12   13 ar
    27   12   49 1
    28   13   50 1
    29   14   15 1
    30   14   16 1
    31   14   24 1
    32   16   21 ar
    33   16   17 ar
    34   17   18 ar
    35   17   51 1
    36   18   19 ar
    37   18   52 1
    38   19   20 ar
    39   19   53 1
    40   20   21 ar
    41   20   22 1
    42   21   54 1
    43   22   23 1
    44   23   55 1
    45   23   56 1
    46   23   57 1
    47   24   30 1
    48   24   25 1
    49   24   73 1
    50   25   26 1
    51   25   58 1
    52   25   59 1
    53   26   27 1
    54   26   28 1
    55   26   36 1
    56   28   29 1
    57   28   33 1
    58   29   30 1
    59   29   60 1
    60   29   61 1
    61   30   31 1
    62   30   32 1
    63   32   62 1
    64   32   63 1
    65   32   64 1
    66   33   34 1
    67   33   65 1
    68   33   66 1
    69   34   35 2
    70   34   67 1
    71   35   68 1
    72   35   69 1
    73   36   70 1
    74   36   71 1
    75   36   72 1
@<TRIPOS>MOLECULE
ZINC22066510
   72    74     0     0     0
SMALL
USER_CHARGES

@<TRIPOS>ATOM
      1 C1          2.1295   -1.3205    3.8951 C.3       1 <0>        -0.1676
      2 C2          1.6862   -0.2597    2.8856 C.3       1 <0>         0.1092
      3 N1          1.9679   -0.7304    1.5272 N.am      1 <0>        -0.6081
      4 C3          0.9979   -1.5784    0.8299 C.3       1 <0>         0.0967
      5 C4         -0.1181   -0.7066    0.2506 C.3       1 <0>        -0.1783
      6 C5          3.1194   -0.3832    0.9190 C.2       1 <0>         0.5598
      7 O1          3.9442    0.2827    1.5138 O.2       1 <0>        -0.5325
      8 C6          3.3794   -0.8123   -0.4717 C.ar      1 <0>        -0.1298
      9 C7          2.3801   -0.6969   -1.4393 C.ar      1 <0>        -0.1006
     10 C8          2.6294   -1.0987   -2.7353 C.ar      1 <0>        -0.1242
     11 C9          3.8665   -1.6156   -3.0767 C.ar      1 <0>        -0.0371
     12 C10         4.8613   -1.7331   -2.1223 C.ar      1 <0>        -0.0925
     13 C11         4.6271   -1.3292   -0.8241 C.ar      1 <0>        -0.0713
     14 C12         4.1316   -2.0530   -4.4943 C.3       1 <0>         0.1647
     15 H1          3.4074   -1.5841   -5.1606 H         1 <0>         0.0639
     16 C13         4.0051   -3.5516   -4.5896 C.ar      1 <0>        -0.0412
     17 C14         4.9574   -4.3641   -4.0020 C.ar      1 <0>        -0.1310
     18 C15         4.8442   -5.7392   -4.0876 C.ar      1 <0>        -0.0815
     19 C16         3.7789   -6.3052   -4.7612 C.ar      1 <0>        -0.2053
     20 C17         2.8223   -5.4925   -5.3515 C.ar      1 <0>         0.1287
     21 C18         2.9349   -4.1126   -5.2589 C.ar      1 <0>        -0.1432
     22 O2          1.7735   -6.0468   -6.0145 O.3       1 <0>        -0.3178
     23 C19         1.7188   -7.4739   -6.0646 C.3       1 <0>         0.0273
     24 N2          5.4891   -1.6503   -4.8853 N.3       1 <0>        -0.5241
     25 C20         5.9518   -2.4191   -6.0491 C.3       1 <0>         0.0580
     26 C21         7.3951   -2.0276   -6.3748 C.3       1 <0>         0.0852
     27 H2          8.0376   -2.2704   -5.5284 H         1 <0>         0.0496
     28 N3          7.4600   -0.5838   -6.6413 N.3       1 <0>        -0.5331
     29 C22         6.9973    0.1850   -5.4774 C.3       1 <0>         0.0660
     30 C23         5.5540   -0.2066   -5.1518 C.3       1 <0>         0.0883
     31 H3          4.9116    0.0362   -5.9982 H         1 <0>         0.0511
     32 C24         5.0830    0.5623   -3.9158 C.3       1 <0>        -0.1581
     33 C25         8.8176   -0.1812   -7.0323 C.3       1 <0>         0.0755
     34 C26         8.7957    1.2405   -7.5316 C.2       1 <0>        -0.1451
     35 C27         9.5853    2.1362   -6.9927 C.2       1 <0>        -0.1908
     36 C28         7.8663   -2.7969   -7.6105 C.3       1 <0>        -0.1491
     37 H4          3.1992   -1.5000    3.7873 H         1 <0>         0.0589
     38 H5          1.9199   -0.9703    4.9058 H         1 <0>         0.0674
     39 H6          1.5853   -2.2468    3.7114 H         1 <0>         0.0553
     40 H7          0.6165   -0.0801    2.9934 H         1 <0>         0.0766
     41 H8          2.2304    0.6667    3.0694 H         1 <0>         0.0863
     42 H9          1.4975   -2.1133    0.0222 H         1 <0>         0.0897
     43 H10         0.5717   -2.2955    1.5315 H         1 <0>         0.0782
     44 H11        -0.6418   -1.2583   -0.5301 H         1 <0>         0.0719
     45 H12        -0.8198   -0.4417    1.0415 H         1 <0>         0.0618
     46 H13         0.3124    0.2011   -0.1723 H         1 <0>         0.0654
     47 H14         1.4137   -0.2943   -1.1739 H         1 <0>         0.1393
     48 H15         1.8570   -1.0100   -3.4850 H         1 <0>         0.1257
     49 H16         5.8248   -2.1377   -2.3952 H         1 <0>         0.1358
     50 H17         5.4060   -1.4169   -0.0812 H         1 <0>         0.1275
     51 H18         5.7913   -3.9236   -3.4757 H         1 <0>         0.1302
     52 H19         5.5893   -6.3716   -3.6279 H         1 <0>         0.1256
     53 H20         3.6913   -7.3796   -4.8285 H         1 <0>         0.1272
     54 H21         2.1889   -3.4777   -5.7135 H         1 <0>         0.1283
     55 H22         1.6675   -7.8713   -5.0509 H         1 <0>         0.0558
     56 H23         0.8348   -7.7843   -6.6217 H         1 <0>         0.1010
     57 H24         2.6123   -7.8546   -6.5593 H         1 <0>         0.0559
     58 H25         5.9063   -3.4844   -5.8227 H         1 <0>         0.0911
     59 H26         5.3139   -2.2015   -6.9057 H         1 <0>         0.0435
     60 H27         7.6353   -0.0327   -4.6209 H         1 <0>         0.0424
     61 H28         7.0429    1.2502   -5.7038 H         1 <0>         0.0816
     62 H29         5.6128    0.1962   -3.0364 H         1 <0>         0.0715
     63 H30         5.2892    1.6244   -4.0482 H         1 <0>         0.0575
     64 H31         4.0114    0.4141   -3.7822 H         1 <0>         0.0661
     65 H32         9.4805   -0.2533   -6.1700 H         1 <0>         0.0380
     66 H33         9.1779   -0.8386   -7.8235 H         1 <0>         0.0892
     67 H34         8.1290    1.5210   -8.3336 H         1 <0>         0.1132
     68 H35        10.2520    1.8558   -6.1907 H         1 <0>         0.0940
     69 H36         9.5696    3.1551   -7.3506 H         1 <0>         0.0994
     70 H37         7.2242   -2.5533   -8.4569 H         1 <0>         0.0644
     71 H38         8.8942   -2.5178   -7.8421 H         1 <0>         0.0605
     72 H39         7.8163   -3.8676   -7.4128 H         1 <0>         0.0621
@<TRIPOS>BOND
     1    1    2 1
     2    1   37 1
     3    1   38 1
     4    1   39 1
     5    2    3 1
     6    2   40 1
     7    2   41 1
     8    3    4 1
     9    3    6 am
    10    4    5 1
    11    4   42 1
    12    4   43 1
    13    5   44 1
    14    5   45 1
    15    5   46 1
    16    6    7 2
    17    6    8 1
    18    8   13 ar
    19    8    9 ar
    20    9   10 ar
    21    9   47 1
    22   10   11 ar
    23   10   48 1
    24   11   12 ar
    25   11   14 1
    26   12   13 ar
    27   12   49 1
    28   13   50 1
    29   14   15 1
    30   14   16 1
    31   14   24 1
    32   16   21 ar
    33   16   17 ar
    34   17   18 ar
    35   17   51 1
    36   18   19 ar
    37   18   52 1
    38   19   20 ar
    39   19   53 1
    40   20   21 ar
    41   20   22 1
    42   21   54 1
    43   22   23 1
    44   23   55 1
    45   23   56 1
    46   23   57 1
    47   24   30 1
    48   24   25 1
    49   25   26 1
    50   25   58 1
    51   25   59 1
    52   26   27 1
    53   26   28 1
    54   26   36 1
    55   28   29 1
    56   28   33 1
    57   29   30 1
    58   29   60 1
    59   29   61 1
    60   30   31 1
    61   30   32 1
    62   32   62 1
    63   32   63 1
    64   32   64 1
    65   33   34 1
    66   33   65 1
    67   33   66 1
    68   34   35 2
    69   34   67 1
    70   35   68 1
    71   35   69 1
    72   36   70 1
    73   36   71 1
    74   36   72 1
@<TRIPOS>MOLECULE
ZINC53147203
   74    75     0     0     0
SMALL
USER_CHARGES

@<TRIPOS>ATOM
      1 C1         -0.0225    1.8097    0.0120 C.3       1 <0>        -0.1211
      2 S1          0.0021   -0.0041    0.0020 S.3       1 <0>        -0.2721
      3 C2         -1.7518   -0.4668    0.0163 C.3       1 <0>        -0.0758
      4 C3         -1.8771   -1.9917    0.0093 C.3       1 <0>        -0.0932
      5 C4         -3.3564   -2.3820    0.0213 C.3       1 <0>         0.0814
      6 H1         -3.8661   -1.9002   -0.8131 H         1 <0>         0.0862
      7 C5         -3.4823   -3.8780   -0.1094 C.2       1 <0>         0.4933
      8 O1         -3.8614   -4.5431    0.8396 O.co2     1 <0>        -0.6829
      9 O2         -3.2050   -4.4233   -1.1640 O.co2     1 <0>        -0.6914
     10 N1         -3.9655   -1.9489    1.2813 N.am      1 <0>        -0.6867
     11 C6         -5.2910   -1.7131    1.3430 C.2       1 <0>         0.5116
     12 O3         -5.9796   -1.8594    0.3554 O.2       1 <0>        -0.5408
     13 C7         -5.9176   -1.2675    2.6392 C.3       1 <0>         0.1412
     14 H2         -5.4677   -0.3265    2.9556 H         1 <0>         0.1113
     15 C8         -5.6812   -2.3321    3.7123 C.3       1 <0>        -0.0910
     16 C9         -6.1992   -1.8339    5.0369 C.ar      1 <0>        -0.0566
     17 C10        -5.3674   -1.1219    5.8808 C.ar      1 <0>        -0.1047
     18 C11        -5.8426   -0.6649    7.0957 C.ar      1 <0>        -0.1131
     19 C12        -7.1497   -0.9194    7.4667 C.ar      1 <0>        -0.1244
     20 C13        -7.9817   -1.6306    6.6224 C.ar      1 <0>        -0.1147
     21 C14        -7.5078   -2.0839    5.4055 C.ar      1 <0>        -0.1103
     22 N2         -7.3576   -1.0799    2.4463 N.am      1 <0>        -0.7022
     23 C15        -8.0409   -0.2388    3.2477 C.2       1 <0>         0.5105
     24 O4         -7.4636    0.3627    4.1285 O.2       1 <0>        -0.5219
     25 C16        -9.5222   -0.0457    3.0493 C.3       1 <0>         0.1012
     26 N3        -10.0269    0.9100    4.0383 N.am      1 <0>        -0.7065
     27 C17       -11.3339    1.2390    4.0517 C.2       1 <0>         0.5121
     28 O5        -12.0921    0.7438    3.2450 O.2       1 <0>        -0.5379
     29 C18       -11.8530    2.2221    5.0690 C.3       1 <0>         0.0991
     30 N4        -13.2931    2.4098    4.8762 N.am      1 <0>        -0.7135
     31 C19       -13.9763    3.2509    5.6775 C.2       1 <0>         0.4823
     32 O6        -13.3990    3.8524    6.5583 O.2       1 <0>        -0.5427
     33 C20       -15.4577    3.4439    5.4791 C.3       1 <0>         0.0845
     34 H3        -15.9216    2.4847    5.2494 H         1 <0>         0.1071
     35 C21       -15.6949    4.4155    4.3212 C.3       1 <0>        -0.0684
     36 C22       -17.1726    4.5139    4.0428 C.ar      1 <0>        -0.0781
     37 C23       -17.7642    3.6487    3.1411 C.ar      1 <0>        -0.1010
     38 C24       -19.1186    3.7372    2.8837 C.ar      1 <0>        -0.1459
     39 C25       -19.8853    4.6950    3.5313 C.ar      1 <0>         0.0996
     40 C26       -19.2895    5.5617    4.4360 C.ar      1 <0>        -0.1467
     41 C27       -17.9356    5.4657    4.6937 C.ar      1 <0>        -0.0735
     42 O7        -21.2178    4.7844    3.2795 O.3       1 <0>        -0.5022
     43 N5        -16.0489    3.9920    6.7072 N.3       1 <0>        -0.8134
     44 H4          1.0001    2.1870    0.0043 H         1 <0>         0.0982
     45 H5         -0.5497    2.1708   -0.8711 H         1 <0>         0.0736
     46 H6         -0.5327    2.1613    0.9088 H         1 <0>         0.0731
     47 H7         -2.2257   -0.0675    0.9130 H         1 <0>         0.0773
     48 H8         -2.2427   -0.0579   -0.8669 H         1 <0>         0.0796
     49 H9         -1.4032   -2.3910   -0.8874 H         1 <0>         0.0924
     50 H10        -1.3862   -2.4006    0.8924 H         1 <0>         0.0733
     51 H11        -3.4147   -1.8318    2.0712 H         1 <0>         0.3931
     52 H12        -6.2058   -3.2473    3.4380 H         1 <0>         0.0871
     53 H13        -4.6134   -2.5358    3.7932 H         1 <0>         0.0920
     54 H14        -4.3462   -0.9231    5.5910 H         1 <0>         0.1165
     55 H15        -5.1925   -0.1092    7.7554 H         1 <0>         0.1148
     56 H16        -7.5207   -0.5629    8.4162 H         1 <0>         0.1128
     57 H17        -9.0029   -1.8298    6.9124 H         1 <0>         0.1114
     58 H18        -8.1590   -2.6364    4.7443 H         1 <0>         0.1104
     59 H19        -7.8194   -1.5610    1.7419 H         1 <0>         0.4134
     60 H20        -9.7075    0.3377    2.0460 H         1 <0>         0.1019
     61 H21       -10.0329   -1.0007    3.1733 H         1 <0>         0.1012
     62 H22        -9.4205    1.3060    4.6835 H         1 <0>         0.4159
     63 H23       -11.6677    1.8386    6.0724 H         1 <0>         0.1016
     64 H24       -11.3423    3.1770    4.9450 H         1 <0>         0.1017
     65 H25       -13.7548    1.9287    4.1717 H         1 <0>         0.4137
     66 H26       -15.3090    5.3994    4.5877 H         1 <0>         0.0807
     67 H27       -15.1808    4.0524    3.4313 H         1 <0>         0.0840
     68 H28       -17.1669    2.9032    2.6372 H         1 <0>         0.1260
     69 H29       -19.5800    3.0616    2.1788 H         1 <0>         0.1266
     70 H30       -19.8842    6.3083    4.9413 H         1 <0>         0.1259
     71 H31       -17.4721    6.1373    5.4012 H         1 <0>         0.1259
     72 H32       -21.7653    4.2387    3.8604 H         1 <0>         0.3895
     73 H33       -15.9622    3.3401    7.4724 H         1 <0>         0.3470
     74 H34       -15.6352    4.8819    6.9417 H         1 <0>         0.3503
@<TRIPOS>BOND
     1    1    2 1
     2    1   44 1
     3    1   45 1
     4    1   46 1
     5    2    3 1
     6    3    4 1
     7    3   47 1
     8    3   48 1
     9    4    5 1
    10    4   49 1
    11    4   50 1
    12    5    6 1
    13    5    7 1
    14    5   10 1
    15    7    8 2
    16    7    9 1
    17   10   11 am
    18   10   51 1
    19   11   12 2
    20   11   13 1
    21   13   14 1
    22   13   15 1
    23   13   22 1
    24   15   16 1
    25   15   52 1
    26   15   53 1
    27   16   21 ar
    28   16   17 ar
    29   17   18 ar
    30   17   54 1
    31   18   19 ar
    32   18   55 1
    33   19   20 ar
    34   19   56 1
    35   20   21 ar
    36   20   57 1
    37   21   58 1
    38   22   23 am
    39   22   59 1
    40   23   24 2
    41   23   25 1
    42   25   26 1
    43   25   60 1
    44   25   61 1
    45   26   27 am
    46   26   62 1
    47   27   28 2
    48   27   29 1
    49   29   30 1
    50   29   63 1
    51   29   64 1
    52   30   31 am
    53   30   65 1
    54   31   32 2
    55   31   33 1
    56   33   34 1
    57   33   35 1
    58   33   43 1
    59   35   36 1
    60   35   66 1
    61   35   67 1
    62   36   41 ar
    63   36   37 ar
    64   37   38 ar
    65   37   68 1
    66   38   39 ar
    67   38   69 1
    68   39   40 ar
    69   39   42 1
    70   40   41 ar
    71   40   70 1
    72   41   71 1
    73   42   72 1
    74   43   73 1
    75   43   74 1
@<TRIPOS>MOLECULE
ZINC00001773
   49    54     0     0     0
SMALL
USER_CHARGES

@<TRIPOS>ATOM
      1 C1         -0.2443    1.2570    0.4660 C.ar      1 <0>        -0.1112
      2 C2          0.9083    2.0200    0.5623 C.ar      1 <0>        -0.0962
      3 C3          2.1900    1.4753    0.5348 C.ar      1 <0>         0.1149
      4 C4          2.2879    0.0876    0.3806 C.ar      1 <0>         0.0997
      5 C5          1.1121   -0.6326    0.2304 C.ar      1 <0>        -0.1886
      6 C6         -0.1602   -0.1156    0.3155 C.ar      1 <0>        -0.0596
      7 C7         -1.3282   -1.0478    0.3098 C.3       1 <0>        -0.0925
      8 C8         -0.9396   -2.5064    0.1383 C.3       1 <0>         0.0145
      9 H1         -1.6997   -3.1130    0.6306 H         1 <0>         0.1456
     10 C9          0.4167   -2.8747    0.7456 C.3       1 <0>         0.1448
     11 C10         1.4829   -2.0836    0.0450 C.3       1 <0>        -0.0304
     12 C11         1.4804   -2.4286   -1.4426 C.3       1 <0>        -0.1241
     13 C12         0.0910   -2.1126   -2.0094 C.3       1 <0>        -0.0096
     14 N1         -0.9309   -2.8716   -1.2830 N.4       1 <0>        -0.3739
     15 C13        -2.2494   -2.5851   -1.8638 C.3       1 <0>         0.0182
     16 C14        -2.3011   -3.1153   -3.2981 C.3       1 <0>        -0.2108
     17 C15        -2.4792   -2.0935   -4.4229 C.3       1 <0>        -0.1679
     18 C16        -3.6360   -3.0186   -4.0393 C.3       1 <0>        -0.1476
     19 C17         2.8868   -2.1036    0.6341 C.3       1 <0>         0.0644
     20 H2          3.5148   -2.8457    0.1412 H         1 <0>         0.1600
     21 O1          3.3506   -0.7456    0.3657 O.3       1 <0>        -0.2592
     22 C18         2.8706   -2.3034    2.1213 C.2       1 <0>         0.3361
     23 O2          3.8019   -1.8874    2.7678 O.2       1 <0>        -0.4120
     24 C19         1.7528   -2.9946    2.8421 C.3       1 <0>        -0.1575
     25 C20         0.4362   -2.5258    2.2328 C.3       1 <0>        -0.1426
     26 O3          0.6517   -4.2744    0.5791 O.3       1 <0>        -0.5414
     27 O4          3.2968    2.2569    0.6522 O.3       1 <0>        -0.4785
     28 H3         -1.2116    1.7350    0.5131 H         1 <0>         0.1418
     29 H4          0.8079    3.0906    0.6634 H         1 <0>         0.1458
     30 H5         -1.8664   -0.9385    1.2514 H         1 <0>         0.1279
     31 H6         -1.9954   -0.7663   -0.5049 H         1 <0>         0.1079
     32 H7          2.2322   -1.8319   -1.9592 H         1 <0>         0.1192
     33 H8          1.6983   -3.4885   -1.5741 H         1 <0>         0.1097
     34 H9         -0.1082   -1.0460   -1.9055 H         1 <0>         0.1319
     35 H10         0.0606   -2.3836   -3.0648 H         1 <0>         0.1393
     36 H11        -3.0221   -3.0716   -1.2686 H         1 <0>         0.1355
     37 H12        -2.4183   -1.5083   -1.8682 H         1 <0>         0.1323
     38 H13        -1.6744   -3.9837   -3.5011 H         1 <0>         0.1257
     39 H14        -2.5597   -1.0437   -4.1411 H         1 <0>         0.1059
     40 H15        -1.9696   -2.2896   -5.3663 H         1 <0>         0.1108
     41 H16        -3.8874   -3.8232   -4.7304 H         1 <0>         0.1129
     42 H17        -4.4775   -2.5773   -3.5052 H         1 <0>         0.1078
     43 H18         1.8718   -4.0736    2.7439 H         1 <0>         0.1208
     44 H19         1.7811   -2.7239    3.8976 H         1 <0>         0.1111
     45 H20         0.2965   -1.4521    2.3583 H         1 <0>         0.0987
     46 H21        -0.3620   -3.0631    2.7449 H         1 <0>         0.0955
     47 H22        -0.0114   -4.8375    1.0014 H         1 <0>         0.3955
     48 H23         3.5936    2.3840    1.5637 H         1 <0>         0.4013
     49 H24        -0.7373   -3.8580   -1.3711 H         1 <0>         0.4280
@<TRIPOS>BOND
     1    1    6 ar
     2    1    2 ar
     3    1   28 1
     4    2    3 ar
     5    2   29 1
     6    3    4 ar
     7    3   27 1
     8    4   21 1
     9    4    5 ar
    10    5   11 1
    11    5    6 ar
    12    6    7 1
    13    7    8 1
    14    7   30 1
    15    7   31 1
    16    8    9 1
    17    8   14 1
    18    8   10 1
    19   10   25 1
    20   10   11 1
    21   10   26 1
    22   11   12 1
    23   11   19 1
    24   12   13 1
    25   12   32 1
    26   12   33 1
    27   13   14 1
    28   13   34 1
    29   13   35 1
    30   14   15 1
    31   14   49 1
    32   15   16 1
    33   15   36 1
    34   15   37 1
    35   16   18 1
    36   16   17 1
    37   16   38 1
    38   17   18 1
    39   17   39 1
    40   17   40 1
    41   18   41 1
    42   18   42 1
    43   19   20 1
    44   19   21 1
    45   19   22 1
    46   22   23 2
    47   22   24 1
    48   24   25 1
    49   24   43 1
    50   24   44 1
    51   25   45 1
    52   25   46 1
    53   26   47 1
    54   27   48 1
@<TRIPOS>MOLECULE
ZINC53270986
   73    76     0     0     0
SMALL
USER_CHARGES

@<TRIPOS>ATOM
      1 C1         -0.0167    1.3781    0.0096 C.ar      1 <0>        -0.1170
      2 C2          1.1709    2.0855    0.0021 C.ar      1 <0>        -0.1095
      3 C3          2.3773    1.4107   -0.0130 C.ar      1 <0>        -0.1044
      4 C4          2.3960    0.0285   -0.0201 C.ar      1 <0>        -0.0636
      5 C5          1.2084   -0.6789   -0.0117 C.ar      1 <0>        -0.1084
      6 C6          0.0021   -0.0041    0.0020 C.ar      1 <0>        -0.1111
      7 C7          3.7112   -0.7071   -0.0376 C.3       1 <0>        -0.0935
      8 C8          4.1714   -0.9633    1.3989 C.3       1 <0>         0.1481
      9 H1          4.2087   -0.0191    1.9423 H         1 <0>         0.1134
     10 C9          5.5425   -1.5884    1.3832 C.2       1 <0>         0.5386
     11 O1          5.7154   -2.6833    1.8752 O.2       1 <0>        -0.5185
     12 N1          6.5766   -0.9306    0.8225 N.am      1 <0>        -0.5997
     13 C10         6.5092    0.4028    0.1973 C.3       1 <0>         0.0911
     14 C11         7.9537    0.9555    0.2854 C.3       1 <0>        -0.1318
     15 C12         8.7932   -0.3261    0.0403 C.3       1 <0>        -0.1244
     16 C13         7.9600   -1.4213    0.7386 C.3       1 <0>         0.1182
     17 H2          8.3498   -1.6043    1.7399 H         1 <0>         0.1049
     18 C14         8.0052   -2.6909   -0.0720 C.2       1 <0>         0.5103
     19 O2          6.9839   -3.1490   -0.5388 O.2       1 <0>        -0.5217
     20 N2          9.1806   -3.3172   -0.2783 N.am      1 <0>        -0.8543
     21 N3          3.2289   -1.8699    2.0593 N.am      1 <0>        -0.7165
     22 C15         2.1163   -1.3790    2.6404 C.2       1 <0>         0.5088
     23 O3          1.8954   -0.1867    2.6165 O.2       1 <0>        -0.4906
     24 C16         1.1468   -2.3115    3.3197 C.3       1 <0>         0.1242
     25 H3          1.6516   -2.8515    4.1208 H         1 <0>         0.0989
     26 C17         0.5733   -3.3111    2.2932 C.3       1 <0>        -0.1289
     27 C18        -0.9099   -3.4439    2.7289 C.3       1 <0>        -0.1305
     28 C19        -1.2235   -2.0045    3.2080 C.3       1 <0>         0.0959
     29 N4          0.0170   -1.5463    3.8670 N.am      1 <0>        -0.6001
     30 C20         0.1011   -0.5883    4.8112 C.2       1 <0>         0.5488
     31 O4          1.1792   -0.2945    5.2826 O.2       1 <0>        -0.5119
     32 C21        -1.1445    0.1179    5.2812 C.3       1 <0>         0.0929
     33 H4         -1.7959    0.3114    4.4289 H         1 <0>         0.1012
     34 C22        -1.8784   -0.7628    6.2944 C.3       1 <0>        -0.1132
     35 C23        -3.1845   -0.1127    6.6719 C.ar      1 <0>        -0.0941
     36 C24        -3.2353    0.7661    7.7382 C.ar      1 <0>        -0.1026
     37 C25        -4.4314    1.3630    8.0865 C.ar      1 <0>        -0.1389
     38 C26        -5.5823    1.0804    7.3651 C.ar      1 <0>         0.1050
     39 C27        -5.5286    0.1987    6.2954 C.ar      1 <0>        -0.1399
     40 C28        -4.3289   -0.3916    5.9479 C.ar      1 <0>        -0.0966
     41 O5         -6.7603    1.6660    7.7061 O.3       1 <0>        -0.4998
     42 N5         -0.7761    1.3908    5.9150 N.3       1 <0>        -0.8231
     43 H5         -0.9591    1.9053    0.0259 H         1 <0>         0.1144
     44 H6          1.1563    3.1654    0.0076 H         1 <0>         0.1162
     45 H7          3.3051    1.9634   -0.0196 H         1 <0>         0.1135
     46 H8          1.2231   -1.7588   -0.0176 H         1 <0>         0.1099
     47 H9         -0.9258   -0.5567    0.0082 H         1 <0>         0.1123
     48 H10         3.5884   -1.6586   -0.5549 H         1 <0>         0.0815
     49 H11         4.4573   -0.1052   -0.5563 H         1 <0>         0.0888
     50 H12         6.1983    0.3183   -0.8440 H         1 <0>         0.0787
     51 H13         5.8227    1.0458    0.7481 H         1 <0>         0.0863
     52 H14         8.1364    1.6970   -0.4923 H         1 <0>         0.0935
     53 H15         8.1536    1.3705    1.2733 H         1 <0>         0.0844
     54 H16         8.8856   -0.5283   -1.0268 H         1 <0>         0.0846
     55 H17         9.7758   -0.2380    0.5037 H         1 <0>         0.0953
     56 H18         9.9975   -2.9508    0.0950 H         1 <0>         0.4010
     57 H19         9.2097   -4.1344   -0.8001 H         1 <0>         0.4038
     58 H20         3.4056   -2.8234    2.0784 H         1 <0>         0.4070
     59 H21         0.6438   -2.9090    1.2825 H         1 <0>         0.0845
     60 H22         1.0834   -4.2717    2.3638 H         1 <0>         0.0933
     61 H23        -1.5417   -3.7211    1.8851 H         1 <0>         0.0904
     62 H24        -1.0149   -4.1588    3.5450 H         1 <0>         0.0820
     63 H25        -1.4613   -1.3651    2.3579 H         1 <0>         0.0733
     64 H26        -2.0487   -2.0129    3.9200 H         1 <0>         0.0802
     65 H27        -2.0733   -1.7400    5.8526 H         1 <0>         0.0835
     66 H28        -1.2617   -0.8832    7.1851 H         1 <0>         0.0811
     67 H29        -2.3391    0.9858    8.2994 H         1 <0>         0.1256
     68 H30        -4.4707    2.0488    8.9198 H         1 <0>         0.1306
     69 H31        -6.4231   -0.0229    5.7323 H         1 <0>         0.1305
     70 H32        -4.2858   -1.0747    5.1124 H         1 <0>         0.1271
     71 H33        -6.9247    2.5079    7.2597 H         1 <0>         0.3926
     72 H34        -1.5972    1.9133    6.1811 H         1 <0>         0.3482
     73 H35        -0.1718    1.2381    6.7085 H         1 <0>         0.3504
@<TRIPOS>BOND
     1    1    6 ar
     2    1    2 ar
     3    1   43 1
     4    2    3 ar
     5    2   44 1
     6    3    4 ar
     7    3   45 1
     8    4    5 ar
     9    4    7 1
    10    5    6 ar
    11    5   46 1
    12    6   47 1
    13    7    8 1
    14    7   48 1
    15    7   49 1
    16    8    9 1
    17    8   10 1
    18    8   21 1
    19   10   11 2
    20   10   12 am
    21   12   16 1
    22   12   13 1
    23   13   14 1
    24   13   50 1
    25   13   51 1
    26   14   15 1
    27   14   52 1
    28   14   53 1
    29   15   16 1
    30   15   54 1
    31   15   55 1
    32   16   17 1
    33   16   18 1
    34   18   19 2
    35   18   20 am
    36   20   56 1
    37   20   57 1
    38   21   22 am
    39   21   58 1
    40   22   23 2
    41   22   24 1
    42   24   25 1
    43   24   29 1
    44   24   26 1
    45   26   27 1
    46   26   59 1
    47   26   60 1
    48   27   28 1
    49   27   61 1
    50   27   62 1
    51   28   29 1
    52   28   63 1
    53   28   64 1
    54   29   30 am
    55   30   31 2
    56   30   32 1
    57   32   33 1
    58   32   34 1
    59   32   42 1
    60   34   35 1
    61   34   65 1
    62   34   66 1
    63   35   40 ar
    64   35   36 ar
    65   36   37 ar
    66   36   67 1
    67   37   38 ar
    68   37   68 1
    69   38   39 ar
    70   38   41 1
    71   39   40 ar
    72   39   69 1
    73   40   70 1
    74   41   71 1
    75   42   72 1
    76   42   73 1
@<TRIPOS>MOLECULE
ZINC53270991
   73    76     0     0     0
SMALL
USER_CHARGES

@<TRIPOS>ATOM
      1 C1         -0.0167    1.3781    0.0096 C.ar      1 <0>        -0.1164
      2 C2          1.1709    2.0855    0.0021 C.ar      1 <0>        -0.1093
      3 C3          2.3773    1.4107   -0.0130 C.ar      1 <0>        -0.1037
      4 C4          2.3960    0.0285   -0.0201 C.ar      1 <0>        -0.0647
      5 C5          1.2084   -0.6789   -0.0117 C.ar      1 <0>        -0.1084
      6 C6          0.0021   -0.0041    0.0020 C.ar      1 <0>        -0.1112
      7 C7          3.7112   -0.7071   -0.0376 C.3       1 <0>        -0.0952
      8 C8          4.1714   -0.9633    1.3989 C.3       1 <0>         0.1475
      9 H1          4.2087   -0.0191    1.9423 H         1 <0>         0.1142
     10 C9          5.5425   -1.5884    1.3832 C.2       1 <0>         0.5387
     11 O1          5.7154   -2.6833    1.8752 O.2       1 <0>        -0.5169
     12 N1          6.5766   -0.9306    0.8225 N.am      1 <0>        -0.6004
     13 C10         6.5092    0.4028    0.1973 C.3       1 <0>         0.0927
     14 C11         7.9537    0.9555    0.2854 C.3       1 <0>        -0.1350
     15 C12         8.7932   -0.3261    0.0403 C.3       1 <0>        -0.1245
     16 C13         7.9600   -1.4213    0.7386 C.3       1 <0>         0.1185
     17 H2          7.9927   -2.3396    0.1523 H         1 <0>         0.1052
     18 C14         8.4989   -1.6743    2.1230 C.2       1 <0>         0.5081
     19 O2          7.8006   -1.4671    3.0928 O.2       1 <0>        -0.5173
     20 N2          9.7568   -2.1308    2.2835 N.am      1 <0>        -0.8559
     21 N3          3.2289   -1.8699    2.0593 N.am      1 <0>        -0.7160
     22 C15         2.1163   -1.3790    2.6404 C.2       1 <0>         0.5092
     23 O3          1.8954   -0.1867    2.6165 O.2       1 <0>        -0.4901
     24 C16         1.1468   -2.3115    3.3197 C.3       1 <0>         0.1239
     25 H3          1.6516   -2.8515    4.1208 H         1 <0>         0.0990
     26 C17         0.5733   -3.3111    2.2932 C.3       1 <0>        -0.1282
     27 C18        -0.9099   -3.4439    2.7289 C.3       1 <0>        -0.1306
     28 C19        -1.2235   -2.0045    3.2080 C.3       1 <0>         0.0960
     29 N4          0.0170   -1.5463    3.8670 N.am      1 <0>        -0.6005
     30 C20         0.1011   -0.5883    4.8112 C.2       1 <0>         0.5479
     31 O4          1.1792   -0.2945    5.2826 O.2       1 <0>        -0.5100
     32 C21        -1.1445    0.1179    5.2812 C.3       1 <0>         0.0932
     33 H4         -1.7959    0.3114    4.4289 H         1 <0>         0.1011
     34 C22        -1.8784   -0.7628    6.2944 C.3       1 <0>        -0.1134
     35 C23        -3.1845   -0.1127    6.6719 C.ar      1 <0>        -0.0939
     36 C24        -3.2353    0.7661    7.7382 C.ar      1 <0>        -0.1026
     37 C25        -4.4314    1.3630    8.0865 C.ar      1 <0>        -0.1388
     38 C26        -5.5823    1.0804    7.3651 C.ar      1 <0>         0.1048
     39 C27        -5.5286    0.1987    6.2954 C.ar      1 <0>        -0.1400
     40 C28        -4.3289   -0.3916    5.9479 C.ar      1 <0>        -0.0967
     41 O5         -6.7603    1.6660    7.7061 O.3       1 <0>        -0.4998
     42 N5         -0.7761    1.3908    5.9150 N.3       1 <0>        -0.8232
     43 H5         -0.9591    1.9053    0.0259 H         1 <0>         0.1145
     44 H6          1.1563    3.1654    0.0076 H         1 <0>         0.1163
     45 H7          3.3051    1.9634   -0.0196 H         1 <0>         0.1138
     46 H8          1.2231   -1.7588   -0.0176 H         1 <0>         0.1100
     47 H9         -0.9258   -0.5567    0.0082 H         1 <0>         0.1125
     48 H10         3.5884   -1.6586   -0.5549 H         1 <0>         0.0797
     49 H11         4.4573   -0.1052   -0.5563 H         1 <0>         0.0898
     50 H12         6.1983    0.3183   -0.8440 H         1 <0>         0.0819
     51 H13         5.8227    1.0458    0.7481 H         1 <0>         0.0837
     52 H14         8.1364    1.6970   -0.4923 H         1 <0>         0.0945
     53 H15         8.1536    1.3705    1.2733 H         1 <0>         0.0804
     54 H16         8.8856   -0.5283   -1.0268 H         1 <0>         0.0938
     55 H17         9.7758   -0.2380    0.5037 H         1 <0>         0.0890
     56 H18        10.3153   -2.2965    1.5079 H         1 <0>         0.4004
     57 H19        10.1037   -2.2936    3.1746 H         1 <0>         0.4040
     58 H20         3.4056   -2.8234    2.0784 H         1 <0>         0.4060
     59 H21         0.6438   -2.9090    1.2825 H         1 <0>         0.0842
     60 H22         1.0834   -4.2717    2.3638 H         1 <0>         0.0930
     61 H23        -1.5417   -3.7211    1.8851 H         1 <0>         0.0903
     62 H24        -1.0149   -4.1588    3.5450 H         1 <0>         0.0820
     63 H25        -1.4613   -1.3651    2.3579 H         1 <0>         0.0731
     64 H26        -2.0487   -2.0129    3.9200 H         1 <0>         0.0800
     65 H27        -2.0733   -1.7400    5.8526 H         1 <0>         0.0835
     66 H28        -1.2617   -0.8832    7.1851 H         1 <0>         0.0811
     67 H29        -2.3391    0.9858    8.2994 H         1 <0>         0.1256
     68 H30        -4.4707    2.0488    8.9198 H         1 <0>         0.1306
     69 H31        -6.4231   -0.0229    5.7323 H         1 <0>         0.1304
     70 H32        -4.2858   -1.0747    5.1124 H         1 <0>         0.1271
     71 H33        -6.9247    2.5079    7.2597 H         1 <0>         0.3925
     72 H34        -1.5972    1.9133    6.1811 H         1 <0>         0.3481
     73 H35        -0.1718    1.2381    6.7085 H         1 <0>         0.3507
@<TRIPOS>BOND
     1    1    6 ar
     2    1    2 ar
     3    1   43 1
     4    2    3 ar
     5    2   44 1
     6    3    4 ar
     7    3   45 1
     8    4    5 ar
     9    4    7 1
    10    5    6 ar
    11    5   46 1
    12    6   47 1
    13    7    8 1
    14    7   48 1
    15    7   49 1
    16    8    9 1
    17    8   10 1
    18    8   21 1
    19   10   11 2
    20   10   12 am
    21   12   16 1
    22   12   13 1
    23   13   14 1
    24   13   50 1
    25   13   51 1
    26   14   15 1
    27   14   52 1
    28   14   53 1
    29   15   16 1
    30   15   54 1
    31   15   55 1
    32   16   17 1
    33   16   18 1
    34   18   19 2
    35   18   20 am
    36   20   56 1
    37   20   57 1
    38   21   22 am
    39   21   58 1
    40   22   23 2
    41   22   24 1
    42   24   25 1
    43   24   29 1
    44   24   26 1
    45   26   27 1
    46   26   59 1
    47   26   60 1
    48   27   28 1
    49   27   61 1
    50   27   62 1
    51   28   29 1
    52   28   63 1
    53   28   64 1
    54   29   30 am
    55   30   31 2
    56   30   32 1
    57   32   33 1
    58   32   34 1
    59   32   42 1
    60   34   35 1
    61   34   65 1
    62   34   66 1
    63   35   40 ar
    64   35   36 ar
    65   36   37 ar
    66   36   67 1
    67   37   38 ar
    68   37   68 1
    69   38   39 ar
    70   38   41 1
    71   39   40 ar
    72   39   69 1
    73   40   70 1
    74   41   71 1
    75   42   72 1
    76   42   73 1
@<TRIPOS>MOLECULE
ZINC53092522
   73    76     0     0     0
SMALL
USER_CHARGES

@<TRIPOS>ATOM
      1 C1          5.1265    3.9091   -0.8486 C.ar      1 <0>        -0.1198
      2 C2          5.4226    2.7813   -1.5911 C.ar      1 <0>        -0.1181
      3 C3          4.7570    1.5956   -1.3422 C.ar      1 <0>        -0.1065
      4 C4          3.7957    1.5375   -0.3505 C.ar      1 <0>        -0.0835
      5 C5          3.5003    2.6651    0.3925 C.ar      1 <0>        -0.1015
      6 C6          4.1649    3.8512    0.1427 C.ar      1 <0>        -0.1199
      7 C7          3.0695    0.2451   -0.0799 C.3       1 <0>        -0.0887
      8 C8          3.8138   -0.5414    1.0010 C.3       1 <0>         0.1443
      9 H1          3.2805   -1.4694    1.2072 H         1 <0>         0.1117
     10 C9          5.2070   -0.8585    0.5219 C.2       1 <0>         0.5444
     11 O1          6.1403   -0.1673    0.8711 O.2       1 <0>        -0.5127
     12 N1          5.4157   -1.9103   -0.2946 N.am      1 <0>        -0.6022
     13 C10         4.3670   -2.7659   -0.8789 C.3       1 <0>         0.0897
     14 C11         5.0105   -3.3680   -2.1529 C.3       1 <0>        -0.1299
     15 C12         6.4726   -3.5949   -1.6857 C.3       1 <0>        -0.1248
     16 C13         6.7268   -2.3906   -0.7550 C.3       1 <0>         0.1199
     17 H2          7.2404   -1.5995   -1.3013 H         1 <0>         0.1045
     18 C14         7.5571   -2.8247    0.4253 C.2       1 <0>         0.5098
     19 O2          7.1045   -2.7439    1.5476 O.2       1 <0>        -0.5232
     20 N2          8.8026   -3.3026    0.2337 N.am      1 <0>        -0.8542
     21 N3          3.8888    0.2609    2.2244 N.am      1 <0>        -0.7061
     22 C15         2.8797    0.2246    3.1171 C.2       1 <0>         0.5182
     23 O3          1.9524   -0.5396    2.9532 O.2       1 <0>        -0.5238
     24 C16         2.9036    1.1337    4.3187 C.3       1 <0>         0.1237
     25 H3          3.3930    2.0734    4.0628 H         1 <0>         0.0971
     26 C17         3.6558    0.4495    5.4796 C.3       1 <0>        -0.1222
     27 C18         2.8301    0.8696    6.7242 C.3       1 <0>        -0.1302
     28 C19         1.3898    0.8772    6.1538 C.3       1 <0>         0.0960
     29 N4          1.5309    1.3934    4.7767 N.am      1 <0>        -0.6008
     30 C20         0.5651    2.0005    4.0590 C.2       1 <0>         0.5449
     31 O4          0.7685    2.3030    2.9023 O.2       1 <0>        -0.5166
     32 C21        -0.7676    2.3036    4.6939 C.3       1 <0>         0.0907
     33 H4         -1.0659    1.4691    5.3286 H         1 <0>         0.1030
     34 C22        -0.6523    3.5726    5.5408 C.3       1 <0>        -0.1114
     35 C23        -1.9486    3.8076    6.2727 C.ar      1 <0>        -0.0952
     36 C24        -2.9465    4.5620    5.6839 C.ar      1 <0>        -0.1024
     37 C25        -4.1355    4.7793    6.3529 C.ar      1 <0>        -0.1391
     38 C26        -4.3279    4.2394    7.6163 C.ar      1 <0>         0.1056
     39 C27        -3.3252    3.4824    8.2047 C.ar      1 <0>        -0.1399
     40 C28        -2.1400    3.2637    7.5293 C.ar      1 <0>        -0.0964
     41 O5         -5.4965    4.4521    8.2767 O.3       1 <0>        -0.4998
     42 N5         -1.7755    2.5052    3.6444 N.3       1 <0>        -0.8242
     43 H5          5.6497    4.8343   -1.0401 H         1 <0>         0.1186
     44 H6          6.1736    2.8266   -2.3659 H         1 <0>         0.1178
     45 H7          4.9878    0.7146   -1.9228 H         1 <0>         0.1118
     46 H8          2.7490    2.6199    1.1671 H         1 <0>         0.1268
     47 H9          3.9338    4.7323    0.7230 H         1 <0>         0.1186
     48 H10         2.0570    0.4618    0.2607 H         1 <0>         0.0949
     49 H11         3.0264   -0.3459   -0.9947 H         1 <0>         0.0838
     50 H12         4.0917   -3.5578   -0.1824 H         1 <0>         0.0757
     51 H13         3.4931   -2.1694   -1.1410 H         1 <0>         0.0860
     52 H14         4.5355   -4.3114   -2.4220 H         1 <0>         0.0930
     53 H15         4.9705   -2.6616   -2.9820 H         1 <0>         0.0839
     54 H16         6.5617   -4.5343   -1.1400 H         1 <0>         0.0839
     55 H17         7.1562   -3.5745   -2.5345 H         1 <0>         0.0949
     56 H18         9.1646   -3.3672   -0.6639 H         1 <0>         0.4010
     57 H19         9.3371   -3.5821    0.9935 H         1 <0>         0.4036
     58 H20         4.6648    0.8182    2.3921 H         1 <0>         0.4098
     59 H21         3.6476   -0.6338    5.3591 H         1 <0>         0.0842
     60 H22         4.6774    0.8229    5.5505 H         1 <0>         0.0945
     61 H23         2.9294    0.1365    7.5247 H         1 <0>         0.0921
     62 H24         3.1194    1.8627    7.0680 H         1 <0>         0.0826
     63 H25         0.9813   -0.1333    6.1415 H         1 <0>         0.0768
     64 H26         0.7525    1.5378    6.7417 H         1 <0>         0.0819
     65 H27         0.1563    3.4557    6.2623 H         1 <0>         0.0840
     66 H28        -0.4412    4.4236    4.8932 H         1 <0>         0.0816
     67 H29        -2.7963    4.9821    4.7004 H         1 <0>         0.1257
     68 H30        -4.9145    5.3693    5.8930 H         1 <0>         0.1307
     69 H31        -3.4725    3.0611    9.1881 H         1 <0>         0.1307
     70 H32        -1.3608    2.6708    7.9851 H         1 <0>         0.1275
     71 H33        -6.1731    3.7832    8.1041 H         1 <0>         0.3928
     72 H34        -2.6910    2.6462    4.0445 H         1 <0>         0.3496
     73 H35        -1.5217    3.2740    3.0422 H         1 <0>         0.3510
@<TRIPOS>BOND
     1    1    6 ar
     2    1    2 ar
     3    1   43 1
     4    2    3 ar
     5    2   44 1
     6    3    4 ar
     7    3   45 1
     8    4    5 ar
     9    4    7 1
    10    5    6 ar
    11    5   46 1
    12    6   47 1
    13    7    8 1
    14    7   48 1
    15    7   49 1
    16    8    9 1
    17    8   10 1
    18    8   21 1
    19   10   11 2
    20   10   12 am
    21   12   16 1
    22   12   13 1
    23   13   14 1
    24   13   50 1
    25   13   51 1
    26   14   15 1
    27   14   52 1
    28   14   53 1
    29   15   16 1
    30   15   54 1
    31   15   55 1
    32   16   17 1
    33   16   18 1
    34   18   19 2
    35   18   20 am
    36   20   56 1
    37   20   57 1
    38   21   22 am
    39   21   58 1
    40   22   23 2
    41   22   24 1
    42   24   25 1
    43   24   29 1
    44   24   26 1
    45   26   27 1
    46   26   59 1
    47   26   60 1
    48   27   28 1
    49   27   61 1
    50   27   62 1
    51   28   29 1
    52   28   63 1
    53   28   64 1
    54   29   30 am
    55   30   31 2
    56   30   32 1
    57   32   33 1
    58   32   34 1
    59   32   42 1
    60   34   35 1
    61   34   65 1
    62   34   66 1
    63   35   40 ar
    64   35   36 ar
    65   36   37 ar
    66   36   67 1
    67   37   38 ar
    68   37   68 1
    69   38   39 ar
    70   38   41 1
    71   39   40 ar
    72   39   69 1
    73   40   70 1
    74   41   71 1
    75   42   72 1
    76   42   73 1
@<TRIPOS>MOLECULE
ZINC53271207
   73    76     0     0     0
SMALL
USER_CHARGES

@<TRIPOS>ATOM
      1 C1          6.2390    3.4263   -0.7124 C.ar      1 <0>        -0.1207
      2 C2          6.4662    2.2847   -1.4581 C.ar      1 <0>        -0.1150
      3 C3          5.6942    1.1573   -1.2488 C.ar      1 <0>        -0.0809
      4 C4          4.6951    1.1714   -0.2935 C.ar      1 <0>        -0.0895
      5 C5          4.4684    2.3127    0.4528 C.ar      1 <0>        -0.1033
      6 C6          5.2396    3.4405    0.2426 C.ar      1 <0>        -0.1274
      7 C7          3.8527   -0.0573   -0.0661 C.3       1 <0>        -0.0852
      8 C8          4.3951   -0.8320    1.1367 C.3       1 <0>         0.1444
      9 H1          3.7499   -1.6869    1.3392 H         1 <0>         0.1096
     10 C9          5.7901   -1.3157    0.8351 C.2       1 <0>         0.5393
     11 O1          6.7487   -0.6810    1.2213 O.2       1 <0>        -0.5062
     12 N1          5.9725   -2.4536    0.1363 N.am      1 <0>        -0.6025
     13 C10         4.9062   -3.2627   -0.4815 C.3       1 <0>         0.0921
     14 C11         5.6078   -4.0364   -1.6256 C.3       1 <0>        -0.1327
     15 C12         6.9882   -4.3486   -0.9896 C.3       1 <0>        -0.1246
     16 C13         7.2683   -3.0901   -0.1416 C.3       1 <0>         0.1192
     17 H2          7.7494   -3.3754    0.7939 H         1 <0>         0.1013
     18 C14         8.1526   -2.1396   -0.9069 C.2       1 <0>         0.5068
     19 O2          7.7469   -1.0340   -1.1966 O.2       1 <0>        -0.5072
     20 N2          9.3942   -2.5182   -1.2694 N.am      1 <0>        -0.8578
     21 N3          4.4253    0.0455    2.3094 N.am      1 <0>        -0.7095
     22 C15         3.3199    0.1986    3.0652 C.2       1 <0>         0.5153
     23 O3          2.3283   -0.4586    2.8293 O.2       1 <0>        -0.5191
     24 C16         3.3162    1.1863    4.2034 C.3       1 <0>         0.1225
     25 H3          3.8030    2.1109    3.8932 H         1 <0>         0.0994
     26 C17         4.0531    0.5878    5.4201 C.3       1 <0>        -0.1229
     27 C18         3.2027    1.0832    6.6196 C.3       1 <0>        -0.1305
     28 C19         1.7726    1.0403    6.0258 C.3       1 <0>         0.0957
     29 N4          1.9338    1.4642    4.6197 N.am      1 <0>        -0.6019
     30 C20         0.9761    2.0136    3.8467 C.2       1 <0>         0.5454
     31 O4          1.2021    2.2530    2.6795 O.2       1 <0>        -0.5129
     32 C21        -0.3756    2.3304    4.4328 C.3       1 <0>         0.0912
     33 H4         -0.6761    1.5287    5.1073 H         1 <0>         0.1026
     34 C22        -0.2994    3.6473    5.2080 C.3       1 <0>        -0.1118
     35 C23        -1.6159    3.9024    5.8957 C.ar      1 <0>        -0.0950
     36 C24        -2.6110    4.6056    5.2422 C.ar      1 <0>        -0.1024
     37 C25        -3.8185    4.8411    5.8705 C.ar      1 <0>        -0.1389
     38 C26        -4.0325    4.3709    7.1581 C.ar      1 <0>         0.1054
     39 C27        -3.0326    3.6652    7.8114 C.ar      1 <0>        -0.1400
     40 C28        -1.8287    3.4278    7.1768 C.ar      1 <0>        -0.0965
     41 O5         -5.2194    4.6017    7.7785 O.3       1 <0>        -0.4998
     42 N5         -1.3614    2.4554    3.3509 N.3       1 <0>        -0.8241
     43 H5          6.8451    4.3056   -0.8728 H         1 <0>         0.1156
     44 H6          7.2468    2.2737   -2.2044 H         1 <0>         0.1148
     45 H7          5.8713    0.2657   -1.8319 H         1 <0>         0.1204
     46 H8          3.6876    2.3237    1.1989 H         1 <0>         0.1184
     47 H9          5.0622    4.3323    0.8254 H         1 <0>         0.1157
     48 H10         2.8220    0.2395    0.1277 H         1 <0>         0.0925
     49 H11         3.8878   -0.6911   -0.9522 H         1 <0>         0.0814
     50 H12         4.4880   -3.9583    0.2461 H         1 <0>         0.0782
     51 H13         4.1249   -2.6175   -0.8833 H         1 <0>         0.0831
     52 H14         5.0705   -4.9545   -1.8632 H         1 <0>         0.0932
     53 H15         5.7181   -3.4098   -2.5106 H         1 <0>         0.0799
     54 H16         6.9310   -5.2370   -0.3607 H         1 <0>         0.0919
     55 H17         7.7495   -4.4687   -1.7604 H         1 <0>         0.0883
     56 H18         9.7187   -3.4025   -1.0377 H         1 <0>         0.3990
     57 H19         9.9634   -1.9064   -1.7620 H         1 <0>         0.4030
     58 H20         5.2408    0.5163    2.5420 H         1 <0>         0.4099
     59 H21         4.0550   -0.5012    5.3724 H         1 <0>         0.0829
     60 H22         5.0705    0.9739    5.4830 H         1 <0>         0.0946
     61 H23         3.2936    0.4062    7.4690 H         1 <0>         0.0918
     62 H24         3.4787    2.0996    6.9008 H         1 <0>         0.0829
     63 H25         1.3719    0.0277    6.0744 H         1 <0>         0.0755
     64 H26         1.1203    1.7332    6.5571 H         1 <0>         0.0820
     65 H27         0.4936    3.5849    5.9532 H         1 <0>         0.0839
     66 H28        -0.0860    4.4634    4.5177 H         1 <0>         0.0817
     67 H29        -2.4440    4.9714    4.2399 H         1 <0>         0.1258
     68 H30        -4.5952    5.3911    5.3600 H         1 <0>         0.1308
     69 H31        -3.1967    3.2982    8.8138 H         1 <0>         0.1306
     70 H32        -1.0516    2.8747    7.6833 H         1 <0>         0.1274
     71 H33        -5.8816    3.9130    7.6293 H         1 <0>         0.3927
     72 H34        -2.2880    2.6040    3.7214 H         1 <0>         0.3494
     73 H35        -1.1051    3.1928    2.7116 H         1 <0>         0.3512
@<TRIPOS>BOND
     1    1    6 ar
     2    1    2 ar
     3    1   43 1
     4    2    3 ar
     5    2   44 1
     6    3    4 ar
     7    3   45 1
     8    4    5 ar
     9    4    7 1
    10    5    6 ar
    11    5   46 1
    12    6   47 1
    13    7    8 1
    14    7   48 1
    15    7   49 1
    16    8    9 1
    17    8   10 1
    18    8   21 1
    19   10   11 2
    20   10   12 am
    21   12   16 1
    22   12   13 1
    23   13   14 1
    24   13   50 1
    25   13   51 1
    26   14   15 1
    27   14   52 1
    28   14   53 1
    29   15   16 1
    30   15   54 1
    31   15   55 1
    32   16   17 1
    33   16   18 1
    34   18   19 2
    35   18   20 am
    36   20   56 1
    37   20   57 1
    38   21   22 am
    39   21   58 1
    40   22   23 2
    41   22   24 1
    42   24   25 1
    43   24   29 1
    44   24   26 1
    45   26   27 1
    46   26   59 1
    47   26   60 1
    48   27   28 1
    49   27   61 1
    50   27   62 1
    51   28   29 1
    52   28   63 1
    53   28   64 1
    54   29   30 am
    55   30   31 2
    56   30   32 1
    57   32   33 1
    58   32   34 1
    59   32   42 1
    60   34   35 1
    61   34   65 1
    62   34   66 1
    63   35   40 ar
    64   35   36 ar
    65   36   37 ar
    66   36   67 1
    67   37   38 ar
    68   37   68 1
    69   38   39 ar
    70   38   41 1
    71   39   40 ar
    72   39   69 1
    73   40   70 1
    74   41   71 1
    75   42   72 1
    76   42   73 1
@<TRIPOS>MOLECULE
ZINC03201907
   46    49     0     0     0
SMALL
USER_CHARGES

@<TRIPOS>ATOM
      1 C1         -0.0178    1.4648    0.0101 C.3       1 <0>        -0.0541
      2 N1          0.0021   -0.0041    0.0020 N.4       1 <0>        -0.3704
      3 C2         -1.3750   -0.4988    0.0701 C.3       1 <0>        -0.0155
      4 C3         -1.3740   -2.0327    0.0720 C.3       1 <0>        -0.1325
      5 C4         -0.6000   -2.4924    1.3162 C.3       1 <0>        -0.0191
      6 C5         -0.6317   -4.0111    1.4284 C.3       1 <0>        -0.1087
      7 C6          0.1733   -4.4520    2.6537 C.3       1 <0>        -0.1256
      8 C7          1.6184   -3.9692    2.5143 C.3       1 <0>        -0.1195
      9 C8          1.6413   -2.4424    2.4159 C.3       1 <0>        -0.1147
     10 C9          0.8433   -1.9991    1.1883 C.3       1 <0>        -0.0848
     11 H1          1.2952   -2.4125    0.2866 H         1 <0>         0.1023
     12 C10         0.8089   -0.4721    1.1198 C.3       1 <0>         0.0267
     13 H2          1.8300   -0.1263    0.9584 H         1 <0>         0.1343
     14 C11         0.3561    0.0989    2.4510 C.3       1 <0>        -0.0880
     15 C12        -0.8070   -0.6582    3.0329 C.ar      1 <0>        -0.1438
     16 C13        -1.2457   -1.8607    2.5233 C.ar      1 <0>        -0.0305
     17 C14        -2.3081   -2.5221    3.1185 C.ar      1 <0>        -0.1475
     18 C15        -2.9456   -1.9742    4.2198 C.ar      1 <0>         0.1453
     19 C16        -2.5143   -0.7560    4.7243 C.ar      1 <0>        -0.2001
     20 C17        -1.4521   -0.1058    4.1333 C.ar      1 <0>        -0.0688
     21 O1         -3.9867   -2.6255    4.8018 O.3       1 <0>        -0.3119
     22 C18        -4.5935   -1.9982    5.9333 C.3       1 <0>         0.0236
     23 H3          1.0041    1.8418    0.0487 H         1 <0>         0.1253
     24 H4         -0.5046    1.8265   -0.8956 H         1 <0>         0.1263
     25 H5         -0.5678    1.8159    0.8832 H         1 <0>         0.1235
     26 H6         -1.8462   -0.1353    0.9832 H         1 <0>         0.1323
     27 H7         -1.9332   -0.1377   -0.7937 H         1 <0>         0.1313
     28 H8         -2.3981   -2.4035    0.1152 H         1 <0>         0.1146
     29 H9         -0.8828   -2.4037   -0.8275 H         1 <0>         0.0950
     30 H10        -1.6637   -4.3460    1.5323 H         1 <0>         0.0783
     31 H11        -0.1965   -4.4505    0.5308 H         1 <0>         0.0756
     32 H12        -0.2684   -4.0221    3.5527 H         1 <0>         0.0693
     33 H13         0.1589   -5.5395    2.7259 H         1 <0>         0.0726
     34 H14         2.1924   -4.2855    3.3853 H         1 <0>         0.0732
     35 H15         2.0591   -4.3977    1.6142 H         1 <0>         0.0669
     36 H16         1.1954   -2.0136    3.3134 H         1 <0>         0.0798
     37 H17         2.6718   -2.0996    2.3226 H         1 <0>         0.0738
     38 H18         1.1889    0.0610    3.1532 H         1 <0>         0.1169
     39 H19         0.0642    1.1393    2.3081 H         1 <0>         0.0939
     40 H20        -2.6412   -3.4697    2.7215 H         1 <0>         0.1386
     41 H21        -3.0097   -0.3180    5.5782 H         1 <0>         0.1351
     42 H22        -1.1179    0.8418    4.5290 H         1 <0>         0.1291
     43 H23        -3.8503   -1.8717    6.7206 H         1 <0>         0.0602
     44 H24        -4.9840   -1.0231    5.6422 H         1 <0>         0.0594
     45 H25        -5.4090   -2.6214    6.3003 H         1 <0>         0.1083
     46 H26         0.4207   -0.3210   -0.8596 H         1 <0>         0.4244
@<TRIPOS>BOND
     1    1    2 1
     2    1   23 1
     3    1   24 1
     4    1   25 1
     5    2   12 1
     6    2    3 1
     7    2   46 1
     8    3    4 1
     9    3   26 1
    10    3   27 1
    11    4    5 1
    12    4   28 1
    13    4   29 1
    14    5   10 1
    15    5   16 1
    16    5    6 1
    17    6    7 1
    18    6   30 1
    19    6   31 1
    20    7    8 1
    21    7   32 1
    22    7   33 1
    23    8    9 1
    24    8   34 1
    25    8   35 1
    26    9   10 1
    27    9   36 1
    28    9   37 1
    29   10   11 1
    30   10   12 1
    31   12   13 1
    32   12   14 1
    33   14   15 1
    34   14   38 1
    35   14   39 1
    36   15   20 ar
    37   15   16 ar
    38   16   17 ar
    39   17   18 ar
    40   17   40 1
    41   18   19 ar
    42   18   21 1
    43   19   20 ar
    44   19   41 1
    45   20   42 1
    46   21   22 1
    47   22   43 1
    48   22   44 1
    49   22   45 1
@<TRIPOS>MOLECULE
ZINC28255070
   44    48     0     0     0
SMALL
USER_CHARGES
methoxy-methyl-BLAHol
@<TRIPOS>ATOM
      1 C1         -0.0178    1.4648    0.0101 C.3       1 <0>        -0.0497
      2 N1          0.0021   -0.0041    0.0020 N.4       1 <0>        -0.3969
      3 C2         -1.3443   -0.5433   -0.1209 C.3       1 <0>        -0.0200
      4 C3         -1.3836   -2.0859   -0.1808 C.3       1 <0>        -0.1008
      5 C4         -0.6042   -2.5352    1.0401 C.3       1 <0>        -0.0006
      6 C5         -1.2944   -1.9862    2.2611 C.ar      1 <0>        -0.1480
      7 C6         -1.0255   -0.7981    2.8804 C.ar      1 <0>        -0.0898
      8 C7         -1.9276   -0.4508    3.8685 C.ar      1 <0>        -0.0789
      9 C8         -2.9606   -1.3179    4.1979 C.ar      1 <0>        -0.1715
     10 C9         -3.1541   -2.5697    3.6096 C.ar      1 <0>         0.1420
     11 C10        -2.2600   -2.9366    2.6103 C.ar      1 <0>         0.0759
     12 O1         -2.0596   -4.0859    1.8684 O.3       1 <0>        -0.2683
     13 C11        -0.7001   -3.9700    1.5337 C.3       1 <0>         0.0465
     14 H1         -0.4376   -4.5207    2.4490 H         1 <0>         0.1019
     15 C12         0.3436   -4.8275    0.9257 C.3       1 <0>         0.1541
     16 H2          0.1682   -5.9052    1.0591 H         1 <0>         0.0890
     17 C13         1.6325   -4.2522    1.5452 C.2       1 <0>        -0.1732
     18 C14         1.7973   -2.9319    1.5593 C.2       1 <0>        -0.1286
     19 C15         0.8162   -2.0425    0.8913 C.3       1 <0>        -0.0712
     20 H3          1.2302   -2.1616   -0.1208 H         1 <0>         0.1118
     21 C16         0.8214   -0.5355    1.1357 C.3       1 <0>         0.0589
     22 H4          1.8641   -0.1900    1.1948 H         1 <0>         0.1633
     23 C17         0.1751   -0.0472    2.4304 C.3       1 <0>        -0.0931
     24 O2          0.3544   -4.6878   -0.4964 O.3       1 <0>        -0.6006
     25 O3         -4.1676   -3.3901    3.9958 O.3       1 <0>        -0.3017
     26 C18        -5.0285   -2.9140    5.0323 C.3       1 <0>         0.0182
     27 H5         -0.6256    1.8279   -0.8317 H         1 <0>         0.1267
     28 H6          1.0094    1.8459   -0.0880 H         1 <0>         0.1275
     29 H7         -0.4520    1.8204    0.9561 H         1 <0>         0.1233
     30 H8         -1.9449   -0.2308    0.7461 H         1 <0>         0.1263
     31 H9         -1.8080   -0.1648   -1.0438 H         1 <0>         0.1382
     32 H10        -2.4287   -2.4276   -0.1482 H         1 <0>         0.1154
     33 H11        -0.9148   -2.4287   -1.1150 H         1 <0>         0.1079
     34 H12        -1.8288    0.4933    4.3836 H         1 <0>         0.1369
     35 H13        -3.6601   -1.0040    4.9586 H         1 <0>         0.1395
     36 H14         2.4071   -4.9077    1.9698 H         1 <0>         0.1471
     37 H15         2.6668   -2.4916    2.0693 H         1 <0>         0.1347
     38 H16        -0.0935    1.0058    2.2603 H         1 <0>         0.1006
     39 H17         0.9555   -0.1062    3.2033 H         1 <0>         0.1183
     40 H18         1.0744   -5.2601   -1.0998 H         1 <0>         0.4157
     41 H19        -5.7985   -3.6701    5.2455 H         1 <0>         0.1120
     42 H20        -5.5112   -1.9803    4.7080 H         1 <0>         0.0619
     43 H21        -4.4384   -2.7252    5.9412 H         1 <0>         0.0627
     44 H22         0.4940   -0.3623   -0.9143 H         1 <0>         0.4367
@<TRIPOS>BOND
     1    1    2 1
     2    1   27 1
     3    1   28 1
     4    1   29 1
     5    2   21 1
     6    2    3 1
     7    2   44 1
     8    3    4 1
     9    3   30 1
    10    3   31 1
    11    4    5 1
    12    4   32 1
    13    4   33 1
    14    5   13 1
    15    5   19 1
    16    5    6 1
    17    6   11 ar
    18    6    7 ar
    19    7   23 1
    20    7    8 ar
    21    8    9 ar
    22    8   34 1
    23    9   10 ar
    24    9   35 1
    25   10   11 ar
    26   10   25 1
    27   11   12 1
    28   12   13 1
    29   13   14 1
    30   13   15 1
    31   15   16 1
    32   15   17 1
    33   15   24 1
    34   17   18 2
    35   17   36 1
    36   18   19 1
    37   18   37 1
    38   19   20 1
    39   19   21 1
    40   21   22 1
    41   21   23 1
    42   23   38 1
    43   23   39 1
    44   24   40 1
    45   25   26 1
    46   26   41 1
    47   26   42 1
    48   26   43 1
@<TRIPOS>MOLECULE
ZINC22454243
   70    72     0     0     0
SMALL
USER_CHARGES

@<TRIPOS>ATOM
      1 C1         -3.2721   -1.8122   -0.8663 C.3       1 <0>        -0.1682
      2 C2         -2.5254   -0.5341   -0.4793 C.3       1 <0>         0.1080
      3 N1         -1.4693   -0.8579    0.4831 N.am      1 <0>        -0.6052
      4 C3         -0.1542   -1.2949    0.0080 C.3       1 <0>         0.0965
      5 C4          0.6666   -0.0749   -0.4147 C.3       1 <0>        -0.1790
      6 C5         -1.7077   -0.7538    1.8055 C.2       1 <0>         0.5549
      7 O1         -2.8134   -0.4399    2.2009 O.2       1 <0>        -0.5290
      8 C6         -0.6242   -1.0212    2.7753 C.ar      1 <0>        -0.1173
      9 C7          0.6436   -0.4714    2.5790 C.ar      1 <0>        -0.0954
     10 C8          1.6501   -0.7244    3.4879 C.ar      1 <0>        -0.1235
     11 C9          1.4051   -1.5217    4.5918 C.ar      1 <0>        -0.0552
     12 C10         0.1508   -2.0701    4.7921 C.ar      1 <0>        -0.0966
     13 C11        -0.8662   -1.8198    3.8940 C.ar      1 <0>        -0.0690
     14 C12         2.5096   -1.7942    5.5803 C.3       1 <0>         0.1748
     15 H1          3.2860   -1.0364    5.4756 H         1 <0>         0.0728
     16 C13         3.0975   -3.1560    5.3137 C.ar      1 <0>        -0.0809
     17 C14         2.3630   -4.2930    5.5964 C.ar      1 <0>        -0.1113
     18 C15         2.8995   -5.5436    5.3530 C.ar      1 <0>        -0.1008
     19 C16         4.1717   -5.6604    4.8269 C.ar      1 <0>        -0.1350
     20 C17         4.9105   -4.5214    4.5425 C.ar      1 <0>         0.1144
     21 C18         4.3674   -3.2672    4.7820 C.ar      1 <0>        -0.1357
     22 O2          6.1621   -4.6336    4.0249 O.3       1 <0>        -0.4985
     23 N2          1.9666   -1.7539    6.9446 N.3       1 <0>        -0.5268
     24 C19         2.8494   -2.4599    7.8840 C.3       1 <0>         0.0237
     25 C20         2.2203   -2.4462    9.2789 C.3       1 <0>         0.0324
     26 H2          1.2577   -2.9566    9.2483 H         1 <0>         0.1446
     27 N3          2.0243   -1.0571    9.7142 N.4       1 <0>        -0.3829
     28 C21         1.1211   -0.3722    8.7801 C.3       1 <0>         0.0017
     29 C22         1.7411   -0.3686    7.3810 C.3       1 <0>         0.0645
     30 H3          2.6916    0.1642    7.4058 H         1 <0>         0.0667
     31 C23         0.7911    0.3263    6.4035 C.3       1 <0>        -0.1641
     32 C24         1.4371   -1.0445   11.0607 C.3       1 <0>         0.0243
     33 C25         1.3494    0.3757   11.5572 C.2       1 <0>        -0.2351
     34 C26         0.2002    0.8593   11.9590 C.2       1 <0>        -0.1052
     35 C27         3.1467   -3.1632   10.2631 C.3       1 <0>        -0.1835
     36 H4         -4.0578   -1.5713   -1.5823 H         1 <0>         0.0705
     37 H5         -2.5744   -2.5185   -1.3164 H         1 <0>         0.0561
     38 H6         -3.7160   -2.2575    0.0241 H         1 <0>         0.0586
     39 H7         -2.0815   -0.0889   -1.3697 H         1 <0>         0.0795
     40 H8         -3.2231    0.1721   -0.0291 H         1 <0>         0.0877
     41 H9          0.3645   -1.8223    0.8086 H         1 <0>         0.0858
     42 H10        -0.2793   -1.9619   -0.8450 H         1 <0>         0.0817
     43 H11         0.3704    0.2326   -1.4175 H         1 <0>         0.0655
     44 H12         0.4881    0.7428    0.2837 H         1 <0>         0.0641
     45 H13         1.7261   -0.3309   -0.4112 H         1 <0>         0.0719
     46 H14         0.8363    0.1505    1.7173 H         1 <0>         0.1430
     47 H15         2.6316   -0.2996    3.3372 H         1 <0>         0.1275
     48 H16        -0.0338   -2.6919    5.6556 H         1 <0>         0.1342
     49 H17        -1.8462   -2.2446    4.0540 H         1 <0>         0.1312
     50 H18         1.3686   -4.2039    6.0084 H         1 <0>         0.1317
     51 H19         2.3238   -6.4301    5.5747 H         1 <0>         0.1319
     52 H20         4.5907   -6.6376    4.6376 H         1 <0>         0.1332
     53 H21         4.9388   -2.3788    4.5569 H         1 <0>         0.1284
     54 H22         6.1878   -4.6518    3.0584 H         1 <0>         0.3977
     55 H23         2.9812   -3.4905    7.5545 H         1 <0>         0.1331
     56 H24         3.8182   -1.9615    7.9170 H         1 <0>         0.0619
     57 H25         0.1642   -0.8933    8.7521 H         1 <0>         0.1367
     58 H26         0.9662    0.6546    9.1114 H         1 <0>         0.1362
     59 H27        -0.1596   -0.2064    6.3800 H         1 <0>         0.0798
     60 H28         0.6241    1.3536    6.7274 H         1 <0>         0.0701
     61 H29         1.2320    0.3268    5.4066 H         1 <0>         0.0908
     62 H30         0.4383   -1.4794   11.0256 H         1 <0>         0.1301
     63 H31         2.0637   -1.6273   11.7358 H         1 <0>         0.1386
     64 H32         2.2341    0.9948   11.5817 H         1 <0>         0.1330
     65 H33        -0.6844    0.2403   11.9344 H         1 <0>         0.1115
     66 H34         0.1374    1.8771   12.3148 H         1 <0>         0.1229
     67 H35         4.1093   -2.6528   10.2936 H         1 <0>         0.0811
     68 H36         2.6986   -3.1535   11.2567 H         1 <0>         0.0863
     69 H37         3.2921   -4.1940    9.9402 H         1 <0>         0.1080
     70 H38         2.9140   -0.5815    9.7313 H         1 <0>         0.4184
@<TRIPOS>BOND
     1    1    2 1
     2    1   36 1
     3    1   37 1
     4    1   38 1
     5    2    3 1
     6    2   39 1
     7    2   40 1
     8    3    4 1
     9    3    6 am
    10    4    5 1
    11    4   41 1
    12    4   42 1
    13    5   43 1
    14    5   44 1
    15    5   45 1
    16    6    7 2
    17    6    8 1
    18    8   13 ar
    19    8    9 ar
    20    9   10 ar
    21    9   46 1
    22   10   11 ar
    23   10   47 1
    24   11   12 ar
    25   11   14 1
    26   12   13 ar
    27   12   48 1
    28   13   49 1
    29   14   15 1
    30   14   16 1
    31   14   23 1
    32   16   21 ar
    33   16   17 ar
    34   17   18 ar
    35   17   50 1
    36   18   19 ar
    37   18   51 1
    38   19   20 ar
    39   19   52 1
    40   20   21 ar
    41   20   22 1
    42   21   53 1
    43   22   54 1
    44   23   29 1
    45   23   24 1
    46   24   25 1
    47   24   55 1
    48   24   56 1
    49   25   26 1
    50   25   27 1
    51   25   35 1
    52   27   28 1
    53   27   32 1
    54   27   70 1
    55   28   29 1
    56   28   57 1
    57   28   58 1
    58   29   30 1
    59   29   31 1
    60   31   59 1
    61   31   60 1
    62   31   61 1
    63   32   33 1
    64   32   62 1
    65   32   63 1
    66   33   34 2
    67   33   64 1
    68   34   65 1
    69   34   66 1
    70   35   67 1
    71   35   68 1
    72   35   69 1
@<TRIPOS>MOLECULE
ZINC22454243
   70    72     0     0     0
SMALL
USER_CHARGES

@<TRIPOS>ATOM
      1 C1         -3.7957   -4.5388    0.0807 C.3       1 <0>        -0.1689
      2 C2         -3.1544   -3.1498    0.0949 C.3       1 <0>         0.1073
      3 N1         -2.1636   -3.0803    1.1718 N.am      1 <0>        -0.6022
      4 C3         -0.7946   -3.5470    0.9388 C.3       1 <0>         0.0929
      5 C4         -0.0239   -2.4906    0.1444 C.3       1 <0>        -0.1805
      6 C5         -2.5115   -2.5871    2.3768 C.2       1 <0>         0.5504
      7 O1         -3.6616   -2.2559    2.5890 O.2       1 <0>        -0.5208
      8 C6         -1.4942   -2.4490    3.4407 C.ar      1 <0>        -0.0966
      9 C7         -0.2346   -1.9269    3.1425 C.ar      1 <0>        -0.0883
     10 C8          0.7100   -1.8001    4.1400 C.ar      1 <0>        -0.0995
     11 C9          0.4110   -2.1897    5.4336 C.ar      1 <0>        -0.0989
     12 C10        -0.8355   -2.7085    5.7358 C.ar      1 <0>        -0.1224
     13 C11        -1.7912   -2.8347    4.7489 C.ar      1 <0>        -0.0537
     14 C12         1.4480   -2.0489    6.5180 C.3       1 <0>         0.1307
     15 H1          2.2618   -1.4169    6.1626 H         1 <0>         0.1520
     16 C13         1.9881   -3.4094    6.8763 C.ar      1 <0>        -0.1123
     17 C14         1.2668   -4.2403    7.7140 C.ar      1 <0>        -0.1350
     18 C15         1.7596   -5.4889    8.0446 C.ar      1 <0>        -0.0827
     19 C16         2.9746   -5.9095    7.5389 C.ar      1 <0>        -0.1210
     20 C17         3.7000   -5.0779    6.6985 C.ar      1 <0>         0.1293
     21 C18         3.2004   -3.8275    6.3633 C.ar      1 <0>        -0.1150
     22 O2          4.8954   -5.4892    6.1998 O.3       1 <0>        -0.4928
     23 N2          0.8354   -1.4371    7.7048 N.4       1 <0>        -0.3820
     24 C19         1.7841   -1.4854    8.8251 C.3       1 <0>        -0.0060
     25 C20         1.1395   -0.8652   10.0667 C.3       1 <0>         0.0612
     26 H2          0.2483   -1.4324   10.3356 H         1 <0>         0.0643
     27 N3          0.7663    0.5267    9.7779 N.3       1 <0>        -0.5312
     28 C21        -0.1641    0.5928    8.6421 C.3       1 <0>         0.0331
     29 C22         0.4912   -0.0394    7.4123 C.3       1 <0>         0.0366
     30 H3          1.3965    0.5123    7.1590 H         1 <0>         0.1457
     31 C23        -0.4828    0.0100    6.2334 C.3       1 <0>        -0.1982
     32 C24         0.1946    1.1756   10.9653 C.3       1 <0>         0.0780
     33 C25         0.0528    2.6542   10.7106 C.2       1 <0>        -0.1650
     34 C26        -1.1111    3.2361   10.8611 C.2       1 <0>        -0.1713
     35 C27         2.1346   -0.8970   11.2284 C.3       1 <0>        -0.1522
     36 H4         -4.5329   -4.5905   -0.7206 H         1 <0>         0.0727
     37 H5         -3.0260   -5.2927   -0.0847 H         1 <0>         0.0568
     38 H6         -4.2850   -4.7229    1.0371 H         1 <0>         0.0589
     39 H7         -2.6651   -2.9657   -0.8615 H         1 <0>         0.0822
     40 H8         -3.9242   -2.3959    0.2602 H         1 <0>         0.0898
     41 H9         -0.3001   -3.7146    1.8955 H         1 <0>         0.0848
     42 H10        -0.8196   -4.4793    0.3745 H         1 <0>         0.0844
     43 H11        -0.3677   -2.4914   -0.8899 H         1 <0>         0.0688
     44 H12        -0.1964   -1.5081    0.5839 H         1 <0>         0.0633
     45 H13         1.0413   -2.7197    0.1735 H         1 <0>         0.0748
     46 H14         0.0002   -1.6231    2.1331 H         1 <0>         0.1542
     47 H15         1.6850   -1.3963    3.9106 H         1 <0>         0.1422
     48 H16        -1.0624   -3.0110    6.7474 H         1 <0>         0.1241
     49 H17        -2.7655   -3.2352    4.9870 H         1 <0>         0.1431
     50 H18         0.3172   -3.9131    8.1109 H         1 <0>         0.1180
     51 H19         1.1944   -6.1360    8.6990 H         1 <0>         0.1410
     52 H20         3.3595   -6.8847    7.7981 H         1 <0>         0.1426
     53 H21         3.7610   -3.1801    5.7053 H         1 <0>         0.1404
     54 H22         4.8296   -5.9564    5.3556 H         1 <0>         0.4032
     55 H23         2.0487   -2.5223    9.0326 H         1 <0>         0.1399
     56 H24         2.6827   -0.9263    8.5646 H         1 <0>         0.1403
     57 H25        -1.0768    0.0497    8.8876 H         1 <0>         0.0587
     58 H26        -0.4061    1.6343    8.4304 H         1 <0>         0.1264
     59 H27        -1.2578   -0.7441    6.3705 H         1 <0>         0.0839
     60 H28        -0.9415    0.9974    6.1823 H         1 <0>         0.1010
     61 H29         0.0572   -0.1881    5.3075 H         1 <0>         0.0991
     62 H30        -0.7854    0.7478   11.1768 H         1 <0>         0.0491
     63 H31         0.8528    1.0156   11.8193 H         1 <0>         0.1015
     64 H32         0.9108    3.2339   10.4038 H         1 <0>         0.1193
     65 H33        -1.9691    2.6564   11.1679 H         1 <0>         0.0969
     66 H34        -1.2127    4.2957   10.6785 H         1 <0>         0.1068
     67 H35         3.0253   -0.3291   10.9595 H         1 <0>         0.0790
     68 H36         1.6752   -0.4552   12.1126 H         1 <0>         0.0800
     69 H37         2.4124   -1.9294   11.4407 H         1 <0>         0.0756
     70 H38        -0.0012   -1.9448    7.9508 H         1 <0>         0.4126
@<TRIPOS>BOND
     1    1    2 1
     2    1   36 1
     3    1   37 1
     4    1   38 1
     5    2    3 1
     6    2   39 1
     7    2   40 1
     8    3    4 1
     9    3    6 am
    10    4    5 1
    11    4   41 1
    12    4   42 1
    13    5   43 1
    14    5   44 1
    15    5   45 1
    16    6    7 2
    17    6    8 1
    18    8   13 ar
    19    8    9 ar
    20    9   10 ar
    21    9   46 1
    22   10   11 ar
    23   10   47 1
    24   11   12 ar
    25   11   14 1
    26   12   13 ar
    27   12   48 1
    28   13   49 1
    29   14   15 1
    30   14   16 1
    31   14   23 1
    32   16   21 ar
    33   16   17 ar
    34   17   18 ar
    35   17   50 1
    36   18   19 ar
    37   18   51 1
    38   19   20 ar
    39   19   52 1
    40   20   21 ar
    41   20   22 1
    42   21   53 1
    43   22   54 1
    44   23   29 1
    45   23   24 1
    46   23   70 1
    47   24   25 1
    48   24   55 1
    49   24   56 1
    50   25   26 1
    51   25   27 1
    52   25   35 1
    53   27   28 1
    54   27   32 1
    55   28   29 1
    56   28   57 1
    57   28   58 1
    58   29   30 1
    59   29   31 1
    60   31   59 1
    61   31   60 1
    62   31   61 1
    63   32   33 1
    64   32   62 1
    65   32   63 1
    66   33   34 2
    67   33   64 1
    68   34   65 1
    69   34   66 1
    70   35   67 1
    71   35   68 1
    72   35   69 1
@<TRIPOS>MOLECULE
ZINC22454243
   69    71     0     0     0
SMALL
USER_CHARGES

@<TRIPOS>ATOM
      1 C1         -1.6361    0.7400   -0.4048 C.3       1 <0>        -0.1678
      2 C2         -0.4795   -0.2224   -0.1279 C.3       1 <0>         0.1108
      3 N1          0.4432   -0.2172   -1.2658 N.am      1 <0>        -0.6082
      4 C3          1.5612    0.7290   -1.2981 C.3       1 <0>         0.0925
      5 C4          2.6581    0.2551   -0.3424 C.3       1 <0>        -0.1780
      6 C5          0.2635   -1.0829   -2.2831 C.2       1 <0>         0.5592
      7 O1         -0.6961   -1.8290   -2.2839 O.2       1 <0>        -0.5319
      8 C6          1.2336   -1.1251   -3.3980 C.ar      1 <0>        -0.1322
      9 C7          2.6016   -1.0221   -3.1410 C.ar      1 <0>        -0.0992
     10 C8          3.5016   -1.0626   -4.1859 C.ar      1 <0>        -0.1277
     11 C9          3.0506   -1.2045   -5.4862 C.ar      1 <0>        -0.0354
     12 C10         1.6958   -1.3067   -5.7478 C.ar      1 <0>        -0.0943
     13 C11         0.7857   -1.2739   -4.7115 C.ar      1 <0>        -0.0670
     14 C12         4.0394   -1.2475   -6.6226 C.3       1 <0>         0.1636
     15 H1          5.0218   -1.5231   -6.2392 H         1 <0>         0.0640
     16 C13         4.1166    0.1097   -7.2730 C.ar      1 <0>        -0.0647
     17 C14         3.0645    0.5664   -8.0456 C.ar      1 <0>        -0.1032
     18 C15         3.1322    1.8110   -8.6435 C.ar      1 <0>        -0.1050
     19 C16         4.2520    2.6017   -8.4708 C.ar      1 <0>        -0.1414
     20 C17         5.3087    2.1459   -7.6963 C.ar      1 <0>         0.1062
     21 C18         5.2357    0.8989   -7.0922 C.ar      1 <0>        -0.1362
     22 O2          6.4112    2.9218   -7.5248 O.3       1 <0>        -0.4990
     23 N2          3.6040   -2.2411   -7.6132 N.3       1 <0>        -0.5248
     24 C19         4.2086   -1.9758   -8.9261 C.3       1 <0>         0.0559
     25 C20         3.6696   -2.9819   -9.9457 C.3       1 <0>         0.0851
     26 H2          2.5899   -2.8638  -10.0373 H         1 <0>         0.0496
     27 N3          3.9770   -4.3460   -9.4936 N.3       1 <0>        -0.5331
     28 C21         3.3724   -4.6113   -8.1807 C.3       1 <0>         0.0659
     29 C22         3.9114   -3.6052   -7.1611 C.3       1 <0>         0.0883
     30 H3          4.9911   -3.7233   -7.0695 H         1 <0>         0.0512
     31 C23         3.2532   -3.8531   -5.8023 C.3       1 <0>        -0.1582
     32 C24         3.5416   -5.3396  -10.4841 C.3       1 <0>         0.0755
     33 C25         4.0858   -6.6941  -10.1097 C.2       1 <0>        -0.1452
     34 C26         3.2716   -7.7102   -9.9662 C.2       1 <0>        -0.1906
     35 C27         4.3274   -2.7337  -11.3046 C.3       1 <0>        -0.1494
     36 H4         -1.2443    1.7467   -0.5503 H         1 <0>         0.0550
     37 H5         -2.1655    0.4229   -1.3033 H         1 <0>         0.0597
     38 H6         -2.3226    0.7362    0.4418 H         1 <0>         0.0673
     39 H7          0.0500    0.0947    0.7706 H         1 <0>         0.0779
     40 H8         -0.8713   -1.2291    0.0175 H         1 <0>         0.0839
     41 H9          1.9608    0.7849   -2.3106 H         1 <0>         0.0934
     42 H10         1.2120    1.7146   -0.9903 H         1 <0>         0.0765
     43 H11         3.5738    0.8143   -0.5345 H         1 <0>         0.0720
     44 H12         2.3400    0.4212    0.6868 H         1 <0>         0.0627
     45 H13         2.8419   -0.8078   -0.4988 H         1 <0>         0.0643
     46 H14         2.9549   -0.9105   -2.1265 H         1 <0>         0.1392
     47 H15         4.5604   -0.9830   -3.9885 H         1 <0>         0.1255
     48 H16         1.3503   -1.4170   -6.7651 H         1 <0>         0.1358
     49 H17        -0.2713   -1.3586   -4.9166 H         1 <0>         0.1287
     50 H18         2.1886   -0.0505   -8.1824 H         1 <0>         0.1318
     51 H19         2.3093    2.1654   -9.2465 H         1 <0>         0.1283
     52 H20         4.3048    3.5736   -8.9387 H         1 <0>         0.1282
     53 H21         6.0550    0.5437   -6.4848 H         1 <0>         0.1265
     54 H22         6.3626    3.5105   -6.7593 H         1 <0>         0.3911
     55 H23         3.9564   -0.9644   -9.2449 H         1 <0>         0.0923
     56 H24         5.2917   -2.0754   -8.8545 H         1 <0>         0.0436
     57 H25         2.2893   -4.5117   -8.2523 H         1 <0>         0.0425
     58 H26         3.6246   -5.6227   -7.8619 H         1 <0>         0.0817
     59 H27         2.1735   -3.7358   -5.8948 H         1 <0>         0.0666
     60 H28         3.4814   -4.8649   -5.4672 H         1 <0>         0.0579
     61 H29         3.6359   -3.1351   -5.0769 H         1 <0>         0.0704
     62 H30         2.4525   -5.3787  -10.5051 H         1 <0>         0.0381
     63 H31         3.9140   -5.0580  -11.4691 H         1 <0>         0.0894
     64 H32         5.1470   -6.8270   -9.9596 H         1 <0>         0.1132
     65 H33         2.2104   -7.5773  -10.1162 H         1 <0>         0.0940
     66 H34         3.6616   -8.6809   -9.6978 H         1 <0>         0.0995
     67 H35         5.4070   -2.8526  -11.2128 H         1 <0>         0.0645
     68 H36         3.9433   -3.4504  -12.0305 H         1 <0>         0.0608
     69 H37         4.1005   -1.7212  -11.6386 H         1 <0>         0.0625
@<TRIPOS>BOND
     1    1    2 1
     2    1   36 1
     3    1   37 1
     4    1   38 1
     5    2    3 1
     6    2   39 1
     7    2   40 1
     8    3    4 1
     9    3    6 am
    10    4    5 1
    11    4   41 1
    12    4   42 1
    13    5   43 1
    14    5   44 1
    15    5   45 1
    16    6    7 2
    17    6    8 1
    18    8   13 ar
    19    8    9 ar
    20    9   10 ar
    21    9   46 1
    22   10   11 ar
    23   10   47 1
    24   11   12 ar
    25   11   14 1
    26   12   13 ar
    27   12   48 1
    28   13   49 1
    29   14   15 1
    30   14   16 1
    31   14   23 1
    32   16   21 ar
    33   16   17 ar
    34   17   18 ar
    35   17   50 1
    36   18   19 ar
    37   18   51 1
    38   19   20 ar
    39   19   52 1
    40   20   21 ar
    41   20   22 1
    42   21   53 1
    43   22   54 1
    44   23   29 1
    45   23   24 1
    46   24   25 1
    47   24   55 1
    48   24   56 1
    49   25   26 1
    50   25   27 1
    51   25   35 1
    52   27   28 1
    53   27   32 1
    54   28   29 1
    55   28   57 1
    56   28   58 1
    57   29   30 1
    58   29   31 1
    59   31   59 1
    60   31   60 1
    61   31   61 1
    62   32   33 1
    63   32   62 1
    64   32   63 1
    65   33   34 2
    66   33   64 1
    67   34   65 1
    68   34   66 1
    69   35   67 1
    70   35   68 1
    71   35   69 1
@<TRIPOS>MOLECULE
ZINC28256912
   41    45     0     0     0
SMALL
USER_CHARGES
methylBLAHdiol
@<TRIPOS>ATOM
      1 C1          5.2093    3.6295    0.5036 C.3       1 <0>        -0.0493
      2 N1          4.1065    2.7161    0.1759 N.4       1 <0>        -0.3930
      3 C2          3.2591    3.2745   -0.8706 C.3       1 <0>        -0.0195
      4 C3          2.0767    2.3612   -1.2617 C.3       1 <0>        -0.0985
      5 C4          1.3859    2.0420    0.0499 C.3       1 <0>         0.0018
      6 C5          0.9533    3.3405    0.6766 C.ar      1 <0>        -0.1409
      7 C6          1.6434    4.0781    1.6015 C.ar      1 <0>        -0.1016
      8 C7          1.0413    5.2645    1.9709 C.ar      1 <0>        -0.0745
      9 C8         -0.2158    5.5866    1.4773 C.ar      1 <0>        -0.1318
     10 C9         -0.9558    4.7568    0.6326 C.ar      1 <0>         0.1845
     11 C10        -0.3596    3.5630    0.2431 C.ar      1 <0>         0.0017
     12 O1         -0.7992    2.4658   -0.4741 O.3       1 <0>        -0.2798
     13 C11        -0.0097    1.4435    0.0780 C.3       1 <0>         0.0539
     14 H1         -0.7805    1.2746    0.8444 H         1 <0>         0.0971
     15 C12         0.0234   -0.0372    0.0226 C.3       1 <0>         0.1544
     16 H2         -0.9487   -0.4962   -0.2104 H         1 <0>         0.0883
     17 C13         0.6504   -0.3965    1.3836 C.2       1 <0>        -0.1763
     18 C14         1.7226    0.2802    1.7863 C.2       1 <0>        -0.1260
     19 C15         2.3707    1.2758    0.9063 C.3       1 <0>        -0.0754
     20 H3          2.9697    0.5178    0.3803 H         1 <0>         0.1103
     21 C16         3.4051    2.2626    1.4083 C.3       1 <0>         0.0555
     22 H4          4.0381    1.7474    2.1458 H         1 <0>         0.1567
     23 C17         2.8935    3.4833    2.1586 C.3       1 <0>        -0.0902
     24 O2          0.8474   -0.4891   -1.0539 O.3       1 <0>        -0.6006
     25 O3         -2.2022    5.1005    0.2109 O.3       1 <0>        -0.4977
     26 H5          5.7090    3.9483   -0.4230 H         1 <0>         0.1274
     27 H6          5.9329    3.1131    1.1514 H         1 <0>         0.1276
     28 H7          4.8117    4.5111    1.0278 H         1 <0>         0.1242
     29 H8          2.8364    4.2308   -0.5288 H         1 <0>         0.1269
     30 H9          3.8587    3.4420   -1.7775 H         1 <0>         0.1377
     31 H10         1.4114    2.8988   -1.9533 H         1 <0>         0.1137
     32 H11         2.4604    1.4545   -1.7523 H         1 <0>         0.1063
     33 H12         1.5475    5.9411    2.6435 H         1 <0>         0.1395
     34 H13        -0.6464    6.5349    1.7632 H         1 <0>         0.1416
     35 H14         0.2317   -1.1917    2.0179 H         1 <0>         0.1477
     36 H15         2.1406    0.1029    2.7882 H         1 <0>         0.1340
     37 H16         3.6986    4.2324    2.1340 H         1 <0>         0.1008
     38 H17         2.7180    3.1677    3.1976 H         1 <0>         0.1188
     39 H18         0.9774   -1.5668   -1.2321 H         1 <0>         0.4165
     40 H19        -2.7628    4.4275   -0.4545 H         1 <0>         0.4515
     41 H20         4.5071    1.8014   -0.2854 H         1 <0>         0.4370
@<TRIPOS>BOND
     1    1    2 1
     2    1   26 1
     3    1   27 1
     4    1   28 1
     5    2   21 1
     6    2    3 1
     7    2   41 1
     8    3    4 1
     9    3   29 1
    10    3   30 1
    11    4    5 1
    12    4   31 1
    13    4   32 1
    14    5   13 1
    15    5   19 1
    16    5    6 1
    17    6   11 ar
    18    6    7 ar
    19    7   23 1
    20    7    8 ar
    21    8    9 ar
    22    8   33 1
    23    9   10 ar
    24    9   34 1
    25   10   11 ar
    26   10   25 1
    27   11   12 1
    28   12   13 1
    29   13   14 1
    30   13   15 1
    31   15   16 1
    32   15   17 1
    33   15   24 1
    34   17   18 2
    35   17   35 1
    36   18   19 1
    37   18   36 1
    38   19   20 1
    39   19   21 1
    40   21   22 1
    41   21   23 1
    42   23   37 1
    43   23   38 1
    44   24   39 1
    45   25   40 1
@<TRIPOS>MOLECULE
ZINC05966698
   39    41     0     0     0
SMALL
USER_CHARGES
3-(6-methyl-6-azabicyclo[3.3.1]non-1-yl)phenol
@<TRIPOS>ATOM
      1 C1         -3.9625    3.5082   -0.6811 C.3       1 <0>        -0.0429
      2 C2         -3.0781    1.5347    0.4294 C.3       1 <0>        -0.0069
      3 C3         -2.0816    0.9744    1.4330 C.3       1 <0>        -0.1321
      4 C4         -0.6883    1.5742    1.2875 C.3       1 <0>        -0.0096
      5 C5         -0.0128    1.0919    0.0080 C.3       1 <0>        -0.1136
      6 C6         -0.7176    1.5916   -1.2440 C.3       1 <0>        -0.1332
      7 C7         -0.9894    3.0884   -1.2004 C.3       1 <0>        -0.1257
      8 C8         -1.6538    3.5214    0.0997 C.3       1 <0>         0.0351
      9 H1         -1.7184    4.6216    0.1044 H         1 <0>         0.1301
     10 C9         -0.7724    3.1023    1.2821 C.3       1 <0>        -0.1341
     11 C10         0.1487    1.1469    2.4656 C.ar      1 <0>        -0.0735
     12 C11         0.6759    2.0980    3.3198 C.ar      1 <0>        -0.1324
     13 C12         1.4394    1.7089    4.4046 C.ar      1 <0>        -0.0943
     14 C13         1.6869    0.3686    4.6315 C.ar      1 <0>        -0.1398
     15 C14         1.1640   -0.5871    3.7729 C.ar      1 <0>         0.1167
     16 C15         0.3933   -0.1942    2.6880 C.ar      1 <0>        -0.1404
     17 O1          1.4064   -1.9059    3.9936 O.3       1 <0>        -0.4982
     18 H2         -3.6425    3.2791   -1.6976 H         1 <0>         0.1275
     19 H3         -4.9364    3.0550   -0.4960 H         1 <0>         0.1194
     20 H4         -4.0354    4.5888   -0.5581 H         1 <0>         0.1189
     21 H5         -2.9935    1.0232   -0.5270 H         1 <0>         0.1397
     22 H6         -4.0957    1.2978    0.8020 H         1 <0>         0.1167
     23 H7         -2.0176   -0.1141    1.3059 H         1 <0>         0.1103
     24 H8         -2.4493    1.1643    2.4494 H         1 <0>         0.0900
     25 H9          0.0021   -0.0041    0.0020 H         1 <0>         0.0789
     26 H10         1.0272    1.4393   -0.0000 H         1 <0>         0.0784
     27 H11        -0.0555    1.3932   -2.1078 H         1 <0>         0.0820
     28 H12        -1.6296    1.0330   -1.4267 H         1 <0>         0.0691
     29 H13        -0.0351    3.6238   -1.3040 H         1 <0>         0.1091
     30 H14        -1.6132    3.3705   -2.0528 H         1 <0>         0.0859
     31 H15         0.2227    3.5269    1.1637 H         1 <0>         0.1152
     32 H16        -1.2185    3.4514    2.2113 H         1 <0>         0.0920
     33 H17         0.4875    3.1464    3.1415 H         1 <0>         0.1277
     34 H18         1.8461    2.4533    5.0730 H         1 <0>         0.1320
     35 H19         2.2874    0.0654    5.4764 H         1 <0>         0.1337
     36 H20        -0.0153   -0.9364    2.0183 H         1 <0>         0.1283
     37 H21         2.2040   -2.2373    3.5589 H         1 <0>         0.3975
     38 N1         -3.0320    3.0144    0.3503 N.4       1 <0>        -0.3874
     39 H22        -3.3398    3.3843    1.2573 H         1 <0>         0.4297
@<TRIPOS>BOND
     1    1   18 1
     2    1   19 1
     3    1   20 1
     4    1   38 1
     5    2    3 1
     6    2   21 1
     7    2   22 1
     8    2   38 1
     9    3    4 1
    10    3   23 1
    11    3   24 1
    12    4   10 1
    13    4    5 1
    14    4   11 1
    15    5    6 1
    16    5   25 1
    17    5   26 1
    18    6    7 1
    19    6   27 1
    20    6   28 1
    21    7    8 1
    22    7   29 1
    23    7   30 1
    24    8    9 1
    25    8   10 1
    26    8   38 1
    27   10   31 1
    28   10   32 1
    29   11   16 ar
    30   11   12 ar
    31   12   13 ar
    32   12   33 1
    33   13   14 ar
    34   13   34 1
    35   14   15 ar
    36   14   35 1
    37   15   16 ar
    38   15   17 1
    39   16   36 1
    40   17   37 1
    41   38   39 1
@<TRIPOS>MOLECULE
ZINC05561290
   64    69     0     0     0
SMALL
USER_CHARGES
(1-hydroxy-1-methyl-butyl)-methoxy-methyl-BLAHol
@<TRIPOS>ATOM
      1 C1         -1.8728   -0.2831   -1.2025 C.3       1 <0>        -0.1541
      2 C2         -0.6848    0.6793   -1.2582 C.3       1 <0>        -0.1239
      3 C3          0.0983    0.5993    0.0538 C.3       1 <0>        -0.1541
      4 C4          1.2864    1.5618   -0.0018 C.3       1 <0>         0.1447
      5 C5          2.1134    1.2790   -1.2576 C.3       1 <0>        -0.1484
      6 C6          2.1599    1.3660    1.2390 C.3       1 <0>        -0.0878
      7 H1          2.4452    0.3170    1.3175 H         1 <0>         0.0972
      8 C7          3.4237    2.2284    1.1121 C.3       1 <0>        -0.1123
      9 C8          3.4807    3.1961    2.2845 C.3       1 <0>        -0.0357
     10 C9          2.1982    4.0134    2.2942 C.2       1 <0>        -0.1301
     11 C10         1.1012    3.2642    2.4075 C.2       1 <0>        -0.1567
     12 C11         1.3632    1.7683    2.4908 C.3       1 <0>         0.1410
     13 C12         2.2435    1.5017    3.7211 C.3       1 <0>         0.0813
     14 H2          2.5135    0.4485    3.7978 H         1 <0>         0.1268
     15 C13         3.4897    2.3807    3.5902 C.3       1 <0>        -0.0503
     16 C14         4.7776    1.6202    3.7697 C.3       1 <0>        -0.1227
     17 C15         5.9891    2.5376    3.5870 C.3       1 <0>        -0.0073
     18 C16         4.6958    4.1035    2.2915 C.3       1 <0>         0.0694
     19 H3          4.6973    4.7136    1.3882 H         1 <0>         0.1496
     20 C17         4.8114    5.0106    3.5172 C.3       1 <0>        -0.0920
     21 C18         3.8736    4.6793    4.6284 C.ar      1 <0>        -0.0484
     22 C19         3.2489    3.4471    4.6166 C.ar      1 <0>        -0.1771
     23 C20         2.1629    3.0874    5.3910 C.ar      1 <0>         0.1137
     24 C21         1.8394    3.9224    6.4701 C.ar      1 <0>         0.1018
     25 C22         2.5576    5.1103    6.5859 C.ar      1 <0>        -0.0988
     26 C23         3.5306    5.5060    5.6806 C.ar      1 <0>        -0.1176
     27 O1          0.8695    3.5877    7.3627 O.3       1 <0>        -0.4810
     28 O2          1.5991    1.9577    4.9246 O.3       1 <0>        -0.2691
     29 C24         7.1136    4.0140    2.0286 C.3       1 <0>        -0.0474
     30 O3          0.1420    1.0307    2.5727 O.3       1 <0>        -0.3502
     31 C25        -0.6552    1.3514    3.7145 C.3       1 <0>         0.0146
     32 O4          0.8077    2.9077   -0.0399 O.3       1 <0>        -0.5497
     33 H4         -1.5097   -1.3006   -1.0576 H         1 <0>         0.0530
     34 H5         -2.5245   -0.0084   -0.3731 H         1 <0>         0.0534
     35 H6         -2.4307   -0.2261   -2.1372 H         1 <0>         0.0550
     36 H7         -1.0479    1.6968   -1.4031 H         1 <0>         0.0635
     37 H8         -0.0331    0.4046   -2.0876 H         1 <0>         0.0618
     38 H9          0.4615   -0.4182    0.1987 H         1 <0>         0.0685
     39 H10        -0.5533    0.8741    0.8832 H         1 <0>         0.1007
     40 H11         2.9775    1.9430   -1.2807 H         1 <0>         0.0589
     41 H12         2.4517    0.2429   -1.2441 H         1 <0>         0.0705
     42 H13         1.5003    1.4495   -2.1425 H         1 <0>         0.0753
     43 H14         4.3054    1.5877    1.1245 H         1 <0>         0.0664
     44 H15         3.3917    2.7872    0.1767 H         1 <0>         0.1068
     45 H16         2.1782    5.0905    2.2173 H         1 <0>         0.1389
     46 H17         0.1072    3.6854    2.4380 H         1 <0>         0.1380
     47 H18         4.8025    1.1901    4.7710 H         1 <0>         0.1173
     48 H19         4.8237    0.8164    3.0350 H         1 <0>         0.0982
     49 H20         6.9018    1.9423    3.6146 H         1 <0>         0.1375
     50 H21         6.0122    3.2718    4.3923 H         1 <0>         0.1357
     51 H22         4.6259    6.0381    3.2044 H         1 <0>         0.1187
     52 H23         5.8312    4.9487    3.8969 H         1 <0>         0.1007
     53 H24         2.3451    5.7572    7.4241 H         1 <0>         0.1406
     54 H25         4.0209    6.4610    5.7984 H         1 <0>         0.1366
     55 H26         1.1904    3.0790    8.1199 H         1 <0>         0.3971
     56 H27         7.2319    4.7750    2.8000 H         1 <0>         0.1241
     57 H28         7.9794    3.3519    2.0356 H         1 <0>         0.1266
     58 H29         7.0316    4.4946    1.0537 H         1 <0>         0.1267
     59 H30        -0.9191    2.4087    3.6880 H         1 <0>         0.0452
     60 H31        -1.5640    0.7497    3.7037 H         1 <0>         0.0918
     61 H32        -0.0906    1.1406    4.6227 H         1 <0>         0.0692
     62 H33         0.0862    3.0861    0.5788 H         1 <0>         0.3749
     63 N1          5.8894    3.2182    2.2849 N.4       1 <0>        -0.4038
     64 H34         5.7858    2.5158    1.5432 H         1 <0>         0.4271
@<TRIPOS>BOND
     1    1    2 1
     2    1   33 1
     3    1   34 1
     4    1   35 1
     5    2    3 1
     6    2   36 1
     7    2   37 1
     8    3    4 1
     9    3   38 1
    10    3   39 1
    11    4    5 1
    12    4    6 1
    13    4   32 1
    14    5   40 1
    15    5   41 1
    16    5   42 1
    17    6    7 1
    18    6   12 1
    19    6    8 1
    20    8    9 1
    21    8   43 1
    22    8   44 1
    23    9   15 1
    24    9   18 1
    25    9   10 1
    26   10   11 2
    27   10   45 1
    28   11   12 1
    29   11   46 1
    30   12   13 1
    31   12   30 1
    32   13   14 1
    33   13   28 1
    34   13   15 1
    35   15   22 1
    36   15   16 1
    37   16   17 1
    38   16   47 1
    39   16   48 1
    40   17   49 1
    41   17   50 1
    42   17   63 1
    43   18   19 1
    44   18   20 1
    45   18   63 1
    46   20   21 1
    47   20   51 1
    48   20   52 1
    49   21   26 ar
    50   21   22 ar
    51   22   23 ar
    52   23   24 ar
    53   23   28 1
    54   24   25 ar
    55   24   27 1
    56   25   26 ar
    57   25   53 1
    58   26   54 1
    59   27   55 1
    60   29   56 1
    61   29   57 1
    62   29   58 1
    63   29   63 1
    64   30   31 1
    65   31   59 1
    66   31   60 1
    67   31   61 1
    68   32   62 1
    69   63   64 1
@<TRIPOS>MOLECULE
ZINC29206920
   82    84     0     0     0
SMALL
USER_CHARGES

@<TRIPOS>ATOM
      1 C1         -0.7841    0.4745   -0.5040 C.3       1 <0>        -0.1226
      2 C2         -0.2225   -0.9084   -0.1678 C.3       1 <0>        -0.0076
      3 C3         -1.3753   -1.8659    0.1403 C.3       1 <0>         0.1496
      4 H1         -1.6891   -1.7355    1.1760 H         1 <0>         0.1196
      5 C4         -0.9190   -3.2865   -0.0712 C.2       1 <0>         0.4915
      6 O1          0.2447   -3.5316   -0.3093 O.2       1 <0>        -0.4665
      7 N1         -1.8375   -4.2924    0.0103 N.am      1 <0>        -0.7176
      8 C5         -1.3144   -5.6594   -0.2050 C.3       1 <0>         0.0987
      9 C6         -0.2871   -5.9549    0.8574 C.2       1 <0>         0.5172
     10 O2         -0.5433   -5.7922    2.0316 O.2       1 <0>        -0.5347
     11 N2          0.9450   -6.4130    0.4638 N.am      1 <0>        -0.6975
     12 C7          1.8822   -6.6651    1.5890 C.3       1 <0>         0.1263
     13 H2          1.3601   -6.5380    2.5373 H         1 <0>         0.1123
     14 C8          3.0135   -5.6738    1.4955 C.2       1 <0>         0.5124
     15 O3          4.0661   -5.9862    0.9804 O.2       1 <0>        -0.4909
     16 N3          2.8333   -4.4187    1.9997 N.am      1 <0>        -0.7103
     17 C9          3.9880   -3.5028    1.8719 C.3       1 <0>         0.0915
     18 H3          4.7405   -3.7568    2.6185 H         1 <0>         0.0675
     19 C10         3.5044   -2.0690    2.0980 C.3       1 <0>        -0.0197
     20 S1          2.6735   -1.4683    0.6015 S.3       1 <0>        -0.0694
     21 S2          0.8638   -0.7844    1.2797 S.3       1 <0>        -0.2223
     22 C11         2.5238   -2.0406    3.2721 C.3       1 <0>        -0.1519
     23 C12         4.7021   -1.1702    2.4120 C.3       1 <0>        -0.1277
     24 C13         4.5821   -3.6278    0.4926 C.2       1 <0>         0.5124
     25 O4          3.9951   -4.2599   -0.3690 O.co2     1 <0>        -0.6433
     26 O5          5.6497   -3.0967    0.2383 O.co2     1 <0>        -0.7052
     27 C14         2.4340   -8.0888    1.4911 C.3       1 <0>        -0.0780
     28 C15         1.3119   -9.0766    1.6814 C.ar      1 <0>        -0.0675
     29 C16         0.9960   -9.5280    2.9492 C.ar      1 <0>        -0.1140
     30 C17        -0.0332  -10.4341    3.1237 C.ar      1 <0>        -0.1189
     31 C18        -0.7469  -10.8884    2.0305 C.ar      1 <0>        -0.1291
     32 C19        -0.4316  -10.4363    0.7628 C.ar      1 <0>        -0.1213
     33 C20         0.5949   -9.5270    0.5888 C.ar      1 <0>        -0.1100
     34 N4         -2.5015   -1.5771   -0.7511 N.am      1 <0>        -0.7141
     35 C21        -3.7559   -1.8993   -0.3782 C.2       1 <0>         0.5207
     36 O6         -3.9525   -2.4283    0.6952 O.2       1 <0>        -0.5198
     37 C22        -4.9144   -1.6021   -1.2952 C.3       1 <0>         0.0849
     38 H4         -4.6276   -1.8177   -2.3245 H         1 <0>         0.1056
     39 C23        -5.2975   -0.1260   -1.1711 C.3       1 <0>        -0.1126
     40 C24        -6.3727    0.2000   -2.1753 C.ar      1 <0>        -0.0933
     41 C25        -6.0259    0.6295   -3.4429 C.ar      1 <0>        -0.0957
     42 C26        -7.0097    0.9295   -4.3652 C.ar      1 <0>        -0.1401
     43 C27        -8.3467    0.7990   -4.0186 C.ar      1 <0>         0.1035
     44 C28        -8.6921    0.3674   -2.7462 C.ar      1 <0>        -0.1400
     45 C29        -7.7045    0.0637   -1.8293 C.ar      1 <0>        -0.1027
     46 O7         -9.3164    1.0939   -4.9239 O.3       1 <0>        -0.5004
     47 N5         -6.0622   -2.4390   -0.9211 N.3       1 <0>        -0.8245
     48 C30         0.5758   -1.4385   -1.3606 C.3       1 <0>        -0.1756
     49 H5          0.0373    1.1566   -0.7235 H         1 <0>         0.0747
     50 H6         -1.4368    0.3999   -1.3738 H         1 <0>         0.0625
     51 H7         -1.3527    0.8521    0.3457 H         1 <0>         0.0638
     52 H8         -2.7738   -4.1219    0.1977 H         1 <0>         0.4151
     53 H9         -2.1305   -6.3786   -0.1348 H         1 <0>         0.1071
     54 H10        -0.8512   -5.7230   -1.1896 H         1 <0>         0.0876
     55 H11         1.1828   -6.5589   -0.4652 H         1 <0>         0.4153
     56 H12         2.0009   -4.1443    2.4152 H         1 <0>         0.3910
     57 H13         2.9807   -2.5184    4.1387 H         1 <0>         0.0714
     58 H14         2.2774   -1.0070    3.5148 H         1 <0>         0.0652
     59 H15         1.6146   -2.5764    2.9992 H         1 <0>         0.0689
     60 H16         5.4007   -1.1904    1.5755 H         1 <0>         0.0899
     61 H17         4.3575   -0.1488    2.5730 H         1 <0>         0.0556
     62 H18         5.2015   -1.5313    3.3111 H         1 <0>         0.0613
     63 H19         2.8859   -8.2367    0.5103 H         1 <0>         0.0885
     64 H20         3.1868   -8.2406    2.2646 H         1 <0>         0.0855
     65 H21         1.5536   -9.1730    3.8033 H         1 <0>         0.1196
     66 H22        -0.2796  -10.7873    4.1142 H         1 <0>         0.1177
     67 H23        -1.5506  -11.5969    2.1668 H         1 <0>         0.1161
     68 H24        -0.9889  -10.7916   -0.0913 H         1 <0>         0.1177
     69 H25         0.8388   -9.1709   -0.4013 H         1 <0>         0.1196
     70 H26        -2.3443   -1.1539   -1.6097 H         1 <0>         0.4056
     71 H27        -5.6685    0.0697   -0.1650 H         1 <0>         0.0833
     72 H28        -4.4216    0.4940   -1.3623 H         1 <0>         0.0860
     73 H29        -4.9849    0.7309   -3.7122 H         1 <0>         0.1293
     74 H30        -6.7383    1.2656   -5.3550 H         1 <0>         0.1301
     75 H31        -9.7322    0.2651   -2.4740 H         1 <0>         0.1296
     76 H32        -7.9728   -0.2765   -0.8400 H         1 <0>         0.1260
     77 H33        -9.5884    0.3421   -5.4679 H         1 <0>         0.3917
     78 H34        -6.3473   -2.2576    0.0297 H         1 <0>         0.3525
     79 H35        -6.8309   -2.3055   -1.5609 H         1 <0>         0.3494
     80 H36         1.1317   -0.6202   -1.8182 H         1 <0>         0.0570
     81 H37         1.2720   -2.2050   -1.0201 H         1 <0>         0.1395
     82 H38        -0.1076   -1.8679   -2.0932 H         1 <0>         0.0573
@<TRIPOS>BOND
     1    1    2 1
     2    1   49 1
     3    1   50 1
     4    1   51 1
     5    2   21 1
     6    2    3 1
     7    2   48 1
     8    3    4 1
     9    3    5 1
    10    3   34 1
    11    5    6 2
    12    5    7 am
    13    7    8 1
    14    7   52 1
    15    8    9 1
    16    8   53 1
    17    8   54 1
    18    9   10 2
    19    9   11 am
    20   11   12 1
    21   11   55 1
    22   12   13 1
    23   12   14 1
    24   12   27 1
    25   14   15 2
    26   14   16 am
    27   16   17 1
    28   16   56 1
    29   17   18 1
    30   17   19 1
    31   17   24 1
    32   19   20 1
    33   19   22 1
    34   19   23 1
    35   20   21 1
    36   22   57 1
    37   22   58 1
    38   22   59 1
    39   23   60 1
    40   23   61 1
    41   23   62 1
    42   24   25 2
    43   24   26 1
    44   27   28 1
    45   27   63 1
    46   27   64 1
    47   28   33 ar
    48   28   29 ar
    49   29   30 ar
    50   29   65 1
    51   30   31 ar
    52   30   66 1
    53   31   32 ar
    54   31   67 1
    55   32   33 ar
    56   32   68 1
    57   33   69 1
    58   34   35 am
    59   34   70 1
    60   35   36 2
    61   35   37 1
    62   37   38 1
    63   37   39 1
    64   37   47 1
    65   39   40 1
    66   39   71 1
    67   39   72 1
    68   40   45 ar
    69   40   41 ar
    70   41   42 ar
    71   41   73 1
    72   42   43 ar
    73   42   74 1
    74   43   44 ar
    75   43   46 1
    76   44   45 ar
    77   44   75 1
    78   45   76 1
    79   46   77 1
    80   47   78 1
    81   47   79 1
    82   48   80 1
    83   48   81 1
    84   48   82 1
@<TRIPOS>MOLECULE
ZINC29206920
   83    85     0     0     0
SMALL
USER_CHARGES

@<TRIPOS>ATOM
      1 C1         -0.7841    0.4745   -0.5040 C.3       1 <0>        -0.1249
      2 C2         -0.2225   -0.9084   -0.1678 C.3       1 <0>        -0.0153
      3 C3         -1.3753   -1.8659    0.1403 C.3       1 <0>         0.1472
      4 H1         -1.6891   -1.7355    1.1760 H         1 <0>         0.1302
      5 C4         -0.9190   -3.2865   -0.0712 C.2       1 <0>         0.4869
      6 O1          0.2447   -3.5316   -0.3093 O.2       1 <0>        -0.4431
      7 N1         -1.8375   -4.2924    0.0103 N.am      1 <0>        -0.7233
      8 C5         -1.3144   -5.6594   -0.2050 C.3       1 <0>         0.0971
      9 C6         -0.2871   -5.9549    0.8574 C.2       1 <0>         0.5130
     10 O2         -0.5433   -5.7922    2.0316 O.2       1 <0>        -0.5343
     11 N2          0.9450   -6.4130    0.4638 N.am      1 <0>        -0.6942
     12 C7          1.8822   -6.6651    1.5890 C.3       1 <0>         0.1272
     13 H2          1.3601   -6.5380    2.5373 H         1 <0>         0.1133
     14 C8          3.0135   -5.6738    1.4955 C.2       1 <0>         0.5104
     15 O3          4.0661   -5.9862    0.9804 O.2       1 <0>        -0.4844
     16 N3          2.8333   -4.4187    1.9997 N.am      1 <0>        -0.7118
     17 C9          3.9880   -3.5028    1.8719 C.3       1 <0>         0.0899
     18 H3          4.7405   -3.7568    2.6185 H         1 <0>         0.0714
     19 C10         3.5044   -2.0690    2.0980 C.3       1 <0>        -0.0182
     20 S1          2.6735   -1.4683    0.6015 S.3       1 <0>        -0.0615
     21 S2          0.8638   -0.7844    1.2797 S.3       1 <0>        -0.2170
     22 C11         2.5238   -2.0406    3.2721 C.3       1 <0>        -0.1519
     23 C12         4.7021   -1.1702    2.4120 C.3       1 <0>        -0.1304
     24 C13         4.5821   -3.6278    0.4926 C.2       1 <0>         0.5112
     25 O4          3.9951   -4.2599   -0.3690 O.co2     1 <0>        -0.6461
     26 O5          5.6497   -3.0967    0.2383 O.co2     1 <0>        -0.6994
     27 C14         2.4340   -8.0888    1.4911 C.3       1 <0>        -0.0798
     28 C15         1.3119   -9.0766    1.6814 C.ar      1 <0>        -0.0684
     29 C16         0.9960   -9.5280    2.9492 C.ar      1 <0>        -0.1131
     30 C17        -0.0332  -10.4341    3.1237 C.ar      1 <0>        -0.1175
     31 C18        -0.7469  -10.8884    2.0305 C.ar      1 <0>        -0.1285
     32 C19        -0.4316  -10.4363    0.7628 C.ar      1 <0>        -0.1225
     33 C20         0.5949   -9.5270    0.5888 C.ar      1 <0>        -0.1118
     34 N4         -2.5015   -1.5771   -0.7511 N.am      1 <0>        -0.6826
     35 C21        -3.7559   -1.8993   -0.3782 C.2       1 <0>         0.4981
     36 O6         -3.9525   -2.4283    0.6952 O.2       1 <0>        -0.5157
     37 C22        -4.9144   -1.6021   -1.2952 C.3       1 <0>         0.0138
     38 H4         -4.6276   -1.8177   -2.3245 H         1 <0>         0.1684
     39 C23        -5.2975   -0.1260   -1.1711 C.3       1 <0>        -0.0924
     40 C24        -6.3727    0.2000   -2.1753 C.ar      1 <0>        -0.1404
     41 C25        -6.0259    0.6295   -3.4429 C.ar      1 <0>        -0.0825
     42 C26        -7.0097    0.9295   -4.3652 C.ar      1 <0>        -0.1346
     43 C27        -8.3467    0.7990   -4.0186 C.ar      1 <0>         0.1296
     44 C28        -8.6921    0.3674   -2.7462 C.ar      1 <0>        -0.1368
     45 C29        -7.7045    0.0637   -1.8293 C.ar      1 <0>        -0.1192
     46 O7         -9.3164    1.0939   -4.9239 O.3       1 <0>        -0.4951
     47 N5         -6.0622   -2.4390   -0.9211 N.4       1 <0>        -0.6214
     48 C30         0.5758   -1.4385   -1.3606 C.3       1 <0>        -0.1794
     49 H5          0.0373    1.1566   -0.7235 H         1 <0>         0.0819
     50 H6         -1.4368    0.3999   -1.3738 H         1 <0>         0.0574
     51 H7         -1.3527    0.8521    0.3457 H         1 <0>         0.0658
     52 H8         -2.7738   -4.1219    0.1977 H         1 <0>         0.4032
     53 H9         -2.1305   -6.3786   -0.1348 H         1 <0>         0.1082
     54 H10        -0.8512   -5.7230   -1.1896 H         1 <0>         0.0919
     55 H11         1.1828   -6.5589   -0.4652 H         1 <0>         0.4163
     56 H12         2.0009   -4.1443    2.4152 H         1 <0>         0.3893
     57 H13         2.9807   -2.5184    4.1387 H         1 <0>         0.0751
     58 H14         2.2774   -1.0070    3.5148 H         1 <0>         0.0657
     59 H15         1.6146   -2.5764    2.9992 H         1 <0>         0.0668
     60 H16         5.4007   -1.1904    1.5755 H         1 <0>         0.0916
     61 H17         4.3575   -0.1488    2.5730 H         1 <0>         0.0570
     62 H18         5.2015   -1.5313    3.3111 H         1 <0>         0.0651
     63 H19         2.8859   -8.2367    0.5103 H         1 <0>         0.0898
     64 H20         3.1868   -8.2406    2.2646 H         1 <0>         0.0881
     65 H21         1.5536   -9.1730    3.8033 H         1 <0>         0.1207
     66 H22        -0.2796  -10.7873    4.1142 H         1 <0>         0.1192
     67 H23        -1.5506  -11.5969    2.1668 H         1 <0>         0.1169
     68 H24        -0.9889  -10.7916   -0.0913 H         1 <0>         0.1174
     69 H25         0.8388   -9.1709   -0.4013 H         1 <0>         0.1187
     70 H26        -2.3443   -1.1539   -1.6097 H         1 <0>         0.4159
     71 H27        -5.6685    0.0697   -0.1650 H         1 <0>         0.1107
     72 H28        -4.4216    0.4940   -1.3623 H         1 <0>         0.1281
     73 H29        -4.9849    0.7309   -3.7122 H         1 <0>         0.1373
     74 H30        -6.7383    1.2656   -5.3550 H         1 <0>         0.1400
     75 H31        -9.7322    0.2651   -2.4740 H         1 <0>         0.1388
     76 H32        -7.9728   -0.2765   -0.8400 H         1 <0>         0.1293
     77 H33        -9.5884    0.3421   -5.4679 H         1 <0>         0.4007
     78 H34        -6.8378   -2.2401   -1.5350 H         1 <0>         0.4396
     79 H35        -5.8096   -3.4125   -1.0029 H         1 <0>         0.4410
     80 H36         1.1317   -0.6202   -1.8182 H         1 <0>         0.0640
     81 H37         1.2720   -2.2050   -1.0201 H         1 <0>         0.1406
     82 H38        -0.1076   -1.8679   -2.0932 H         1 <0>         0.0552
     83 H39        -6.3276   -2.2394    0.0317 H         1 <0>         0.4425
@<TRIPOS>BOND
     1    1    2 1
     2    1   49 1
     3    1   50 1
     4    1   51 1
     5    2   21 1
     6    2    3 1
     7    2   48 1
     8    3    4 1
     9    3    5 1
    10    3   34 1
    11    5    6 2
    12    5    7 am
    13    7    8 1
    14    7   52 1
    15    8    9 1
    16    8   53 1
    17    8   54 1
    18    9   10 2
    19    9   11 am
    20   11   12 1
    21   11   55 1
    22   12   13 1
    23   12   14 1
    24   12   27 1
    25   14   15 2
    26   14   16 am
    27   16   17 1
    28   16   56 1
    29   17   18 1
    30   17   19 1
    31   17   24 1
    32   19   20 1
    33   19   22 1
    34   19   23 1
    35   20   21 1
    36   22   57 1
    37   22   58 1
    38   22   59 1
    39   23   60 1
    40   23   61 1
    41   23   62 1
    42   24   25 2
    43   24   26 1
    44   27   28 1
    45   27   63 1
    46   27   64 1
    47   28   33 ar
    48   28   29 ar
    49   29   30 ar
    50   29   65 1
    51   30   31 ar
    52   30   66 1
    53   31   32 ar
    54   31   67 1
    55   32   33 ar
    56   32   68 1
    57   33   69 1
    58   34   35 am
    59   34   70 1
    60   35   36 2
    61   35   37 1
    62   37   38 1
    63   37   39 1
    64   37   47 1
    65   39   40 1
    66   39   71 1
    67   39   72 1
    68   40   45 ar
    69   40   41 ar
    70   41   42 ar
    71   41   73 1
    72   42   43 ar
    73   42   74 1
    74   43   44 ar
    75   43   46 1
    76   44   45 ar
    77   44   75 1
    78   45   76 1
    79   46   77 1
    80   47   78 1
    81   47   79 1
    82   47   83 1
    83   48   80 1
    84   48   81 1
    85   48   82 1
@<TRIPOS>MOLECULE
ZINC03995327
   51    55     0     0     0
SMALL
USER_CHARGES

@<TRIPOS>ATOM
      1 C1         -0.0215    1.4454   -0.4090 C.3       1 <0>        -0.0489
      2 N1         -0.0003   -0.0173   -0.2748 N.4       1 <0>        -0.3816
      3 C2          0.7149   -0.6040   -1.4160 C.3       1 <0>        -0.0339
      4 C3          0.6400   -2.1279   -1.3236 C.3       1 <0>        -0.1333
      5 C4          1.2966   -2.6029   -0.0237 C.3       1 <0>        -0.0171
      6 C5          1.0632   -4.1090    0.1134 C.3       1 <0>        -0.0650
      7 C6          1.4838   -4.5968    1.4757 C.ar      1 <0>         0.1613
      8 C7          1.6450   -3.7302    2.5492 C.ar      1 <0>        -0.1351
      9 C8          2.0188   -4.2226    3.7739 C.ar      1 <0>        -0.0511
     10 C9          2.2397   -5.6034    3.9080 C.ar      1 <0>        -0.1008
     11 C10         2.6265   -6.1724    5.1318 C.ar      1 <0>        -0.0998
     12 C11         2.8328   -7.5157    5.2137 C.ar      1 <0>        -0.1069
     13 C12         2.6649   -8.3339    4.0981 C.ar      1 <0>        -0.0917
     14 C13         2.2900   -7.8158    2.8970 C.ar      1 <0>        -0.0958
     15 C14         2.0659   -6.4333    2.7727 C.ar      1 <0>         0.1374
     16 N2          1.6952   -5.8926    1.6122 N.ar      1 <0>        -0.4715
     17 C15         1.4376   -2.2452    2.4300 C.3       1 <0>        -0.0660
     18 C16         0.6381   -1.9013    1.1708 C.3       1 <0>        -0.0926
     19 H1         -0.3923   -2.2397    1.2796 H         1 <0>         0.1098
     20 C17         0.6851   -0.3847    0.9679 C.3       1 <0>        -0.0332
     21 C18         2.7721   -2.2977   -0.0506 C.ar      1 <0>        -0.0574
     22 C19         3.2050   -0.9886   -0.1574 C.ar      1 <0>        -0.1753
     23 C20         4.5578   -0.7054   -0.1824 C.ar      1 <0>        -0.0886
     24 C21         5.4810   -1.7301   -0.1012 C.ar      1 <0>        -0.1409
     25 C22         5.0494   -3.0440    0.0060 C.ar      1 <0>         0.1306
     26 C23         3.6910   -3.3252    0.0370 C.ar      1 <0>        -0.1356
     27 O1          5.9555   -4.0537    0.0861 O.3       1 <0>        -0.4951
     28 H2          1.0007    1.8230   -0.4328 H         1 <0>         0.1210
     29 H3         -0.5312    1.7181   -1.3331 H         1 <0>         0.1268
     30 H4         -0.5499    1.8805    0.4393 H         1 <0>         0.1258
     31 H5          0.2525   -0.2721   -2.3456 H         1 <0>         0.1366
     32 H6          1.7580   -0.2884   -1.3937 H         1 <0>         0.1488
     33 H7         -0.4040   -2.4408   -1.3375 H         1 <0>         0.0985
     34 H8          1.1603   -2.5684   -2.1742 H         1 <0>         0.1192
     35 H9          0.0042   -4.3221   -0.0323 H         1 <0>         0.0980
     36 H10         1.6411   -4.6319   -0.6486 H         1 <0>         0.1019
     37 H11         2.1413   -3.5612    4.6188 H         1 <0>         0.1399
     38 H12         2.7598   -5.5483    6.0031 H         1 <0>         0.1325
     39 H13         3.1308   -7.9528    6.1552 H         1 <0>         0.1333
     40 H14         2.8355   -9.3965    4.1883 H         1 <0>         0.1357
     41 H15         2.1646   -8.4642    2.0425 H         1 <0>         0.1385
     42 H16         0.8964   -1.8881    3.3062 H         1 <0>         0.0898
     43 H17         2.4080   -1.7510    2.3839 H         1 <0>         0.0897
     44 H18         1.7242   -0.0594    0.9169 H         1 <0>         0.1484
     45 H19         0.1962    0.1073    1.8088 H         1 <0>         0.1358
     46 H20         2.4849   -0.1863   -0.2217 H         1 <0>         0.1272
     47 H21         4.8934    0.3178   -0.2659 H         1 <0>         0.1330
     48 H22         6.5378   -1.5084   -0.1215 H         1 <0>         0.1357
     49 H23         3.3524   -4.3469    0.1252 H         1 <0>         0.1387
     50 H24         6.2193   -4.2746    0.9897 H         1 <0>         0.3985
     51 H25        -0.9464   -0.3673   -0.2538 H         1 <0>         0.4248
@<TRIPOS>BOND
     1    1    2 1
     2    1   28 1
     3    1   29 1
     4    1   30 1
     5    2   20 1
     6    2    3 1
     7    2   51 1
     8    3    4 1
     9    3   31 1
    10    3   32 1
    11    4    5 1
    12    4   33 1
    13    4   34 1
    14    5   18 1
    15    5    6 1
    16    5   21 1
    17    6    7 1
    18    6   35 1
    19    6   36 1
    20    7   16 ar
    21    7    8 ar
    22    8    9 ar
    23    8   17 1
    24    9   10 ar
    25    9   37 1
    26   10   15 ar
    27   10   11 ar
    28   11   12 ar
    29   11   38 1
    30   12   13 ar
    31   12   39 1
    32   13   14 ar
    33   13   40 1
    34   14   15 ar
    35   14   41 1
    36   15   16 ar
    37   17   18 1
    38   17   42 1
    39   17   43 1
    40   18   19 1
    41   18   20 1
    42   20   44 1
    43   20   45 1
    44   21   26 ar
    45   21   22 ar
    46   22   23 ar
    47   22   46 1
    48   23   24 ar
    49   23   47 1
    50   24   25 ar
    51   24   48 1
    52   25   26 ar
    53   25   27 1
    54   26   49 1
    55   27   50 1
@<TRIPOS>MOLECULE
ZINC03995327
   52    56     0     0     0
SMALL
USER_CHARGES

@<TRIPOS>ATOM
      1 C1         -0.0215    1.4454   -0.4090 C.3       1 <0>        -0.0513
      2 N1         -0.0003   -0.0173   -0.2748 N.4       1 <0>        -0.3822
      3 C2          0.7149   -0.6040   -1.4160 C.3       1 <0>        -0.0349
      4 C3          0.6400   -2.1279   -1.3236 C.3       1 <0>        -0.1347
      5 C4          1.2966   -2.6029   -0.0237 C.3       1 <0>        -0.0111
      6 C5          1.0632   -4.1090    0.1134 C.3       1 <0>        -0.1096
      7 C6          1.4838   -4.5968    1.4757 C.ar      1 <0>         0.2344
      8 C7          1.6450   -3.7302    2.5492 C.ar      1 <0>        -0.1285
      9 C8          2.0188   -4.2226    3.7739 C.ar      1 <0>         0.0541
     10 C9          2.2397   -5.6034    3.9080 C.ar      1 <0>        -0.0838
     11 C10         2.6265   -6.1724    5.1318 C.ar      1 <0>        -0.0633
     12 C11         2.8328   -7.5157    5.2137 C.ar      1 <0>        -0.0902
     13 C12         2.6649   -8.3339    4.0981 C.ar      1 <0>        -0.0194
     14 C13         2.2900   -7.8158    2.8971 C.ar      1 <0>        -0.1464
     15 C14         2.0659   -6.4333    2.7727 C.ar      1 <0>         0.1461
     16 N2          1.6952   -5.8926    1.6122 N.ar      1 <0>        -0.4619
     17 C15         1.4376   -2.2452    2.4300 C.3       1 <0>        -0.0729
     18 C16         0.6381   -1.9013    1.1708 C.3       1 <0>        -0.0992
     19 H1         -0.3923   -2.2397    1.2796 H         1 <0>         0.1184
     20 C17         0.6851   -0.3847    0.9679 C.3       1 <0>        -0.0333
     21 C18         2.7721   -2.2977   -0.0506 C.ar      1 <0>        -0.0715
     22 C19         3.2050   -0.9886   -0.1574 C.ar      1 <0>        -0.1684
     23 C20         4.5578   -0.7054   -0.1824 C.ar      1 <0>        -0.0752
     24 C21         5.4810   -1.7301   -0.1012 C.ar      1 <0>        -0.1316
     25 C22         5.0494   -3.0440    0.0060 C.ar      1 <0>         0.1378
     26 C23         3.6910   -3.3252    0.0370 C.ar      1 <0>        -0.1527
     27 O1          5.9555   -4.0537    0.0861 O.3       1 <0>        -0.4927
     28 H2          1.0007    1.8230   -0.4328 H         1 <0>         0.1238
     29 H3         -0.5312    1.7181   -1.3331 H         1 <0>         0.1316
     30 H4         -0.5499    1.8805    0.4393 H         1 <0>         0.1301
     31 H5          0.2525   -0.2721   -2.3456 H         1 <0>         0.1445
     32 H6          1.7580   -0.2884   -1.3937 H         1 <0>         0.1508
     33 H7         -0.4040   -2.4408   -1.3375 H         1 <0>         0.1037
     34 H8          1.1603   -2.5684   -2.1742 H         1 <0>         0.1244
     35 H9          0.0042   -4.3221   -0.0323 H         1 <0>         0.1351
     36 H10         1.6411   -4.6319   -0.6486 H         1 <0>         0.1255
     37 H11         2.1413   -3.5612    4.6188 H         1 <0>         0.1805
     38 H12         2.7598   -5.5483    6.0031 H         1 <0>         0.1635
     39 H13         3.1308   -7.9528    6.1552 H         1 <0>         0.1600
     40 H14         2.8355   -9.3965    4.1883 H         1 <0>         0.1624
     41 H15         2.1646   -8.4642    2.0425 H         1 <0>         0.1597
     42 H16         0.8964   -1.8881    3.3062 H         1 <0>         0.1138
     43 H17         2.4080   -1.7509    2.3839 H         1 <0>         0.1103
     44 H18         1.7242   -0.0594    0.9169 H         1 <0>         0.1514
     45 H19         0.1962    0.1073    1.8088 H         1 <0>         0.1439
     46 H20         2.4849   -0.1863   -0.2217 H         1 <0>         0.1333
     47 H21         4.8934    0.3178   -0.2659 H         1 <0>         0.1416
     48 H22         6.5378   -1.5084   -0.1215 H         1 <0>         0.1436
     49 H23         3.3524   -4.3469    0.1252 H         1 <0>         0.1175
     50 H24         6.2193   -4.2746    0.9897 H         1 <0>         0.4004
     51 H25        -0.9464   -0.3673   -0.2538 H         1 <0>         0.4269
     52 H26         1.5766   -6.4707    0.8423 H         1 <0>         0.4457
@<TRIPOS>BOND
     1    1    2 1
     2    1   28 1
     3    1   29 1
     4    1   30 1
     5    2   20 1
     6    2    3 1
     7    2   51 1
     8    3    4 1
     9    3   31 1
    10    3   32 1
    11    4    5 1
    12    4   33 1
    13    4   34 1
    14    5   18 1
    15    5    6 1
    16    5   21 1
    17    6    7 1
    18    6   35 1
    19    6   36 1
    20    7   16 ar
    21    7    8 ar
    22    8    9 ar
    23    8   17 1
    24    9   10 ar
    25    9   37 1
    26   10   15 ar
    27   10   11 ar
    28   11   12 ar
    29   11   38 1
    30   12   13 ar
    31   12   39 1
    32   13   14 ar
    33   13   40 1
    34   14   15 ar
    35   14   41 1
    36   15   16 ar
    37   16   52 1
    38   17   18 1
    39   17   42 1
    40   17   43 1
    41   18   19 1
    42   18   20 1
    43   20   44 1
    44   20   45 1
    45   21   26 ar
    46   21   22 ar
    47   22   23 ar
    48   22   46 1
    49   23   24 ar
    50   23   47 1
    51   24   25 ar
    52   24   48 1
    53   25   26 ar
    54   25   27 1
    55   26   49 1
    56   27   50 1
@<TRIPOS>MOLECULE
ZINC14951634
   79    82     0     0     0
SMALL
USER_CHARGES

@<TRIPOS>ATOM
      1 C1          1.9517   -1.5464   -0.2337 C.ar      1 <0>        -0.1169
      2 C2          2.3865   -0.2352   -0.2842 C.ar      1 <0>        -0.1137
      3 C3          3.7298    0.0539   -0.1328 C.ar      1 <0>        -0.1108
      4 C4          4.6382   -0.9682    0.0695 C.ar      1 <0>        -0.0879
      5 C5          4.2033   -2.2793    0.1209 C.ar      1 <0>        -0.1137
      6 C6          2.8602   -2.5685   -0.0319 C.ar      1 <0>        -0.1154
      7 C7          6.1028   -0.6531    0.2336 C.3       1 <0>        -0.0836
      8 C8          6.4134   -0.4287    1.7148 C.3       1 <0>         0.1354
      9 H1          6.0883   -1.2959    2.2896 H         1 <0>         0.1175
     10 C9          7.8972   -0.2352    1.8932 C.2       1 <0>         0.5074
     11 O1          8.3214    0.7970    2.3681 O.2       1 <0>        -0.5284
     12 N1          8.7529   -1.2093    1.5251 N.am      1 <0>        -0.8529
     13 N2          5.7052    0.7636    2.1871 N.am      1 <0>        -0.7039
     14 C10         5.4004    0.8931    3.4935 C.2       1 <0>         0.5162
     15 O2          5.7125    0.0226    4.2782 O.2       1 <0>        -0.5249
     16 C11         4.6719    2.1196    3.9794 C.3       1 <0>         0.1415
     17 H2          3.7081    2.1931    3.4756 H         1 <0>         0.1171
     18 C12         5.5057    3.3644    3.6691 C.3       1 <0>        -0.0819
     19 C13         4.7418    4.5963    4.0814 C.ar      1 <0>        -0.0827
     20 C14         3.8040    5.1461    3.2276 C.ar      1 <0>        -0.1123
     21 C15         3.1033    6.2760    3.6058 C.ar      1 <0>        -0.1140
     22 C16         3.3401    6.8560    4.8381 C.ar      1 <0>        -0.1172
     23 C17         4.2773    6.3057    5.6923 C.ar      1 <0>        -0.1138
     24 C18         4.9750    5.1732    5.3158 C.ar      1 <0>        -0.1107
     25 N3          4.4608    2.0213    5.4257 N.am      1 <0>        -0.7019
     26 C19         3.3749    1.3840    5.9064 C.2       1 <0>         0.5262
     27 O3          2.5258    0.9733    5.1440 O.2       1 <0>        -0.5234
     28 C20         3.2157    1.1818    7.3913 C.3       1 <0>         0.1205
     29 H3          3.6102    2.0451    7.9272 H         1 <0>         0.0932
     30 C21         3.9632   -0.0950    7.8302 C.3       1 <0>        -0.1185
     31 C22         3.0148   -0.7036    8.8968 C.3       1 <0>        -0.1312
     32 C23         1.6238   -0.3464    8.3162 C.3       1 <0>         0.0966
     33 N4          1.7951    0.9949    7.7210 N.am      1 <0>        -0.5969
     34 C24         0.8155    1.8972    7.5142 C.2       1 <0>         0.5010
     35 O4          1.0615    2.9397    6.9455 O.2       1 <0>        -0.5303
     36 C25        -0.5855    1.6105    7.9897 C.3       1 <0>         0.0897
     37 H4         -0.5463    1.1302    8.9674 H         1 <0>         0.1032
     38 C26        -1.2824    0.6822    6.9930 C.3       1 <0>        -0.0652
     39 C27        -2.6375    0.2971    7.5281 C.ar      1 <0>        -0.0769
     40 C28        -2.7719   -0.8261    8.3232 C.ar      1 <0>        -0.1026
     41 C29        -4.0131   -1.1815    8.8146 C.ar      1 <0>        -0.1458
     42 C30        -5.1252   -0.4102    8.5100 C.ar      1 <0>         0.1003
     43 C31        -4.9877    0.7165    7.7124 C.ar      1 <0>        -0.1452
     44 C32        -3.7435    1.0706    7.2278 C.ar      1 <0>        -0.0732
     45 O5         -6.3474   -0.7580    8.9919 O.3       1 <0>        -0.5017
     46 N5         -1.3350    2.8698    8.0926 N.3       1 <0>        -0.8131
     47 H5          0.9017   -1.7719   -0.3475 H         1 <0>         0.1222
     48 H6          1.6768    0.5634   -0.4423 H         1 <0>         0.1228
     49 H7          4.0696    1.0783   -0.1730 H         1 <0>         0.1183
     50 H8          4.9131   -3.0779    0.2787 H         1 <0>         0.1220
     51 H9          2.5205   -3.5929    0.0079 H         1 <0>         0.1230
     52 H10         6.6978   -1.4864   -0.1402 H         1 <0>         0.0950
     53 H11         6.3458    0.2481   -0.3292 H         1 <0>         0.0875
     54 H12         8.4136   -2.0348    1.1453 H         1 <0>         0.4014
     55 H13         9.7080   -1.0847    1.6399 H         1 <0>         0.4043
     56 H14         5.4555    1.4598    1.5595 H         1 <0>         0.4029
     57 H15         6.4456    3.3186    4.2193 H         1 <0>         0.0879
     58 H16         5.7124    3.4060    2.5997 H         1 <0>         0.0933
     59 H17         3.6190    4.6930    2.2649 H         1 <0>         0.1200
     60 H18         2.3711    6.7060    2.9384 H         1 <0>         0.1215
     61 H19         2.7932    7.7392    5.1333 H         1 <0>         0.1205
     62 H20         4.4626    6.7589    6.6549 H         1 <0>         0.1207
     63 H21         5.7045    4.7411    5.9847 H         1 <0>         0.1176
     64 H22         5.1025    2.4149    6.0374 H         1 <0>         0.4024
     65 H23         4.0868   -0.7777    6.9896 H         1 <0>         0.0868
     66 H24         4.9285    0.1553    8.2703 H         1 <0>         0.0923
     67 H25         3.1445   -1.7837    8.9641 H         1 <0>         0.0919
     68 H26         3.1655   -0.2323    9.8680 H         1 <0>         0.0818
     69 H27         1.3352   -1.0679    7.5517 H         1 <0>         0.0763
     70 H28         0.8779   -0.3151    9.1104 H         1 <0>         0.0835
     71 H29        -1.4011    1.1965    6.0393 H         1 <0>         0.0795
     72 H30        -0.6801   -0.2148    6.8495 H         1 <0>         0.0816
     73 H31        -1.9057   -1.4262    8.5600 H         1 <0>         0.1232
     74 H32        -4.1176   -2.0594    9.4350 H         1 <0>         0.1264
     75 H33        -5.8521    1.3186    7.4739 H         1 <0>         0.1265
     76 H34        -3.6352    1.9502    6.6104 H         1 <0>         0.1254
     77 H35        -6.5573   -0.3671    9.8511 H         1 <0>         0.3899
     78 H36        -0.9315    3.4746    8.7922 H         1 <0>         0.3457
     79 H37        -1.3855    3.3345    7.1984 H         1 <0>         0.3507
@<TRIPOS>BOND
     1    1    6 ar
     2    1    2 ar
     3    1   47 1
     4    2    3 ar
     5    2   48 1
     6    3    4 ar
     7    3   49 1
     8    4    5 ar
     9    4    7 1
    10    5    6 ar
    11    5   50 1
    12    6   51 1
    13    7    8 1
    14    7   52 1
    15    7   53 1
    16    8    9 1
    17    8   10 1
    18    8   13 1
    19   10   11 2
    20   10   12 am
    21   12   54 1
    22   12   55 1
    23   13   14 am
    24   13   56 1
    25   14   15 2
    26   14   16 1
    27   16   17 1
    28   16   18 1
    29   16   25 1
    30   18   19 1
    31   18   57 1
    32   18   58 1
    33   19   24 ar
    34   19   20 ar
    35   20   21 ar
    36   20   59 1
    37   21   22 ar
    38   21   60 1
    39   22   23 ar
    40   22   61 1
    41   23   24 ar
    42   23   62 1
    43   24   63 1
    44   25   26 am
    45   25   64 1
    46   26   27 2
    47   26   28 1
    48   28   29 1
    49   28   33 1
    50   28   30 1
    51   30   31 1
    52   30   65 1
    53   30   66 1
    54   31   32 1
    55   31   67 1
    56   31   68 1
    57   32   33 1
    58   32   69 1
    59   32   70 1
    60   33   34 am
    61   34   35 2
    62   34   36 1
    63   36   37 1
    64   36   38 1
    65   36   46 1
    66   38   39 1
    67   38   71 1
    68   38   72 1
    69   39   44 ar
    70   39   40 ar
    71   40   41 ar
    72   40   73 1
    73   41   42 ar
    74   41   74 1
    75   42   43 ar
    76   42   45 1
    77   43   44 ar
    78   43   75 1
    79   44   76 1
    80   45   77 1
    81   46   78 1
    82   46   79 1
@<TRIPOS>MOLECULE
ZINC05458878
   58    60     0     0     0
SMALL
USER_CHARGES
N-[1-(2-hydroxy-2-phenyl-ethyl)-3-methyl-4-piperidyl]-N-phenyl-propanamide
@<TRIPOS>ATOM
      1 C1          1.4617    1.0051   -2.7815 C.3       1 <0>        -0.1476
      2 C2          2.4505    2.1151   -3.1438 C.3       1 <0>        -0.1708
      3 C3          2.5952    3.0590   -1.9780 C.2       1 <0>         0.5552
      4 O1          1.8861    2.9311   -1.0024 O.2       1 <0>        -0.4830
      5 N1          3.5127    4.0454   -2.0195 N.am      1 <0>        -0.6008
      6 C4          4.8376    3.7546   -2.3630 C.ar      1 <0>         0.1222
      7 C5          5.8439    3.8686   -1.4128 C.ar      1 <0>        -0.1180
      8 C6          7.1497    3.5744   -1.7533 C.ar      1 <0>        -0.1020
      9 C7          7.4574    3.1790   -3.0422 C.ar      1 <0>        -0.1064
     10 C8          6.4585    3.0704   -3.9923 C.ar      1 <0>        -0.1015
     11 C9          5.1498    3.3568   -3.6564 C.ar      1 <0>        -0.1239
     12 C10         3.1229    5.4221   -1.7050 C.3       1 <0>         0.1500
     13 H1          3.8178    6.1150   -2.1795 H         1 <0>         0.1184
     14 C11         3.1495    5.6276   -0.1878 C.3       1 <0>        -0.1591
     15 C12         2.1284    4.6940    0.4664 C.3       1 <0>        -0.0518
     16 C13         0.7266    4.7485   -1.5095 C.3       1 <0>        -0.1056
     17 C14         1.7058    5.6837   -2.2228 C.3       1 <0>        -0.1196
     18 H2          1.4308    6.7194   -2.0232 H         1 <0>         0.1057
     19 C15         1.6555    5.4231   -3.7296 C.3       1 <0>        -0.1549
     20 C16        -0.2354    4.2030    0.6439 C.3       1 <0>        -0.0266
     21 C17        -1.6241    4.7154    0.2564 C.3       1 <0>         0.1343
     22 H3         -1.7608    4.6154   -0.8203 H         1 <0>         0.1260
     23 C18        -2.6755    3.9082    0.9734 C.ar      1 <0>        -0.1383
     24 C19        -3.0490    4.2474    2.2603 C.ar      1 <0>        -0.1079
     25 C20        -4.0172    3.5101    2.9160 C.ar      1 <0>        -0.1113
     26 C21        -4.6037    2.4268    2.2890 C.ar      1 <0>        -0.1013
     27 C22        -4.2264    2.0844    1.0039 C.ar      1 <0>        -0.1119
     28 C23        -3.2623    2.8251    0.3461 C.ar      1 <0>        -0.1022
     29 O2         -1.7448    6.0904    0.6263 O.3       1 <0>        -0.5500
     30 H4          1.3570    0.3224   -3.6247 H         1 <0>         0.0755
     31 H5          1.8316    0.4578   -1.9145 H         1 <0>         0.0668
     32 H6          0.4921    1.4446   -2.5472 H         1 <0>         0.0616
     33 H7          2.0806    2.6625   -4.0107 H         1 <0>         0.1139
     34 H8          3.4201    1.6757   -3.3780 H         1 <0>         0.1126
     35 H9          5.6050    4.1824   -0.4074 H         1 <0>         0.1245
     36 H10         7.9320    3.6583   -1.0135 H         1 <0>         0.1329
     37 H11         8.4799    2.9541   -3.3072 H         1 <0>         0.1324
     38 H12         6.7020    2.7610   -4.9980 H         1 <0>         0.1339
     39 H13         4.3701    3.2711   -4.3987 H         1 <0>         0.1298
     40 H14         4.1455    5.4013    0.1926 H         1 <0>         0.1107
     41 H15         2.8979    6.6625    0.0437 H         1 <0>         0.0936
     42 H16         2.1347    4.8480    1.5455 H         1 <0>         0.1104
     43 H17         2.3892    3.6589    0.2459 H         1 <0>         0.1936
     44 H18         0.9940    3.7132   -1.7208 H         1 <0>         0.2103
     45 H19        -0.2852    4.9423   -1.8656 H         1 <0>         0.1138
     46 H20         0.6456    5.6065   -4.0965 H         1 <0>         0.0735
     47 H21         2.3531    6.0894   -4.2370 H         1 <0>         0.0801
     48 H22         1.9319    4.3877   -3.9286 H         1 <0>         0.0647
     49 H23        -0.0963    4.3088    1.7198 H         1 <0>         0.1255
     50 H24        -0.1456    3.1525    0.3675 H         1 <0>         0.1455
     51 H25        -2.5873    5.0909    2.7520 H         1 <0>         0.1210
     52 H26        -4.3122    3.7778    3.9199 H         1 <0>         0.1308
     53 H27        -5.3570    1.8481    2.8029 H         1 <0>         0.1312
     54 H28        -4.6847    1.2380    0.5140 H         1 <0>         0.1314
     55 H29        -2.9673    2.5574   -0.6577 H         1 <0>         0.1258
     56 H30        -1.6341    6.2542    1.5729 H         1 <0>         0.3862
     57 N2          0.7828    5.0131   -0.0560 N.4       1 <0>        -0.3649
     58 H31         0.5887    6.0077    0.1092 H         1 <0>         0.4155
@<TRIPOS>BOND
     1    1    2 1
     2    1   30 1
     3    1   31 1
     4    1   32 1
     5    2    3 1
     6    2   33 1
     7    2   34 1
     8    3    4 2
     9    3    5 am
    10    5    6 1
    11    5   12 1
    12    6   11 ar
    13    6    7 ar
    14    7    8 ar
    15    7   35 1
    16    8    9 ar
    17    8   36 1
    18    9   10 ar
    19    9   37 1
    20   10   11 ar
    21   10   38 1
    22   11   39 1
    23   12   13 1
    24   12   17 1
    25   12   14 1
    26   14   15 1
    27   14   40 1
    28   14   41 1
    29   15   42 1
    30   15   43 1
    31   15   57 1
    32   16   17 1
    33   16   44 1
    34   16   45 1
    35   16   57 1
    36   17   18 1
    37   17   19 1
    38   19   46 1
    39   19   47 1
    40   19   48 1
    41   20   21 1
    42   20   49 1
    43   20   50 1
    44   20   57 1
    45   21   22 1
    46   21   23 1
    47   21   29 1
    48   23   28 ar
    49   23   24 ar
    50   24   25 ar
    51   24   51 1
    52   25   26 ar
    53   25   52 1
    54   26   27 ar
    55   26   53 1
    56   27   28 ar
    57   27   54 1
    58   28   55 1
    59   29   56 1
    60   57   58 1
@<TRIPOS>MOLECULE
ZINC53050410
   73    76     0     0     0
SMALL
USER_CHARGES

@<TRIPOS>ATOM
      1 C1          5.1169    3.9023   -0.8242 C.ar      1 <0>        -0.1192
      2 C2          5.4047    2.7741   -1.5694 C.ar      1 <0>        -0.1176
      3 C3          4.7343    1.5913   -1.3198 C.ar      1 <0>        -0.1063
      4 C4          3.7764    1.5365   -0.3246 C.ar      1 <0>        -0.0843
      5 C5          3.4893    2.6644    0.4212 C.ar      1 <0>        -0.1021
      6 C6          4.1587    3.8476    0.1706 C.ar      1 <0>        -0.1198
      7 C7          3.0448    0.2472   -0.0531 C.3       1 <0>        -0.0879
      8 C8          3.7889   -0.5442    1.0244 C.3       1 <0>         0.1440
      9 H1          3.2523   -1.4703    1.2306 H         1 <0>         0.1118
     10 C9          5.1794   -0.8663    0.5410 C.2       1 <0>         0.5442
     11 O1          6.1166   -0.1798    0.8891 O.2       1 <0>        -0.5125
     12 N1          5.3814   -1.9172   -0.2783 N.am      1 <0>        -0.6021
     13 C10         4.3274   -2.7670   -0.8616 C.3       1 <0>         0.0898
     14 C11         4.9650   -3.3692   -2.1385 C.3       1 <0>        -0.1299
     15 C12         6.4273   -3.6034   -1.6758 C.3       1 <0>        -0.1248
     16 C13         6.6892   -2.4021   -0.7433 C.3       1 <0>         0.1198
     17 H2          7.2047   -1.6121   -1.2893 H         1 <0>         0.1046
     18 C14         7.5208   -2.8423    0.4339 C.2       1 <0>         0.5099
     19 O2          7.0716   -2.7620    1.5575 O.2       1 <0>        -0.5235
     20 N2          8.7637   -3.3252    0.2379 N.am      1 <0>        -0.8540
     21 N3          3.8707    0.2559    2.2490 N.am      1 <0>        -0.7054
     22 C15         2.8642    0.2218    3.1447 C.2       1 <0>         0.5198
     23 O3          1.9337   -0.5389    2.9826 O.2       1 <0>        -0.5268
     24 C16         2.8952    1.1288    4.3478 C.3       1 <0>         0.1198
     25 H3          3.3898    2.0660    4.0926 H         1 <0>         0.0963
     26 C17         3.6449    0.4383    5.5065 C.3       1 <0>        -0.1224
     27 C18         2.8234    0.8614    6.7529 C.3       1 <0>        -0.1305
     28 C19         1.3824    0.8784    6.1845 C.3       1 <0>         0.0962
     29 N4          1.5247    1.3959    4.8080 N.am      1 <0>        -0.5961
     30 C20         0.5614    2.0098    4.0926 C.2       1 <0>         0.5022
     31 O4          0.7656    2.3142    2.9365 O.2       1 <0>        -0.5332
     32 C21        -0.7693    2.3180    4.7293 C.3       1 <0>         0.0898
     33 H4         -0.6122    2.6590    5.7526 H         1 <0>         0.1037
     34 C22        -1.6343    1.0561    4.7393 C.3       1 <0>        -0.0656
     35 C23        -2.9151    1.3309    5.4844 C.ar      1 <0>        -0.0776
     36 C24        -2.9802    1.1140    6.8484 C.ar      1 <0>        -0.1025
     37 C25        -4.1532    1.3648    7.5336 C.ar      1 <0>        -0.1460
     38 C26        -5.2663    1.8351    6.8520 C.ar      1 <0>         0.1006
     39 C27        -5.1983    2.0523    5.4835 C.ar      1 <0>        -0.1453
     40 C28        -4.0214    1.8050    4.8038 C.ar      1 <0>        -0.0730
     41 O5         -6.4216    2.0821    7.5238 O.3       1 <0>        -0.5018
     42 N5         -1.4475    3.3706    3.9611 N.3       1 <0>        -0.8130
     43 H5          5.6438    4.8252   -1.0163 H         1 <0>         0.1191
     44 H6          6.1530    2.8169   -2.3469 H         1 <0>         0.1184
     45 H7          4.9586    0.7101   -1.9025 H         1 <0>         0.1121
     46 H8          2.7406    2.6217    1.1985 H         1 <0>         0.1256
     47 H9          3.9341    4.7289    0.7530 H         1 <0>         0.1186
     48 H10         2.0345    0.4683    0.2911 H         1 <0>         0.0932
     49 H11         2.9960   -0.3425   -0.9684 H         1 <0>         0.0842
     50 H12         4.0506   -3.5592   -0.1660 H         1 <0>         0.0757
     51 H13         3.4555   -2.1662   -1.1201 H         1 <0>         0.0855
     52 H14         4.4851   -4.3100   -2.4084 H         1 <0>         0.0933
     53 H15         4.9257   -2.6609   -2.9661 H         1 <0>         0.0839
     54 H16         6.5138   -4.5443   -1.1323 H         1 <0>         0.0841
     55 H17         7.1087   -3.5841   -2.5264 H         1 <0>         0.0951
     56 H18         9.1230   -3.3894   -0.6608 H         1 <0>         0.4011
     57 H19         9.2990   -3.6085    0.9956 H         1 <0>         0.4038
     58 H20         4.6492    0.8101    2.4151 H         1 <0>         0.4101
     59 H21         3.6301   -0.6447    5.3843 H         1 <0>         0.0842
     60 H22         4.6687    0.8056    5.5766 H         1 <0>         0.0942
     61 H23         2.9195    0.1264    7.5521 H         1 <0>         0.0928
     62 H24         3.1190    1.8522    7.0978 H         1 <0>         0.0827
     63 H25         0.9679   -0.1296    6.1712 H         1 <0>         0.0779
     64 H26         0.7498    1.5418    6.7743 H         1 <0>         0.0843
     65 H27        -1.8653    0.7658    3.7144 H         1 <0>         0.0800
     66 H28        -1.0932    0.2486    5.2325 H         1 <0>         0.0820
     67 H29        -2.1134    0.7479    7.3785 H         1 <0>         0.1233
     68 H30        -4.2038    1.1945    8.5989 H         1 <0>         0.1264
     69 H31        -6.0635    2.4183    4.9507 H         1 <0>         0.1265
     70 H32        -3.9665    1.9781    3.7392 H         1 <0>         0.1256
     71 H33        -6.4938    2.9846    7.8635 H         1 <0>         0.3900
     72 H34        -0.9269    4.2343    3.9934 H         1 <0>         0.3460
     73 H35        -1.6047    3.0785    3.0082 H         1 <0>         0.3509
@<TRIPOS>BOND
     1    1    6 ar
     2    1    2 ar
     3    1   43 1
     4    2    3 ar
     5    2   44 1
     6    3    4 ar
     7    3   45 1
     8    4    5 ar
     9    4    7 1
    10    5    6 ar
    11    5   46 1
    12    6   47 1
    13    7    8 1
    14    7   48 1
    15    7   49 1
    16    8    9 1
    17    8   10 1
    18    8   21 1
    19   10   11 2
    20   10   12 am
    21   12   16 1
    22   12   13 1
    23   13   14 1
    24   13   50 1
    25   13   51 1
    26   14   15 1
    27   14   52 1
    28   14   53 1
    29   15   16 1
    30   15   54 1
    31   15   55 1
    32   16   17 1
    33   16   18 1
    34   18   19 2
    35   18   20 am
    36   20   56 1
    37   20   57 1
    38   21   22 am
    39   21   58 1
    40   22   23 2
    41   22   24 1
    42   24   25 1
    43   24   29 1
    44   24   26 1
    45   26   27 1
    46   26   59 1
    47   26   60 1
    48   27   28 1
    49   27   61 1
    50   27   62 1
    51   28   29 1
    52   28   63 1
    53   28   64 1
    54   29   30 am
    55   30   31 2
    56   30   32 1
    57   32   33 1
    58   32   34 1
    59   32   42 1
    60   34   35 1
    61   34   65 1
    62   34   66 1
    63   35   40 ar
    64   35   36 ar
    65   36   37 ar
    66   36   67 1
    67   37   38 ar
    68   37   68 1
    69   38   39 ar
    70   38   41 1
    71   39   40 ar
    72   39   69 1
    73   40   70 1
    74   41   71 1
    75   42   72 1
    76   42   73 1
@<TRIPOS>MOLECULE
ZINC00000523
   43    45     0     0     0
SMALL
USER_CHARGES

@<TRIPOS>ATOM
      1 C1         -0.3092    1.4992   -0.1585 C.3       1 <0>        -0.1545
      2 C2         -0.1427   -0.0197   -0.0813 C.3       1 <0>        -0.0891
      3 H1         -1.1219   -0.4942   -0.0163 H         1 <0>         0.1012
      4 C3          0.5921   -0.5217   -1.3233 C.3       1 <0>         0.0282
      5 H2         -0.0501   -0.3358   -2.1842 H         1 <0>         0.1364
      6 C4          1.8721    0.2694   -1.5249 C.3       1 <0>        -0.0949
      7 C5          2.6259    0.4650   -0.2371 C.ar      1 <0>        -0.1124
      8 C6          3.9266    0.9503   -0.3193 C.ar      1 <0>        -0.0941
      9 C7          4.6685    1.1673    0.8216 C.ar      1 <0>        -0.1367
     10 C8          4.1147    0.9020    2.0660 C.ar      1 <0>         0.1248
     11 C9          2.8216    0.4129    2.1483 C.ar      1 <0>        -0.1400
     12 C10         2.0830    0.1878    0.9966 C.ar      1 <0>        -0.0592
     13 C11         0.6927   -0.3866    1.1502 C.3       1 <0>        -0.0221
     14 C12         0.8333   -1.9195    1.1810 C.3       1 <0>        -0.1318
     15 C13         1.5926   -2.3422   -0.0815 C.3       1 <0>        -0.0228
     16 N1          0.8425   -1.9546   -1.2597 N.4       1 <0>        -0.3642
     17 C14         1.5793   -2.3654   -2.4623 C.3       1 <0>         0.0229
     18 C15         1.7022   -3.8671   -2.4876 C.2       1 <0>        -0.2375
     19 C16         1.2835   -4.5411   -3.5300 C.2       1 <0>        -0.1019
     20 C17         0.0296    0.1343    2.4269 C.3       1 <0>        -0.1463
     21 O1          4.8367    1.1202    3.1965 O.3       1 <0>        -0.4966
     22 H3          0.6720    1.9694   -0.2234 H         1 <0>         0.0720
     23 H4         -0.8944    1.7562   -1.0415 H         1 <0>         0.0686
     24 H5         -0.8239    1.8541    0.7343 H         1 <0>         0.0799
     25 H6          2.5096   -0.2627   -2.2310 H         1 <0>         0.0962
     26 H7          1.6232    1.2455   -1.9412 H         1 <0>         0.1210
     27 H8          4.3596    1.1588   -1.2865 H         1 <0>         0.1318
     28 H9          5.6785    1.5426    0.7474 H         1 <0>         0.1367
     29 H10         2.3862    0.2057    3.1147 H         1 <0>         0.1377
     30 H11         1.3919   -2.2217    2.0668 H         1 <0>         0.1134
     31 H12        -0.1541   -2.3811    1.1904 H         1 <0>         0.0947
     32 H13         2.5644   -1.8491   -0.1027 H         1 <0>         0.1307
     33 H14         1.7344   -3.4229   -0.0750 H         1 <0>         0.1335
     34 H15         1.0426   -2.0297   -3.3496 H         1 <0>         0.1324
     35 H16         2.5740   -1.9196   -2.4489 H         1 <0>         0.1358
     36 H17         2.1354   -4.3878   -1.6464 H         1 <0>         0.1336
     37 H18         0.8504   -4.0204   -4.3713 H         1 <0>         0.1119
     38 H19         1.3716   -5.6173   -3.5482 H         1 <0>         0.1234
     39 H20        -0.9613   -0.3084    2.5283 H         1 <0>         0.0701
     40 H21         0.6386   -0.1368    3.2893 H         1 <0>         0.0713
     41 H22        -0.0609    1.2192    2.3726 H         1 <0>         0.0737
     42 H23         4.7358    2.0098    3.5620 H         1 <0>         0.4007
     43 H24        -0.0408   -2.4417   -1.2347 H         1 <0>         0.4213
@<TRIPOS>BOND
     1    1    2 1
     2    1   22 1
     3    1   23 1
     4    1   24 1
     5    2    3 1
     6    2   13 1
     7    2    4 1
     8    4    5 1
     9    4   16 1
    10    4    6 1
    11    6    7 1
    12    6   25 1
    13    6   26 1
    14    7   12 ar
    15    7    8 ar
    16    8    9 ar
    17    8   27 1
    18    9   10 ar
    19    9   28 1
    20   10   11 ar
    21   10   21 1
    22   11   12 ar
    23   11   29 1
    24   12   13 1
    25   13   14 1
    26   13   20 1
    27   14   15 1
    28   14   30 1
    29   14   31 1
    30   15   16 1
    31   15   32 1
    32   15   33 1
    33   16   17 1
    34   16   43 1
    35   17   18 1
    36   17   34 1
    37   17   35 1
    38   18   19 2
    39   18   36 1
    40   19   37 1
    41   19   38 1
    42   20   39 1
    43   20   40 1
    44   20   41 1
    45   21   42 1
@<TRIPOS>MOLECULE
ZINC02555353
   43    45     0     0     0
SMALL
USER_CHARGES
allyl-dimethyl-BLAHol
@<TRIPOS>ATOM
      1 C1         -4.4769    4.9776   -2.0643 C.3       1 <0>        -0.1715
      2 C2         -3.1039    5.6489   -2.1358 C.3       1 <0>        -0.0927
      3 H1         -3.2180    6.7301   -2.0585 H         1 <0>         0.1207
      4 C3         -2.2214    5.1407   -0.9960 C.3       1 <0>         0.0357
      5 H2         -2.7626    5.3208   -0.0672 H         1 <0>         0.1324
      6 C4         -0.9318    5.9412   -0.9450 C.3       1 <0>        -0.0875
      7 C5         -0.3401    6.1464   -2.3136 C.ar      1 <0>        -0.1123
      8 C6          0.9555    6.6466   -2.3868 C.ar      1 <0>        -0.0943
      9 C7          1.5544    6.8686   -3.6079 C.ar      1 <0>        -0.1363
     10 C8          0.8603    6.5934   -4.7775 C.ar      1 <0>         0.1240
     11 C9         -0.4285    6.0918   -4.7053 C.ar      1 <0>        -0.1392
     12 C10        -1.0238    5.8635   -3.4739 C.ar      1 <0>        -0.0631
     13 C11        -2.4233    5.2941   -3.4621 C.3       1 <0>        -0.0190
     14 C12        -2.2962    3.7618   -3.5313 C.3       1 <0>        -0.1374
     15 C13        -1.3834    3.3174   -2.3830 C.3       1 <0>        -0.0065
     16 C14        -1.1763    3.2222    0.0251 C.3       1 <0>         0.0280
     17 C15        -1.1558    1.7153    0.0169 C.2       1 <0>        -0.2362
     18 C16        -0.0126    1.0758    0.0080 C.2       1 <0>        -0.1056
     19 C17        -3.2285    5.8217   -4.6513 C.3       1 <0>        -0.1463
     20 O1          1.4413    6.8152   -5.9859 O.3       1 <0>        -0.4966
     21 H3         -4.9477    5.2140   -1.1101 H         1 <0>         0.0752
     22 H4         -5.1027    5.3427   -2.8786 H         1 <0>         0.0883
     23 H5         -4.3584    3.8977   -2.1533 H         1 <0>         0.0557
     24 H6         -1.1361    6.9140   -0.4978 H         1 <0>         0.1211
     25 H7         -0.2098    5.4108   -0.3241 H         1 <0>         0.0948
     26 H8          1.4976    6.8628   -1.4780 H         1 <0>         0.1319
     27 H9          2.5615    7.2560   -3.6545 H         1 <0>         0.1367
     28 H10        -0.9728    5.8769   -5.6131 H         1 <0>         0.1377
     29 H11        -3.2793    3.3042   -3.4201 H         1 <0>         0.0972
     30 H12        -1.8589    3.4701   -4.4861 H         1 <0>         0.1129
     31 H13        -0.4089    3.7943   -2.4882 H         1 <0>         0.1328
     32 H14        -1.2630    2.2345   -2.4130 H         1 <0>         0.1268
     33 H15        -1.6111    3.5745    0.9605 H         1 <0>         0.1344
     34 H16        -0.1580    3.5999   -0.0672 H         1 <0>         0.1319
     35 H17        -2.0837    1.1627    0.0183 H         1 <0>         0.1340
     36 H18         0.0021   -0.0041    0.0020 H         1 <0>         0.1231
     37 H19         0.9153    1.6285    0.0021 H         1 <0>         0.1108
     38 H20        -2.7370    5.5320   -5.5801 H         1 <0>         0.0716
     39 H21        -4.2334    5.4003   -4.6253 H         1 <0>         0.0720
     40 H22        -3.2888    6.9086   -4.5958 H         1 <0>         0.0706
     41 H23         1.2889    7.7026   -6.3386 H         1 <0>         0.4007
     42 N1         -2.0156    3.6794   -1.0912 N.4       1 <0>        -0.3829
     43 H24        -2.9290    3.2143   -1.0315 H         1 <0>         0.4263
@<TRIPOS>BOND
     1    1    2 1
     2    1   21 1
     3    1   22 1
     4    1   23 1
     5    2    3 1
     6    2   13 1
     7    2    4 1
     8    4    5 1
     9    4    6 1
    10    4   42 1
    11    6    7 1
    12    6   24 1
    13    6   25 1
    14    7   12 ar
    15    7    8 ar
    16    8    9 ar
    17    8   26 1
    18    9   10 ar
    19    9   27 1
    20   10   11 ar
    21   10   20 1
    22   11   12 ar
    23   11   28 1
    24   12   13 1
    25   13   14 1
    26   13   19 1
    27   14   15 1
    28   14   29 1
    29   14   30 1
    30   15   31 1
    31   15   32 1
    32   15   42 1
    33   16   17 1
    34   16   33 1
    35   16   34 1
    36   16   42 1
    37   17   18 2
    38   17   35 1
    39   18   36 1
    40   18   37 1
    41   19   38 1
    42   19   39 1
    43   19   40 1
    44   20   41 1
    45   42   43 1
@<TRIPOS>MOLECULE
ZINC03875420
   45    49     0     0     0
SMALL
USER_CHARGES

@<TRIPOS>ATOM
      1 C1          0.1871    1.4217    0.0965 C.2       1 <0>        -0.1012
      2 C2          0.0818    0.1160    0.0982 C.2       1 <0>        -0.2375
      3 C3          1.3172   -0.7397   -0.0145 C.3       1 <0>         0.0223
      4 N1          1.3676   -1.6781    1.1146 N.4       1 <0>        -0.3776
      5 C4          0.2328   -2.5982    1.0205 C.3       1 <0>        -0.0143
      6 C5          0.2418   -3.6083    2.1783 C.3       1 <0>        -0.1227
      7 C6          1.5804   -4.3491    2.1135 C.3       1 <0>        -0.0575
      8 C7          1.7110   -4.9715    0.7459 C.ar      1 <0>        -0.1844
      9 C8          2.2775   -4.4063   -0.3712 C.ar      1 <0>        -0.0560
     10 C9          2.2629   -5.1888   -1.5118 C.ar      1 <0>        -0.1259
     11 C10         1.7378   -6.4708   -1.4697 C.ar      1 <0>        -0.0998
     12 C11         1.2215   -7.0515   -0.3130 C.ar      1 <0>         0.1064
     13 C12         1.2265   -6.2698    0.8463 C.ar      1 <0>         0.1514
     14 O1          0.8737   -6.5320    2.1259 O.3       1 <0>        -0.2739
     15 C13         1.6224   -5.5974    2.9871 C.3       1 <0>         0.1098
     16 H1          1.1810   -5.4536    3.9733 H         1 <0>         0.1503
     17 C14         3.0318   -6.2000    3.0118 C.3       1 <0>         0.1140
     18 H2          3.1649   -6.7248    3.9578 H         1 <0>         0.0812
     19 C15         4.1352   -5.2176    2.8617 C.2       1 <0>        -0.1574
     20 C16         4.0183   -3.9760    2.5115 C.2       1 <0>        -0.1302
     21 C17         2.6971   -3.3443    2.2737 C.3       1 <0>        -0.0482
     22 H3          2.4635   -2.7496    3.1568 H         1 <0>         0.1001
     23 C18         2.6550   -2.3903    1.0885 C.3       1 <0>         0.0513
     24 H4          3.4459   -1.6527    1.2245 H         1 <0>         0.1410
     25 C19         2.8726   -3.0395   -0.2677 C.3       1 <0>        -0.0921
     26 O2          3.1335   -7.1527    1.9516 O.3       1 <0>        -0.5426
     27 O3          0.7340   -8.3211   -0.3119 O.3       1 <0>        -0.4834
     28 H5          1.1592    1.8850    0.0144 H         1 <0>         0.1120
     29 H6         -0.6986    2.0350    0.1728 H         1 <0>         0.1237
     30 H7         -0.8903   -0.3473    0.1804 H         1 <0>         0.1340
     31 H8          1.2882   -1.2982   -0.9501 H         1 <0>         0.1381
     32 H9          2.2024   -0.1038    0.0018 H         1 <0>         0.1336
     33 H10        -0.6947   -2.0264    1.0520 H         1 <0>         0.1350
     34 H11         0.2872   -3.1376    0.0749 H         1 <0>         0.1329
     35 H12         0.1522   -3.0844    3.1299 H         1 <0>         0.0983
     36 H13        -0.5802   -4.3146    2.0623 H         1 <0>         0.1199
     37 H14         2.6612   -4.7997   -2.4372 H         1 <0>         0.1326
     38 H15         1.7286   -7.0502   -2.3812 H         1 <0>         0.1361
     39 H16         5.1343   -5.5735    3.0651 H         1 <0>         0.1230
     40 H17         4.9115   -3.3815    2.3883 H         1 <0>         0.1297
     41 H18         3.9443   -3.1096   -0.4540 H         1 <0>         0.1213
     42 H19         2.4277   -2.4053   -1.0345 H         1 <0>         0.1020
     43 H20         3.9964   -7.5851    1.8927 H         1 <0>         0.3861
     44 H21         1.3955   -8.9963   -0.1081 H         1 <0>         0.3961
     45 H22         1.2971   -1.1585    1.9766 H         1 <0>         0.4226
@<TRIPOS>BOND
     1    1    2 2
     2    1   28 1
     3    1   29 1
     4    2    3 1
     5    2   30 1
     6    3    4 1
     7    3   31 1
     8    3   32 1
     9    4   23 1
    10    4    5 1
    11    4   45 1
    12    5    6 1
    13    5   33 1
    14    5   34 1
    15    6    7 1
    16    6   35 1
    17    6   36 1
    18    7   15 1
    19    7   21 1
    20    7    8 1
    21    8   13 ar
    22    8    9 ar
    23    9   25 1
    24    9   10 ar
    25   10   11 ar
    26   10   37 1
    27   11   12 ar
    28   11   38 1
    29   12   13 ar
    30   12   27 1
    31   13   14 1
    32   14   15 1
    33   15   16 1
    34   15   17 1
    35   17   18 1
    36   17   19 1
    37   17   26 1
    38   19   20 2
    39   19   39 1
    40   20   21 1
    41   20   40 1
    42   21   22 1
    43   21   23 1
    44   23   24 1
    45   23   25 1
    46   25   41 1
    47   25   42 1
    48   26   43 1
    49   27   44 1
@<TRIPOS>MOLECULE
ZINC00001600
   40    41     0     0     0
SMALL
USER_CHARGES
1-[4-(3-hydroxyphenyl)-1-methyl-4-piperidyl]propan-1-one
@<TRIPOS>ATOM
      1 C1         -2.6767    6.0824    2.8361 C.3       1 <0>        -0.1504
      2 C2         -2.2062    5.4601    1.5200 C.3       1 <0>        -0.1788
      3 C3         -0.7694    5.8400    1.2701 C.2       1 <0>         0.3647
      4 O1         -0.1824    6.5366    2.0629 O.2       1 <0>        -0.4337
      5 C4         -0.0652    5.3506    0.0309 C.3       1 <0>        -0.0694
      6 C5         -0.8008    5.8613   -1.2111 C.3       1 <0>        -0.1332
      7 C6         -0.7596    7.3911   -1.2294 C.3       1 <0>        -0.0080
      8 C7          1.3493    7.4070   -0.0357 C.3       1 <0>        -0.0137
      9 C8          1.3723    5.8777    0.0174 C.3       1 <0>        -0.1324
     10 C9          0.7143    9.3041   -1.3990 C.3       1 <0>        -0.0423
     11 C10        -0.0492    3.8437    0.0227 C.ar      1 <0>        -0.0752
     12 C11         1.1560    3.1657    0.0080 C.ar      1 <0>        -0.1229
     13 C12         1.1741    1.7834    0.0004 C.ar      1 <0>        -0.0914
     14 C13        -0.0126    1.0758    0.0080 C.ar      1 <0>        -0.1325
     15 C14        -1.2228    1.7536    0.0174 C.ar      1 <0>         0.1202
     16 C15        -1.2382    3.1410    0.0302 C.ar      1 <0>        -0.1495
     17 O2         -2.3914    1.0598    0.0191 O.3       1 <0>        -0.4957
     18 H1         -2.5931    7.1675    2.7753 H         1 <0>         0.0609
     19 H2         -3.7159    5.8076    3.0169 H         1 <0>         0.0711
     20 H3         -2.0564    5.7154    3.6538 H         1 <0>         0.0652
     21 H4         -2.7754    5.7968    0.7699 H         1 <0>         0.0927
     22 H5         -2.2898    4.3750    1.5808 H         1 <0>         0.1132
     23 H6         -0.3148    5.4743   -2.1067 H         1 <0>         0.1072
     24 H7         -1.8372    5.5246   -1.1844 H         1 <0>         0.1214
     25 H8         -1.2589    7.7776   -0.3409 H         1 <0>         0.1260
     26 H9         -1.2691    7.7574   -2.1206 H         1 <0>         0.1395
     27 H10         0.8401    7.7934    0.8472 H         1 <0>         0.1453
     28 H11         2.3714    7.7850   -0.0601 H         1 <0>         0.1343
     29 H12         1.8876    5.5527    0.9212 H         1 <0>         0.1213
     30 H13         1.8937    5.4905   -0.8580 H         1 <0>         0.1015
     31 H14         1.7585    9.6057   -1.4806 H         1 <0>         0.1239
     32 H15         0.1786    9.6018   -2.3004 H         1 <0>         0.1234
     33 H16         0.2633    9.7869   -0.5321 H         1 <0>         0.1226
     34 H17         2.0847    3.7171    0.0021 H         1 <0>         0.1309
     35 H18         2.1166    1.2562   -0.0110 H         1 <0>         0.1360
     36 H19         0.0021   -0.0041    0.0020 H         1 <0>         0.1372
     37 H20        -2.1792    3.6709    0.0421 H         1 <0>         0.1380
     38 H21        -2.7254    0.8543    0.9030 H         1 <0>         0.3988
     39 N1          0.6506    7.8339   -1.2666 N.4       1 <0>        -0.3950
     40 H22         1.1128    7.4058   -2.0773 H         1 <0>         0.4288
@<TRIPOS>BOND
     1    1    2 1
     2    1   18 1
     3    1   19 1
     4    1   20 1
     5    2    3 1
     6    2   21 1
     7    2   22 1
     8    3    4 2
     9    3    5 1
    10    5    9 1
    11    5    6 1
    12    5   11 1
    13    6    7 1
    14    6   23 1
    15    6   24 1
    16    7   25 1
    17    7   26 1
    18    7   39 1
    19    8    9 1
    20    8   27 1
    21    8   28 1
    22    8   39 1
    23    9   29 1
    24    9   30 1
    25   10   31 1
    26   10   32 1
    27   10   33 1
    28   10   39 1
    29   11   16 ar
    30   11   12 ar
    31   12   13 ar
    32   12   34 1
    33   13   14 ar
    34   13   35 1
    35   14   15 ar
    36   14   36 1
    37   15   16 ar
    38   15   17 1
    39   16   37 1
    40   17   38 1
    41   39   40 1
@<TRIPOS>MOLECULE
ZINC03935022
  103   104     0     0     0
SMALL
USER_CHARGES
(2S)-2-[[(2S)-2-[[2-[[2-[[(2S)-2-(diallylamino)-3-(4-hydroxyphenyl)propanoyl]amino]-2-methyl-propanoyl]amino]-2-methyl-propanoyl]amino]-3-phenyl-propanoyl]amino]-4-methyl-pentanoic acid
@<TRIPOS>ATOM
      1 C1         -5.4404   -5.6687   -8.1629 C.3       1 <0>        -0.1490
      2 C2         -4.7801   -4.6036   -7.2853 C.3       1 <0>        -0.0940
      3 C3         -3.7515   -5.2658   -6.3663 C.3       1 <0>        -0.1444
      4 C4         -4.0811   -3.5724   -8.1736 C.3       1 <0>        -0.1080
      5 C5         -3.5450   -2.4318   -7.3062 C.3       1 <0>         0.1105
      6 H1         -2.9276   -2.8188   -6.4822 H         1 <0>         0.0869
      7 C6         -2.7296   -1.4934   -8.1581 C.2       1 <0>         0.4547
      8 O1         -3.0527   -0.3335   -8.2584 O.co2     1 <0>        -0.6264
      9 O2         -1.6444   -1.9462   -8.8054 O.co2     1 <0>        -0.7647
     10 N1         -4.6672   -1.7013   -6.7118 N.am      1 <0>        -0.6955
     11 C7         -4.4933   -1.0169   -5.5638 C.2       1 <0>         0.5235
     12 O3         -3.4079   -1.0058   -5.0229 O.2       1 <0>        -0.5655
     13 C8         -5.6477   -0.2655   -4.9524 C.3       1 <0>         0.1408
     14 H2         -6.4501   -0.9687   -4.6846 H         1 <0>         0.1106
     15 C9         -6.1493    0.7901   -5.9397 C.3       1 <0>        -0.0887
     16 C10        -7.3790    1.4576   -5.3798 C.ar      1 <0>        -0.0616
     17 C11        -8.6317    0.9437   -5.6581 C.ar      1 <0>        -0.1056
     18 C12        -9.7594    1.5532   -5.1405 C.ar      1 <0>        -0.1120
     19 C13        -9.6349    2.6826   -4.3532 C.ar      1 <0>        -0.1204
     20 C14        -8.3824    3.1995   -4.0792 C.ar      1 <0>        -0.1148
     21 C15        -7.2545    2.5870   -4.5925 C.ar      1 <0>        -0.1102
     22 N2         -5.2052    0.3902   -3.7193 N.am      1 <0>        -0.7223
     23 C16        -6.0987    0.6825   -2.7535 C.2       1 <0>         0.5167
     24 O4         -7.2690    0.4026   -2.9052 O.2       1 <0>        -0.5016
     25 C17        -5.6435    1.3570   -1.4851 C.3       1 <0>         0.1716
     26 C18        -6.6208    1.0297   -0.3543 C.3       1 <0>        -0.1508
     27 C19        -5.6008    2.8713   -1.6998 C.3       1 <0>        -0.1659
     28 N3         -4.3062    0.8763   -1.1291 N.am      1 <0>        -0.7336
     29 C20        -3.6938    1.3448   -0.0237 C.2       1 <0>         0.5231
     30 O5         -4.2499    2.1642    0.6764 O.2       1 <0>        -0.5038
     31 C21        -2.3182    0.8503    0.3425 C.3       1 <0>         0.1672
     32 C22        -2.1046    1.0059    1.8495 C.3       1 <0>        -0.1554
     33 C23        -1.2656    1.6679   -0.4089 C.3       1 <0>        -0.1689
     34 N4         -2.1931   -0.5623   -0.0251 N.am      1 <0>        -0.7206
     35 C24        -1.0407   -1.2204    0.2101 C.2       1 <0>         0.5102
     36 O6         -0.1072   -0.6432    0.7261 O.2       1 <0>        -0.4887
     37 C25        -0.9121   -2.6735   -0.1680 C.3       1 <0>         0.0183
     38 H3         -1.9117   -3.1103   -0.3090 H         1 <0>         0.1459
     39 C26        -0.1380   -3.4176    0.9220 C.3       1 <0>        -0.0969
     40 C27        -0.1524   -4.8956    0.6284 C.ar      1 <0>        -0.1644
     41 C28        -1.2255   -5.6689    1.0313 C.ar      1 <0>        -0.0584
     42 C29        -1.2437   -7.0230    0.7584 C.ar      1 <0>        -0.1525
     43 C30        -0.1788   -7.6089    0.0894 C.ar      1 <0>         0.1767
     44 C31         0.8993   -6.8319   -0.3088 C.ar      1 <0>        -0.2058
     45 C32         0.9101   -5.4772   -0.0384 C.ar      1 <0>        -0.0919
     46 O7         -0.1920   -8.9417   -0.1757 O.3       1 <0>        -0.5051
     47 N5         -0.1919   -2.7857   -1.4434 N.4       1 <0>        -0.3889
     48 C33        -1.1218   -2.7330   -2.5795 C.3       1 <0>         0.0241
     49 C34        -1.8453   -4.0496   -2.6980 C.2       1 <0>        -0.2224
     50 C35        -3.1516   -4.0895   -2.6080 C.2       1 <0>        -0.1095
     51 C36         0.8396   -1.7462   -1.5587 C.3       1 <0>         0.0168
     52 C37         1.9005   -1.9731   -0.5127 C.2       1 <0>        -0.2233
     53 C38         3.1129   -2.3144   -0.8727 C.2       1 <0>        -0.1288
     54 H4         -6.1799   -5.1926   -8.8236 H         1 <0>         0.0547
     55 H5         -5.9429   -6.4101   -7.5242 H         1 <0>         0.0500
     56 H6         -4.6732   -6.1692   -8.7719 H         1 <0>         0.0557
     57 H7         -5.5474   -4.1031   -6.6764 H         1 <0>         0.0650
     58 H8         -3.2768   -4.4999   -5.7353 H         1 <0>         0.0526
     59 H9         -2.9843   -5.7663   -6.9753 H         1 <0>         0.0554
     60 H10        -4.2540   -6.0072   -5.7276 H         1 <0>         0.0457
     61 H11        -3.2462   -4.0523   -8.7053 H         1 <0>         0.0874
     62 H12        -4.7989   -3.1712   -8.9043 H         1 <0>         0.0636
     63 H13        -5.6517   -1.7114   -7.2024 H         1 <0>         0.4130
     64 H14        -5.3643    1.5436   -6.1010 H         1 <0>         0.0853
     65 H15        -6.3973    0.3084   -6.8970 H         1 <0>         0.0897
     66 H16        -8.7292    0.0639   -6.2768 H         1 <0>         0.1157
     67 H17       -10.7379    1.1495   -5.3549 H         1 <0>         0.1160
     68 H18       -10.5161    3.1613   -3.9525 H         1 <0>         0.1147
     69 H19        -8.2852    4.0821   -3.4644 H         1 <0>         0.1131
     70 H20        -6.2760    2.9911   -4.3787 H         1 <0>         0.1095
     71 H21        -4.1438    0.6440   -3.5817 H         1 <0>         0.4205
     72 H22        -6.2885    1.5221    0.5715 H         1 <0>         0.0834
     73 H23        -6.6516   -0.0590   -0.1999 H         1 <0>         0.0561
     74 H24        -7.6249    1.3907   -0.6215 H         1 <0>         0.0802
     75 H25        -5.2685    3.3637   -0.7740 H         1 <0>         0.0896
     76 H26        -6.6050    3.2322   -1.9670 H         1 <0>         0.0782
     77 H27        -4.8982    3.1067   -2.5128 H         1 <0>         0.0616
     78 H28        -3.8019    0.1330   -1.7640 H         1 <0>         0.4105
     79 H29        -1.1005    0.6449    2.1167 H         1 <0>         0.0869
     80 H30        -2.8613    0.4181    2.3897 H         1 <0>         0.0624
     81 H31        -2.1984    2.0666    2.1255 H         1 <0>         0.0843
     82 H32        -0.2615    1.3070   -0.1416 H         1 <0>         0.0918
     83 H33        -1.3595    2.7286   -0.1329 H         1 <0>         0.0833
     84 H34        -1.4191    1.5559   -1.4924 H         1 <0>         0.0660
     85 H35        -3.0398   -1.0859   -0.4931 H         1 <0>         0.4228
     86 H36         0.9014   -3.0582    0.9438 H         1 <0>         0.1226
     87 H37        -0.6103   -3.2331    1.8981 H         1 <0>         0.1173
     88 H38        -2.0522   -5.2131    1.5559 H         1 <0>         0.1326
     89 H39        -2.0841   -7.6258    1.0694 H         1 <0>         0.1353
     90 H40         1.7292   -7.2856   -0.8300 H         1 <0>         0.1344
     91 H41         1.7490   -4.8718   -0.3485 H         1 <0>         0.1262
     92 H42         0.6528   -9.4054   -0.7062 H         1 <0>         0.4429
     93 H43        -1.8522   -1.9265   -2.4183 H         1 <0>         0.1252
     94 H44        -0.5596   -2.5390   -3.5048 H         1 <0>         0.1482
     95 H45        -1.2766   -4.9771   -2.8601 H         1 <0>         0.1359
     96 H46        -3.6798   -5.0505   -2.6945 H         1 <0>         0.1238
     97 H47        -3.7203   -3.1620   -2.4459 H         1 <0>         0.1092
     98 H48         1.2952   -1.7911   -2.5589 H         1 <0>         0.1346
     99 H49         0.3820   -0.7573   -1.4084 H         1 <0>         0.1350
    100 H50         1.6568   -1.8521    0.5531 H         1 <0>         0.1582
    101 H51         3.8872   -2.4800   -0.1092 H         1 <0>         0.1236
    102 H52         3.3566   -2.4354   -1.9385 H         1 <0>         0.1116
    103 H53         0.3106   -3.7640   -1.4629 H         1 <0>         0.4410
@<TRIPOS>BOND
     1    1    2 1
     2    1   54 1
     3    1   55 1
     4    1   56 1
     5    2    3 1
     6    2    4 1
     7    2   57 1
     8    3   58 1
     9    3   59 1
    10    3   60 1
    11    4    5 1
    12    4   61 1
    13    4   62 1
    14    5    6 1
    15    5    7 1
    16    5   10 1
    17    7    8 2
    18    7    9 1
    19   10   11 am
    20   10   63 1
    21   11   12 2
    22   11   13 1
    23   13   14 1
    24   13   15 1
    25   13   22 1
    26   15   16 1
    27   15   64 1
    28   15   65 1
    29   16   21 ar
    30   16   17 ar
    31   17   18 ar
    32   17   66 1
    33   18   19 ar
    34   18   67 1
    35   19   20 ar
    36   19   68 1
    37   20   21 ar
    38   20   69 1
    39   21   70 1
    40   22   23 am
    41   22   71 1
    42   23   24 2
    43   23   25 1
    44   25   26 1
    45   25   27 1
    46   25   28 1
    47   26   72 1
    48   26   73 1
    49   26   74 1
    50   27   75 1
    51   27   76 1
    52   27   77 1
    53   28   29 am
    54   28   78 1
    55   29   30 2
    56   29   31 1
    57   31   32 1
    58   31   33 1
    59   31   34 1
    60   32   79 1
    61   32   80 1
    62   32   81 1
    63   33   82 1
    64   33   83 1
    65   33   84 1
    66   34   35 am
    67   34   85 1
    68   35   36 2
    69   35   37 1
    70   37   38 1
    71   37   39 1
    72   37   47 1
    73   39   40 1
    74   39   86 1
    75   39   87 1
    76   40   45 ar
    77   40   41 ar
    78   41   42 ar
    79   41   88 1
    80   42   43 ar
    81   42   89 1
    82   43   44 ar
    83   43   46 1
    84   44   45 ar
    85   44   90 1
    86   45   91 1
    87   46   92 1
    88   47   48 1
    89   47   51 1
    90   47  103 1
    91   48   49 1
    92   48   93 1
    93   48   94 1
    94   49   50 2
    95   49   95 1
    96   50   96 1
    97   50   97 1
    98   51   52 1
    99   51   98 1
   100   51   99 1
   101   52   53 2
   102   52  100 1
   103   53  101 1
   104   53  102 1
@<TRIPOS>MOLECULE
ZINC03874479
   58    65     0     0     0
SMALL
USER_CHARGES
cyclopropylmethylBLAHdiol
@<TRIPOS>ATOM
      1 C1          2.9104    3.8420   -0.0057 C.ar      1 <0>        -0.1324
      2 C2          3.3419    2.5263   -0.0286 C.ar      1 <0>        -0.0968
      3 C3          2.4593    1.4607   -0.0259 C.ar      1 <0>        -0.1183
      4 C4          1.1008    1.7658    0.0010 C.ar      1 <0>         0.0897
      5 C5          0.6593    3.1181    0.0309 C.ar      1 <0>        -0.0740
      6 C6          1.5800    4.1739    0.0245 C.ar      1 <0>        -0.0773
      7 C7         -0.7700    3.0646    0.0598 C.2       1 <0>        -0.1678
      8 C8         -1.1262    1.7230    0.0162 C.2       1 <0>         0.0837
      9 N1         -0.0111    0.9658    0.0074 N.pl3     1 <0>        -0.5457
     10 H1          0.0021   -0.0041    0.0020 H         1 <0>         0.4221
     11 C9         -2.5816    1.5112   -0.0422 C.3       1 <0>         0.1626
     12 H2         -2.9244    2.0520   -0.9243 H         1 <0>         0.0952
     13 C10        -3.2046    2.2676    1.1373 C.3       1 <0>        -0.0563
     14 C11        -3.1720    1.6846    2.5425 C.3       1 <0>        -0.0910
     15 C12        -4.2373    2.5141    3.2967 C.3       1 <0>         0.0044
     16 C13        -3.9101    4.5273    1.8149 C.3       1 <0>         0.0571
     17 H3         -3.6274    5.5791    1.8584 H         1 <0>         0.1526
     18 C14        -2.7672    3.7006    1.2598 C.3       1 <0>         0.1355
     19 C15        -1.8510    4.1372    0.1494 C.3       1 <0>        -0.0443
     20 O1         -1.8811    3.6185    2.3779 O.3       1 <0>        -0.5614
     21 C16        -5.2504    4.4002    1.1160 C.3       1 <0>        -0.0933
     22 C17        -5.6062    3.0317    0.6566 C.ar      1 <0>        -0.0633
     23 C18        -4.6108    2.0940    0.6387 C.ar      1 <0>        -0.1732
     24 C19        -4.6380    0.8223    0.0560 C.ar      1 <0>         0.0717
     25 C20        -5.8678    0.3938   -0.4305 C.ar      1 <0>         0.1324
     26 C21        -6.9291    1.2962   -0.3389 C.ar      1 <0>        -0.1100
     27 C22        -6.8205    2.5836    0.1710 C.ar      1 <0>        -0.0947
     28 O2         -6.0291   -0.8442   -0.9698 O.3       1 <0>        -0.4801
     29 O3         -3.3534    0.3148    0.0205 O.3       1 <0>        -0.2585
     30 C23        -5.1376    4.6559    3.9286 C.3       1 <0>         0.0229
     31 C24        -5.1135    4.2203    5.3951 C.3       1 <0>        -0.2112
     32 C25        -6.3404    3.4811    5.9328 C.3       1 <0>        -0.1672
     33 C26        -6.0703    4.9267    6.3577 C.3       1 <0>        -0.1500
     34 H4          3.6459    4.6329   -0.0115 H         1 <0>         0.1235
     35 H5          4.4028    2.3253   -0.0496 H         1 <0>         0.1274
     36 H6          2.8081    0.4388   -0.0442 H         1 <0>         0.1326
     37 H7          1.2564    5.2041    0.0422 H         1 <0>         0.1293
     38 H8         -3.4418    0.6286    2.5279 H         1 <0>         0.1075
     39 H9         -2.1901    1.8240    2.9948 H         1 <0>         0.1214
     40 H10        -4.2192    2.2407    4.3517 H         1 <0>         0.1228
     41 H11        -5.2110    2.2438    2.8880 H         1 <0>         0.1230
     42 H12        -1.4044    5.1025    0.3877 H         1 <0>         0.1001
     43 H13        -2.4004    4.1970   -0.7902 H         1 <0>         0.0913
     44 H14        -1.4455    4.4537    2.5967 H         1 <0>         0.3794
     45 H15        -5.2463    5.0605    0.2487 H         1 <0>         0.1291
     46 H16        -6.0293    4.7446    1.7963 H         1 <0>         0.1068
     47 H17        -7.8984    0.9720   -0.6879 H         1 <0>         0.1444
     48 H18        -7.6832    3.2331    0.1888 H         1 <0>         0.1420
     49 H19        -6.2794   -1.5231   -0.3283 H         1 <0>         0.4014
     50 H20        -4.9723    5.7314    3.8662 H         1 <0>         0.1285
     51 H21        -6.1063    4.4113    3.4928 H         1 <0>         0.1331
     52 H22        -4.1382    3.9245    5.7816 H         1 <0>         0.1236
     53 H23        -7.1648    3.3051    5.2418 H         1 <0>         0.1050
     54 H24        -6.1724    2.6992    6.6734 H         1 <0>         0.1089
     55 H25        -5.7246    5.0952    7.3776 H         1 <0>         0.1113
     56 H26        -6.7166    5.7020    5.9462 H         1 <0>         0.1072
     57 N2         -4.0325    3.9897    3.2451 N.4       1 <0>        -0.3911
     58 H27        -3.1604    4.2067    3.7417 H         1 <0>         0.4282
@<TRIPOS>BOND
     1    1    6 ar
     2    1    2 ar
     3    1   34 1
     4    2    3 ar
     5    2   35 1
     6    3    4 ar
     7    3   36 1
     8    4    9 1
     9    4    5 ar
    10    5    6 ar
    11    5    7 1
    12    6   37 1
    13    7   19 1
    14    7    8 2
    15    8    9 1
    16    8   11 1
    17    9   10 1
    18   11   12 1
    19   11   29 1
    20   11   13 1
    21   13   18 1
    22   13   23 1
    23   13   14 1
    24   14   15 1
    25   14   38 1
    26   14   39 1
    27   15   40 1
    28   15   41 1
    29   15   57 1
    30   16   17 1
    31   16   18 1
    32   16   21 1
    33   16   57 1
    34   18   19 1
    35   18   20 1
    36   19   42 1
    37   19   43 1
    38   20   44 1
    39   21   22 1
    40   21   45 1
    41   21   46 1
    42   22   27 ar
    43   22   23 ar
    44   23   24 ar
    45   24   25 ar
    46   24   29 1
    47   25   26 ar
    48   25   28 1
    49   26   27 ar
    50   26   47 1
    51   27   48 1
    52   28   49 1
    53   30   31 1
    54   30   50 1
    55   30   51 1
    56   30   57 1
    57   31   33 1
    58   31   32 1
    59   31   52 1
    60   32   33 1
    61   32   53 1
    62   32   54 1
    63   33   55 1
    64   33   56 1
    65   57   58 1
@<TRIPOS>MOLECULE
ZINC03995590
   94   106     0     0     0
SMALL
USER_CHARGES
bis(cyclopropylmethyl)BLAHtetrol
@<TRIPOS>ATOM
      1 C1         -4.2408    4.0532   -3.2394 C.ar      1 <0>        -0.1134
      2 C2         -3.9584    2.9337   -4.0047 C.ar      1 <0>        -0.0957
      3 C3         -3.4900    1.7383   -3.4645 C.ar      1 <0>         0.1094
      4 C4         -3.3426    1.6840   -2.0731 C.ar      1 <0>         0.1114
      5 C5         -3.7142    2.7988   -1.3374 C.ar      1 <0>        -0.1823
      6 C6         -4.0855    4.0158   -1.8650 C.ar      1 <0>        -0.0582
      7 C7         -4.2780    5.1826   -0.9520 C.3       1 <0>        -0.0880
      8 C8         -4.0391    4.8548    0.5130 C.3       1 <0>         0.0115
      9 H1         -3.6893    5.7683    0.9939 H         1 <0>         0.1392
     10 C9         -2.9780    3.7683    0.7399 C.3       1 <0>         0.1527
     11 C10        -3.5100    2.4821    0.1226 C.3       1 <0>        -0.0219
     12 C11        -4.8355    2.0867    0.7671 C.3       1 <0>        -0.1286
     13 C12        -5.8408    3.2279    0.5811 C.3       1 <0>        -0.0020
     14 C13        -6.2781    5.5492    1.1099 C.3       1 <0>         0.0260
     15 C14        -7.4603    5.2115    2.0206 C.3       1 <0>        -0.2142
     16 C15        -8.8285    5.0242    1.3619 C.3       1 <0>        -0.1670
     17 C16        -8.5446    6.2768    2.1948 C.3       1 <0>        -0.1470
     18 C17        -2.5614    1.2894    0.0418 C.3       1 <0>         0.1736
     19 H2         -2.7499    0.5782    0.8460 H         1 <0>         0.1394
     20 O1         -2.8749    0.7162   -1.2570 O.3       1 <0>        -0.2785
     21 C18        -1.1278    1.7451    0.0163 C.2       1 <0>         0.0152
     22 C19        -0.7352    3.0399    0.0193 C.2       1 <0>        -0.1254
     23 C20         0.6630    3.0595    0.0048 C.2       1 <0>        -0.1242
     24 C21         1.0842    1.7753    0.0012 C.2       1 <0>         0.0123
     25 N1         -0.0111    0.9658    0.0074 N.pl3     1 <0>        -0.5109
     26 H3          0.0021   -0.0041    0.0020 H         1 <0>         0.4259
     27 C22         2.5295    1.3513   -0.0087 C.3       1 <0>         0.1722
     28 H4          2.7638    0.7176   -0.8640 H         1 <0>         0.1455
     29 C23         3.4428    2.5749    0.0709 C.3       1 <0>        -0.0234
     30 C24         4.8494    2.2442   -0.4175 C.3       1 <0>        -0.1282
     31 C25         5.7854    3.4013   -0.0504 C.3       1 <0>        -0.0016
     32 C26         3.9344    4.9735   -0.1492 C.3       1 <0>         0.0088
     33 H5          3.6143    5.8881   -0.6483 H         1 <0>         0.1384
     34 C27         2.9439    3.8686   -0.5553 C.3       1 <0>         0.1542
     35 C28         1.5707    4.2581    0.0037 C.3       1 <0>        -0.0683
     36 O2          2.8992    3.7431   -1.9781 O.3       1 <0>        -0.5369
     37 C29         3.9583    5.2454    1.3465 C.3       1 <0>        -0.0866
     38 C30         3.6963    4.0323    2.1788 C.ar      1 <0>        -0.0592
     39 C31         3.4539    2.8277    1.5575 C.ar      1 <0>        -0.1765
     40 C32         3.0679    1.6548    2.1891 C.ar      1 <0>         0.1085
     41 C33         3.0234    1.6495    3.5874 C.ar      1 <0>         0.1115
     42 C34         3.3380    2.8428    4.2339 C.ar      1 <0>        -0.0980
     43 C35         3.6585    4.0111    3.5616 C.ar      1 <0>        -0.1114
     44 O3          2.6878    0.5306    4.2839 O.3       1 <0>        -0.4777
     45 O4          2.7993    0.6991    1.2704 O.3       1 <0>        -0.2801
     46 C36         6.2059    5.7573   -0.4118 C.3       1 <0>         0.0258
     47 C37         7.5054    5.4992   -1.1771 C.3       1 <0>        -0.2144
     48 C38         8.7843    5.3184   -0.3570 C.3       1 <0>        -0.1670
     49 C39         8.5655    6.6022   -1.1614 C.3       1 <0>        -0.1470
     50 C40        -1.6879    4.2064    0.0330 C.3       1 <0>        -0.0685
     51 O5         -2.7343    3.5798    2.1353 O.3       1 <0>        -0.5353
     52 O6         -3.1890    0.6720   -4.2531 O.3       1 <0>        -0.4775
     53 H6         -4.5841    4.9588   -3.7174 H         1 <0>         0.1408
     54 H7         -4.1084    2.9906   -5.0728 H         1 <0>         0.1447
     55 H8         -5.2981    5.5495   -1.0653 H         1 <0>         0.1062
     56 H9         -3.5889    5.9731   -1.2493 H         1 <0>         0.1253
     57 H10        -5.2172    1.1832    0.2915 H         1 <0>         0.1198
     58 H11        -4.6833    1.9025    1.8306 H         1 <0>         0.1075
     59 H12        -6.0270    3.3786   -0.4823 H         1 <0>         0.1343
     60 H13        -6.7754    2.9741    1.0813 H         1 <0>         0.1389
     61 H14        -5.8132    6.4758    1.4465 H         1 <0>         0.1326
     62 H15        -6.6315    5.6711    0.0860 H         1 <0>         0.1327
     63 H16        -7.2265    4.5858    2.8819 H         1 <0>         0.1250
     64 H17        -8.8864    5.1415    0.2798 H         1 <0>         0.1064
     65 H18        -9.4950    4.2755    1.7902 H         1 <0>         0.1115
     66 H19        -9.0245    6.3516    3.1706 H         1 <0>         0.1136
     67 H20        -8.4156    7.2183    1.6609 H         1 <0>         0.1081
     68 H21         5.1962    1.3281    0.0607 H         1 <0>         0.1205
     69 H22         4.8383    2.1099   -1.4992 H         1 <0>         0.1079
     70 H23         5.8294    3.5037    1.0339 H         1 <0>         0.1339
     71 H24         6.7840    3.1984   -0.4375 H         1 <0>         0.1386
     72 H25         1.6857    4.6264    1.0231 H         1 <0>         0.0973
     73 H26         1.1352    5.0407   -0.6175 H         1 <0>         0.0881
     74 H27         2.5883    4.5376   -2.4334 H         1 <0>         0.3928
     75 H28         4.9364    5.6462    1.6125 H         1 <0>         0.1059
     76 H29         3.2008    5.9945    1.5770 H         1 <0>         0.1246
     77 H30         3.3314    2.8581    5.3137 H         1 <0>         0.1437
     78 H31         3.8802    4.9090    4.1195 H         1 <0>         0.1402
     79 H32         1.7406    0.4455    4.4588 H         1 <0>         0.3963
     80 H33         5.7558    6.6859   -0.7628 H         1 <0>         0.1325
     81 H34         6.4217    5.8381    0.6536 H         1 <0>         0.1325
     82 H35         7.4049    4.9107   -2.0891 H         1 <0>         0.1252
     83 H36         8.6999    5.3833    0.7278 H         1 <0>         0.1062
     84 H37         9.5253    4.6112   -0.7296 H         1 <0>         0.1114
     85 H38         9.1628    6.7392   -2.0628 H         1 <0>         0.1136
     86 H39         8.3371    7.5119   -0.6061 H         1 <0>         0.1080
     87 H40        -1.2390    5.0408    0.5719 H         1 <0>         0.0875
     88 H41        -1.9132    4.5085   -0.9897 H         1 <0>         0.0978
     89 H42        -2.4218    4.3736    2.5907 H         1 <0>         0.3912
     90 H43        -2.2713    0.6546   -4.5575 H         1 <0>         0.3970
     91 N2         -5.2894    4.4569    1.1948 N.4       1 <0>        -0.3861
     92 H44        -5.0834    4.2703    2.1832 H         1 <0>         0.4321
     93 N3          5.2765    4.6435   -0.6752 N.4       1 <0>        -0.3850
     94 H45         5.2085    4.4998   -1.6896 H         1 <0>         0.4327
@<TRIPOS>BOND
     1    1    6 ar
     2    1    2 ar
     3    1   53 1
     4    2    3 ar
     5    2   54 1
     6    3    4 ar
     7    3   52 1
     8    4   20 1
     9    4    5 ar
    10    5   11 1
    11    5    6 ar
    12    6    7 1
    13    7    8 1
    14    7   55 1
    15    7   56 1
    16    8    9 1
    17    8   10 1
    18    8   91 1
    19   10   50 1
    20   10   11 1
    21   10   51 1
    22   11   12 1
    23   11   18 1
    24   12   13 1
    25   12   57 1
    26   12   58 1
    27   13   59 1
    28   13   60 1
    29   13   91 1
    30   14   15 1
    31   14   61 1
    32   14   62 1
    33   14   91 1
    34   15   17 1
    35   15   16 1
    36   15   63 1
    37   16   17 1
    38   16   64 1
    39   16   65 1
    40   17   66 1
    41   17   67 1
    42   18   19 1
    43   18   20 1
    44   18   21 1
    45   21   25 1
    46   21   22 2
    47   22   23 1
    48   22   50 1
    49   23   35 1
    50   23   24 2
    51   24   25 1
    52   24   27 1
    53   25   26 1
    54   27   28 1
    55   27   45 1
    56   27   29 1
    57   29   34 1
    58   29   39 1
    59   29   30 1
    60   30   31 1
    61   30   68 1
    62   30   69 1
    63   31   70 1
    64   31   71 1
    65   31   93 1
    66   32   33 1
    67   32   34 1
    68   32   37 1
    69   32   93 1
    70   34   35 1
    71   34   36 1
    72   35   72 1
    73   35   73 1
    74   36   74 1
    75   37   38 1
    76   37   75 1
    77   37   76 1
    78   38   43 ar
    79   38   39 ar
    80   39   40 ar
    81   40   41 ar
    82   40   45 1
    83   41   42 ar
    84   41   44 1
    85   42   43 ar
    86   42   77 1
    87   43   78 1
    88   44   79 1
    89   46   47 1
    90   46   80 1
    91   46   81 1
    92   46   93 1
    93   47   49 1
    94   47   48 1
    95   47   82 1
    96   48   49 1
    97   48   83 1
    98   48   84 1
    99   49   85 1
   100   49   86 1
   101   50   87 1
   102   50   88 1
   103   51   89 1
   104   52   90 1
   105   91   92 1
   106   93   94 1
@<TRIPOS>MOLECULE
ZINC03812984
   43    46     0     0     0
SMALL
USER_CHARGES
methylBLAHol
@<TRIPOS>ATOM
      1 C1         -2.7983    1.5746    2.5117 C.3       1 <0>        -0.0492
      2 C2         -2.8836    1.5590    0.0946 C.3       1 <0>        -0.0137
      3 C3         -2.1794    1.0201   -1.2058 C.3       1 <0>        -0.1260
      4 C4         -0.7576    1.5994   -1.2263 C.3       1 <0>        -0.0184
      5 C5         -0.0471    1.1494   -2.4971 C.3       1 <0>        -0.1096
      6 C6          1.3879    1.6819   -2.5009 C.3       1 <0>        -0.1248
      7 C7          2.1311    1.1511   -1.2732 C.3       1 <0>        -0.1197
      8 C8          1.4200    1.6218   -0.0028 C.3       1 <0>        -0.1140
      9 C9         -0.0127    1.0858    0.0080 C.3       1 <0>        -0.0868
     10 H1          0.0021   -0.0041    0.0020 H         1 <0>         0.1005
     11 C10        -0.7376    1.5857    1.2587 C.3       1 <0>         0.0368
     12 H2         -0.2470    1.1454    2.1268 H         1 <0>         0.1322
     13 C11        -0.6296    3.0942    1.3559 C.3       1 <0>        -0.0906
     14 C12        -0.8275    3.7825    0.0324 C.ar      1 <0>        -0.1118
     15 C13        -0.8645    3.1019   -1.1649 C.ar      1 <0>        -0.0525
     16 C14        -1.0059    3.7971   -2.3554 C.ar      1 <0>        -0.1389
     17 C15        -1.1227    5.1776   -2.3507 C.ar      1 <0>         0.1246
     18 C16        -1.1001    5.8624   -1.1445 C.ar      1 <0>        -0.1373
     19 C17        -0.9542    5.1667    0.0366 C.ar      1 <0>        -0.0934
     20 O1         -1.2582    5.8565   -3.5201 O.3       1 <0>        -0.4965
     21 H3         -2.7772    2.6625    2.5756 H         1 <0>         0.1254
     22 H4         -3.8328    1.2313    2.5006 H         1 <0>         0.1236
     23 H5         -2.2838    1.1498    3.3736 H         1 <0>         0.1231
     24 H6         -3.8977    1.1640    0.1553 H         1 <0>         0.1274
     25 H7         -2.9199    2.6475    0.0505 H         1 <0>         0.1324
     26 H8         -2.7194    1.3346   -2.0989 H         1 <0>         0.1139
     27 H9         -2.1344   -0.0682   -1.1643 H         1 <0>         0.0929
     28 H10        -0.5796    1.5352   -3.3664 H         1 <0>         0.0775
     29 H11        -0.0300    0.0602   -2.5361 H         1 <0>         0.0764
     30 H12         1.3713    2.7714   -2.4727 H         1 <0>         0.0675
     31 H13         1.8966    1.3495   -3.4057 H         1 <0>         0.0729
     32 H14         3.1542    1.5269   -1.2774 H         1 <0>         0.0739
     33 H15         2.1443    0.0615   -1.2996 H         1 <0>         0.0675
     34 H16         1.4005    2.7114    0.0201 H         1 <0>         0.0786
     35 H17         1.9539    1.2495    0.8716 H         1 <0>         0.0744
     36 H18         0.3629    3.3369    1.7355 H         1 <0>         0.1193
     37 H19        -1.3763    3.4612    2.0602 H         1 <0>         0.0962
     38 H20        -1.0247    3.2597   -3.2921 H         1 <0>         0.1368
     39 H21        -1.1963    6.9380   -1.1308 H         1 <0>         0.1364
     40 H22        -0.9386    5.7022    0.9743 H         1 <0>         0.1313
     41 H23        -0.4191    6.1273   -3.9172 H         1 <0>         0.4003
     42 N1         -2.1333    1.0997    1.2905 N.4       1 <0>        -0.3877
     43 H24        -2.1230    0.0730    1.2965 H         1 <0>         0.4294
@<TRIPOS>BOND
     1    1   21 1
     2    1   22 1
     3    1   23 1
     4    1   42 1
     5    2    3 1
     6    2   24 1
     7    2   25 1
     8    2   42 1
     9    3    4 1
    10    3   26 1
    11    3   27 1
    12    4    9 1
    13    4   15 1
    14    4    5 1
    15    5    6 1
    16    5   28 1
    17    5   29 1
    18    6    7 1
    19    6   30 1
    20    6   31 1
    21    7    8 1
    22    7   32 1
    23    7   33 1
    24    8    9 1
    25    8   34 1
    26    8   35 1
    27    9   10 1
    28    9   11 1
    29   11   12 1
    30   11   13 1
    31   11   42 1
    32   13   14 1
    33   13   36 1
    34   13   37 1
    35   14   19 ar
    36   14   15 ar
    37   15   16 ar
    38   16   17 ar
    39   16   38 1
    40   17   18 ar
    41   17   20 1
    42   18   19 ar
    43   18   39 1
    44   19   40 1
    45   20   41 1
    46   42   43 1
@<TRIPOS>MOLECULE
ZINC00001681
   40    41     0     0     0
SMALL
USER_CHARGES
ethyl 1-methyl-4-phenyl-piperidine-4-carboxylate
@<TRIPOS>ATOM
      1 C1          3.5677    2.0652   -0.0209 C.3       1 <0>        -0.1571
      2 C2          2.3672    1.1168   -0.0145 C.3       1 <0>         0.0617
      3 O1          1.1389    1.8910    0.0013 O.3       1 <0>        -0.3457
      4 C3         -0.0143    1.2041    0.0087 C.2       1 <0>         0.4691
      5 O2          0.0021   -0.0041    0.0020 O.2       1 <0>        -0.4997
      6 C4         -1.3295    1.9397    0.0189 C.3       1 <0>        -0.0092
      7 C5         -1.4192    2.8101    1.2755 C.3       1 <0>        -0.1353
      8 C6         -1.3795    1.9111    2.5150 C.3       1 <0>        -0.0071
      9 C7         -2.4095    0.0867    1.2971 C.3       1 <0>        -0.0155
     10 C8         -2.4806    0.9300    0.0221 C.3       1 <0>        -0.1304
     11 C9         -2.5751    0.1785    3.7106 C.3       1 <0>        -0.0419
     12 C10        -1.4281    2.8121   -1.2060 C.ar      1 <0>        -0.1077
     13 C11        -2.4513    2.6149   -2.1144 C.ar      1 <0>        -0.1098
     14 C12        -2.5445    3.4182   -3.2355 C.ar      1 <0>        -0.1151
     15 C13        -1.6086    4.4119   -3.4536 C.ar      1 <0>        -0.1002
     16 C14        -0.5824    4.6057   -2.5478 C.ar      1 <0>        -0.1135
     17 C15        -0.4922    3.8058   -1.4241 C.ar      1 <0>        -0.0965
     18 H1          3.5259    2.6984   -0.9071 H         1 <0>         0.0712
     19 H2          3.5429    2.6889    0.8727 H         1 <0>         0.0689
     20 H3          4.4898    1.4841   -0.0328 H         1 <0>         0.0877
     21 H4          2.4091    0.4836    0.8717 H         1 <0>         0.0733
     22 H5          2.3921    0.4932   -0.9082 H         1 <0>         0.0766
     23 H6         -0.5779    3.5027    1.2993 H         1 <0>         0.1270
     24 H7         -2.3533    3.3716    1.2633 H         1 <0>         0.1104
     25 H8         -1.4581    2.5258    3.4117 H         1 <0>         0.1406
     26 H9         -0.4392    1.3601    2.5336 H         1 <0>         0.1245
     27 H10        -3.2361   -0.6236    1.3093 H         1 <0>         0.1363
     28 H11        -1.4643   -0.4555    1.3217 H         1 <0>         0.1477
     29 H12        -3.4314    1.4620   -0.0098 H         1 <0>         0.1089
     30 H13        -2.3971    0.2803   -0.8491 H         1 <0>         0.1247
     31 H14        -1.6814   -0.4384    3.8039 H         1 <0>         0.1222
     32 H15        -2.6420    0.8527    4.5645 H         1 <0>         0.1236
     33 H16        -3.4571   -0.4613    3.6829 H         1 <0>         0.1244
     34 H17        -3.1799    1.8356   -1.9463 H         1 <0>         0.1276
     35 H18        -3.3460    3.2666   -3.9433 H         1 <0>         0.1307
     36 H19        -1.6789    5.0366   -4.3317 H         1 <0>         0.1305
     37 H20         0.1490    5.3818   -2.7184 H         1 <0>         0.1310
     38 H21         0.3097    3.9569   -0.7166 H         1 <0>         0.1329
     39 N1         -2.5265    0.9792    2.4698 N.4       1 <0>        -0.3958
     40 H22        -3.3940    1.5225    2.3895 H         1 <0>         0.4289
@<TRIPOS>BOND
     1    1    2 1
     2    1   18 1
     3    1   19 1
     4    1   20 1
     5    2    3 1
     6    2   21 1
     7    2   22 1
     8    3    4 1
     9    4    5 2
    10    4    6 1
    11    6   10 1
    12    6    7 1
    13    6   12 1
    14    7    8 1
    15    7   23 1
    16    7   24 1
    17    8   25 1
    18    8   26 1
    19    8   39 1
    20    9   10 1
    21    9   27 1
    22    9   28 1
    23    9   39 1
    24   10   29 1
    25   10   30 1
    26   11   31 1
    27   11   32 1
    28   11   33 1
    29   11   39 1
    30   12   17 ar
    31   12   13 ar
    32   13   14 ar
    33   13   34 1
    34   14   15 ar
    35   14   35 1
    36   15   16 ar
    37   15   36 1
    38   16   17 ar
    39   16   37 1
    40   17   38 1
    41   39   40 1
@<TRIPOS>MOLECULE
ZINC19371672
   73    75     0     0     0
SMALL
USER_CHARGES

@<TRIPOS>ATOM
      1 C1          1.0131   -4.8843   -0.9762 C.3       1 <0>        -0.1673
      2 C2          1.1156   -3.3609   -1.0744 C.3       1 <0>         0.1075
      3 N1         -0.2205   -2.7726   -0.9514 N.am      1 <0>        -0.6062
      4 C3         -0.7806   -2.4979    0.3741 C.3       1 <0>         0.0977
      5 C4         -0.1768   -1.2044    0.9248 C.3       1 <0>        -0.1801
      6 C5         -0.9343   -2.4843   -2.0576 C.2       1 <0>         0.5543
      7 O1         -0.4899   -2.7565   -3.1558 O.2       1 <0>        -0.5263
      8 C6         -2.2578   -1.8368   -1.9354 C.ar      1 <0>        -0.1168
      9 C7         -2.4295   -0.7491   -1.0778 C.ar      1 <0>        -0.0958
     10 C8         -3.6670   -0.1492   -0.9688 C.ar      1 <0>        -0.1209
     11 C9         -4.7367   -0.6238   -1.7069 C.ar      1 <0>        -0.0556
     12 C10        -4.5734   -1.7019   -2.5586 C.ar      1 <0>        -0.0961
     13 C11        -3.3397   -2.3070   -2.6815 C.ar      1 <0>        -0.0703
     14 C12        -6.0857    0.0362   -1.5824 C.3       1 <0>         0.1762
     15 H1         -6.1189    0.6251   -0.6657 H         1 <0>         0.0734
     16 C13        -6.3149    0.9384   -2.7675 C.ar      1 <0>        -0.0595
     17 C14        -6.4441    0.3967   -4.0334 C.ar      1 <0>        -0.1385
     18 C15        -6.6544    1.2216   -5.1226 C.ar      1 <0>        -0.0766
     19 C16        -6.7357    2.5899   -4.9489 C.ar      1 <0>        -0.1988
     20 C17        -6.6065    3.1357   -3.6803 C.ar      1 <0>         0.1354
     21 C18        -6.4015    2.3051   -2.5878 C.ar      1 <0>        -0.1440
     22 O2         -6.6861    4.4812   -3.5068 O.3       1 <0>        -0.3158
     23 C19        -6.9043    5.2742   -4.6755 C.3       1 <0>         0.0249
     24 N2         -7.1327   -0.9935   -1.5411 N.3       1 <0>        -0.5257
     25 C20        -8.4442   -0.4252   -1.8834 C.3       1 <0>         0.0255
     26 C21        -9.4939   -1.5386   -1.8872 C.3       1 <0>         0.0319
     27 H2         -9.2278   -2.2863   -2.6344 H         1 <0>         0.1451
     28 N3         -9.5449   -2.1682   -0.5611 N.4       1 <0>        -0.3827
     29 C22        -8.2351   -2.7525   -0.2439 C.3       1 <0>        -0.0005
     30 C23        -7.1749   -1.6492   -0.2264 C.3       1 <0>         0.0636
     31 H3         -7.4270   -0.9147    0.5384 H         1 <0>         0.0670
     32 C24        -5.8070   -2.2605    0.0834 C.3       1 <0>        -0.1619
     33 C25       -10.5654   -3.2249   -0.5600 C.3       1 <0>         0.0250
     34 C26       -10.7043   -3.7877    0.8310 C.2       1 <0>        -0.2377
     35 C27       -11.8772   -3.8108    1.4141 C.2       1 <0>        -0.1023
     36 C28       -10.8640   -0.9466   -2.2236 C.3       1 <0>        -0.1832
     37 H4          0.5829   -5.1581   -0.0128 H         1 <0>         0.0553
     38 H5          0.3763   -5.2581   -1.7779 H         1 <0>         0.0585
     39 H6          2.0072   -5.3220   -1.0677 H         1 <0>         0.0703
     40 H7          1.7524   -2.9871   -0.2727 H         1 <0>         0.0792
     41 H8          1.5458   -3.0871   -2.0378 H         1 <0>         0.0881
     42 H9         -1.8624   -2.3894    0.2961 H         1 <0>         0.0857
     43 H10        -0.5458   -3.3234    1.0461 H         1 <0>         0.0799
     44 H11         0.8360   -1.3980    1.2784 H         1 <0>         0.0652
     45 H12        -0.1488   -0.4521    0.1366 H         1 <0>         0.0645
     46 H13        -0.7872   -0.8417    1.7518 H         1 <0>         0.0718
     47 H14        -1.5955   -0.3781   -0.5005 H         1 <0>         0.1423
     48 H15        -3.8012    0.6925   -0.3055 H         1 <0>         0.1279
     49 H16        -5.4125   -2.0677   -3.1317 H         1 <0>         0.1346
     50 H17        -3.2123   -3.1454   -3.3503 H         1 <0>         0.1312
     51 H18        -6.3801   -0.6725   -4.1713 H         1 <0>         0.1304
     52 H19        -6.7549    0.7962   -6.1102 H         1 <0>         0.1297
     53 H20        -6.8993    3.2340   -5.8003 H         1 <0>         0.1322
     54 H21        -6.3054    2.7273   -1.5984 H         1 <0>         0.1297
     55 H22        -7.8454    4.9828   -5.1418 H         1 <0>         0.0581
     56 H23        -6.9474    6.3272   -4.3972 H         1 <0>         0.1058
     57 H24        -6.0864    5.1174   -5.3788 H         1 <0>         0.0596
     58 H25        -8.7172    0.3295   -1.1458 H         1 <0>         0.0620
     59 H26        -8.3956    0.0323   -2.8715 H         1 <0>         0.1327
     60 H27        -8.2780   -3.2307    0.7346 H         1 <0>         0.1360
     61 H28        -7.9755   -3.4940   -0.9995 H         1 <0>         0.1379
     62 H29        -5.0841   -1.4637    0.2582 H         1 <0>         0.0855
     63 H30        -5.8814   -2.8853    0.9734 H         1 <0>         0.0697
     64 H31        -5.4810   -2.8681   -0.7608 H         1 <0>         0.0836
     65 H32       -11.5203   -2.8082   -0.8804 H         1 <0>         0.1335
     66 H33       -10.2672   -4.0187   -1.2450 H         1 <0>         0.1348
     67 H34        -9.8369   -4.1719    1.3472 H         1 <0>         0.1328
     68 H35       -12.7445   -3.4266    0.8979 H         1 <0>         0.1114
     69 H36       -11.9767   -4.2141    2.4110 H         1 <0>         0.1230
     70 H37       -10.8263   -0.4794   -3.2077 H         1 <0>         0.1079
     71 H38       -11.6118   -1.7397   -2.2264 H         1 <0>         0.0854
     72 H39       -11.1301   -0.1989   -1.4765 H         1 <0>         0.0807
     73 H40        -9.7799   -1.4736    0.1320 H         1 <0>         0.4184
@<TRIPOS>BOND
     1    1    2 1
     2    1   37 1
     3    1   38 1
     4    1   39 1
     5    2    3 1
     6    2   40 1
     7    2   41 1
     8    3    4 1
     9    3    6 am
    10    4    5 1
    11    4   42 1
    12    4   43 1
    13    5   44 1
    14    5   45 1
    15    5   46 1
    16    6    7 2
    17    6    8 1
    18    8   13 ar
    19    8    9 ar
    20    9   10 ar
    21    9   47 1
    22   10   11 ar
    23   10   48 1
    24   11   12 ar
    25   11   14 1
    26   12   13 ar
    27   12   49 1
    28   13   50 1
    29   14   15 1
    30   14   16 1
    31   14   24 1
    32   16   21 ar
    33   16   17 ar
    34   17   18 ar
    35   17   51 1
    36   18   19 ar
    37   18   52 1
    38   19   20 ar
    39   19   53 1
    40   20   21 ar
    41   20   22 1
    42   21   54 1
    43   22   23 1
    44   23   55 1
    45   23   56 1
    46   23   57 1
    47   24   30 1
    48   24   25 1
    49   25   26 1
    50   25   58 1
    51   25   59 1
    52   26   27 1
    53   26   28 1
    54   26   36 1
    55   28   29 1
    56   28   33 1
    57   28   73 1
    58   29   30 1
    59   29   60 1
    60   29   61 1
    61   30   31 1
    62   30   32 1
    63   32   62 1
    64   32   63 1
    65   32   64 1
    66   33   34 1
    67   33   65 1
    68   33   66 1
    69   34   35 2
    70   34   67 1
    71   35   68 1
    72   35   69 1
    73   36   70 1
    74   36   71 1
    75   36   72 1
@<TRIPOS>MOLECULE
ZINC19371672
   73    75     0     0     0
SMALL
USER_CHARGES

@<TRIPOS>ATOM
      1 C1          0.5478   -2.5217    4.2516 C.3       1 <0>        -0.1683
      2 C2          0.5647   -1.1513    3.5714 C.3       1 <0>         0.1073
      3 N1          1.0130   -1.2999    2.1846 N.am      1 <0>        -0.6032
      4 C3          0.0491   -1.6427    1.1360 C.3       1 <0>         0.0952
      5 C4         -0.7732   -0.4042    0.7745 C.3       1 <0>        -0.1809
      6 C5          2.3121   -1.1213    1.8735 C.2       1 <0>         0.5502
      7 O1          3.1251   -0.9158    2.7535 O.2       1 <0>        -0.5189
      8 C6          2.7484   -1.1753    0.4620 C.ar      1 <0>        -0.0962
      9 C7          2.0206   -0.5055   -0.5228 C.ar      1 <0>        -0.0866
     10 C8          2.4334   -0.5596   -1.8380 C.ar      1 <0>        -0.0980
     11 C9          3.5659   -1.2762   -2.1819 C.ar      1 <0>        -0.0992
     12 C10         4.2917   -1.9427   -1.2107 C.ar      1 <0>        -0.1216
     13 C11         3.8933   -1.8916    0.1091 C.ar      1 <0>        -0.0545
     14 C12         4.0107   -1.3312   -3.6207 C.3       1 <0>         0.1317
     15 H1          3.2132   -0.9561   -4.2621 H         1 <0>         0.1530
     16 C13         5.2413   -0.4798   -3.7991 C.ar      1 <0>        -0.0898
     17 C14         6.4814   -0.9738   -3.4382 C.ar      1 <0>        -0.1662
     18 C15         7.6122   -0.1953   -3.6005 C.ar      1 <0>        -0.0579
     19 C16         7.5057    1.0791   -4.1236 C.ar      1 <0>        -0.1866
     20 C17         6.2629    1.5769   -4.4864 C.ar      1 <0>         0.1496
     21 C18         5.1302    0.7912   -4.3281 C.ar      1 <0>        -0.1220
     22 O2          6.1555    2.8301   -5.0012 O.3       1 <0>        -0.3093
     23 C19         7.3640    3.5797   -5.1413 C.3       1 <0>         0.0219
     24 N2          4.3194   -2.7204   -3.9850 N.4       1 <0>        -0.3814
     25 C20         4.9604   -2.7490   -5.3063 C.3       1 <0>        -0.0072
     26 C21         5.2993   -4.1942   -5.6780 C.3       1 <0>         0.0611
     27 H2          5.9904   -4.6063   -4.9427 H         1 <0>         0.0644
     28 N3          4.0666   -4.9945   -5.6950 N.3       1 <0>        -0.5302
     29 C22         3.4006   -4.9551   -4.3854 C.3       1 <0>         0.0307
     30 C23         3.0774   -3.5036   -4.0244 C.3       1 <0>         0.0364
     31 H3          2.4066   -3.0835   -4.7739 H         1 <0>         0.1461
     32 C24         2.4018   -3.4576   -2.6524 C.3       1 <0>        -0.1983
     33 C25         4.3430   -6.3782   -6.1036 C.3       1 <0>         0.0792
     34 C26         3.0423   -7.0994   -6.3470 C.2       1 <0>        -0.1716
     35 C27         2.8242   -7.6863   -7.4977 C.2       1 <0>        -0.1567
     36 C28         5.9485   -4.2263   -7.0630 C.3       1 <0>        -0.1518
     37 H4          1.5515   -2.9466    4.2377 H         1 <0>         0.0589
     38 H5          0.2143   -2.4111    5.2834 H         1 <0>         0.0723
     39 H6         -0.1343   -3.1837    3.7182 H         1 <0>         0.0564
     40 H7         -0.4390   -0.7264    3.5853 H         1 <0>         0.0820
     41 H8          1.2469   -0.4893    4.1048 H         1 <0>         0.0893
     42 H9          0.5826   -1.9950    0.2532 H         1 <0>         0.0835
     43 H10        -0.6157   -2.4278    1.4961 H         1 <0>         0.0835
     44 H11        -1.3233   -0.5898   -0.1480 H         1 <0>         0.0745
     45 H12        -1.4759   -0.1870    1.5790 H         1 <0>         0.0681
     46 H13        -0.1064    0.4467    0.6349 H         1 <0>         0.0632
     47 H14         1.1360    0.0536   -0.2558 H         1 <0>         0.1525
     48 H15         1.8711   -0.0418   -2.6010 H         1 <0>         0.1428
     49 H16         5.1746   -2.5006   -1.4858 H         1 <0>         0.1246
     50 H17         4.4634   -2.4084    0.8670 H         1 <0>         0.1427
     51 H18         6.5667   -1.9695   -3.0284 H         1 <0>         0.1167
     52 H19         8.5796   -0.5834   -3.3179 H         1 <0>         0.1387
     53 H20         8.3893    1.6872   -4.2496 H         1 <0>         0.1411
     54 H21         4.1620    1.1748   -4.6143 H         1 <0>         0.1421
     55 H22         7.8301    3.7035   -4.1638 H         1 <0>         0.0623
     56 H23         8.0465    3.0481   -5.8044 H         1 <0>         0.0622
     57 H24         7.1373    4.5591   -5.5625 H         1 <0>         0.1108
     58 H25         4.2800   -2.3328   -6.0492 H         1 <0>         0.1402
     59 H26         5.8751   -2.1568   -5.2793 H         1 <0>         0.1416
     60 H27         2.4775   -5.5331   -4.4293 H         1 <0>         0.1258
     61 H28         4.0604   -5.3798   -3.6288 H         1 <0>         0.0594
     62 H29         1.9324   -2.4841   -2.5109 H         1 <0>         0.0992
     63 H30         1.6435   -4.2385   -2.5944 H         1 <0>         0.1006
     64 H31         3.1482   -3.6175   -1.8743 H         1 <0>         0.0832
     65 H32         4.9339   -6.3755   -7.0195 H         1 <0>         0.0971
     66 H33         4.8979   -6.8861   -5.3147 H         1 <0>         0.0527
     67 H34         2.2900   -7.1324   -5.5729 H         1 <0>         0.1095
     68 H35         1.8921   -8.2031   -7.6722 H         1 <0>         0.1054
     69 H36         3.5765   -7.6533   -8.2719 H         1 <0>         0.1004
     70 H37         6.8615   -3.6310   -7.0502 H         1 <0>         0.0754
     71 H38         6.1897   -5.2559   -7.3275 H         1 <0>         0.0791
     72 H39         5.2568   -3.8149   -7.7982 H         1 <0>         0.0787
     73 H40         4.9450   -3.1166   -3.2996 H         1 <0>         0.4130
@<TRIPOS>BOND
     1    1    2 1
     2    1   37 1
     3    1   38 1
     4    1   39 1
     5    2    3 1
     6    2   40 1
     7    2   41 1
     8    3    4 1
     9    3    6 am
    10    4    5 1
    11    4   42 1
    12    4   43 1
    13    5   44 1
    14    5   45 1
    15    5   46 1
    16    6    7 2
    17    6    8 1
    18    8   13 ar
    19    8    9 ar
    20    9   10 ar
    21    9   47 1
    22   10   11 ar
    23   10   48 1
    24   11   12 ar
    25   11   14 1
    26   12   13 ar
    27   12   49 1
    28   13   50 1
    29   14   15 1
    30   14   16 1
    31   14   24 1
    32   16   21 ar
    33   16   17 ar
    34   17   18 ar
    35   17   51 1
    36   18   19 ar
    37   18   52 1
    38   19   20 ar
    39   19   53 1
    40   20   21 ar
    41   20   22 1
    42   21   54 1
    43   22   23 1
    44   23   55 1
    45   23   56 1
    46   23   57 1
    47   24   30 1
    48   24   25 1
    49   24   73 1
    50   25   26 1
    51   25   58 1
    52   25   59 1
    53   26   27 1
    54   26   28 1
    55   26   36 1
    56   28   29 1
    57   28   33 1
    58   29   30 1
    59   29   60 1
    60   29   61 1
    61   30   31 1
    62   30   32 1
    63   32   62 1
    64   32   63 1
    65   32   64 1
    66   33   34 1
    67   33   65 1
    68   33   66 1
    69   34   35 2
    70   34   67 1
    71   35   68 1
    72   35   69 1
    73   36   70 1
    74   36   71 1
    75   36   72 1
@<TRIPOS>MOLECULE
ZINC19371672
   72    74     0     0     0
SMALL
USER_CHARGES

@<TRIPOS>ATOM
      1 C1          0.4660   -4.9089    1.2377 C.3       1 <0>        -0.1674
      2 C2          0.4824   -3.3893    1.4154 C.3       1 <0>         0.1091
      3 N1          1.0284   -2.7625    0.2091 N.am      1 <0>        -0.6080
      4 C3          0.1493   -2.4679   -0.9252 C.3       1 <0>         0.0970
      5 C4         -0.6415   -1.1898   -0.6391 C.3       1 <0>        -0.1780
      6 C5          2.3393   -2.4568    0.1429 C.2       1 <0>         0.5597
      7 O1          3.0777   -2.7442    1.0647 O.2       1 <0>        -0.5323
      8 C6          2.8793   -1.7719   -1.0509 C.ar      1 <0>        -0.1293
      9 C7          2.2092   -0.6736   -1.5920 C.ar      1 <0>        -0.0988
     10 C8          2.7187   -0.0388   -2.7058 C.ar      1 <0>        -0.1237
     11 C9          3.8910   -0.4888   -3.2867 C.ar      1 <0>        -0.0372
     12 C10         4.5600   -1.5773   -2.7556 C.ar      1 <0>        -0.0929
     13 C11         4.0645   -2.2173   -1.6384 C.ar      1 <0>        -0.0712
     14 C12         4.4414    0.2093   -4.5036 C.3       1 <0>         0.1650
     15 H1          3.6541    0.8016   -4.9699 H         1 <0>         0.0640
     16 C13         5.5749    1.1139   -4.0940 C.ar      1 <0>        -0.0421
     17 C14         6.7465    0.5722   -3.5976 C.ar      1 <0>        -0.1312
     18 C15         7.7881    1.3994   -3.2210 C.ar      1 <0>        -0.0807
     19 C16         7.6607    2.7701   -3.3393 C.ar      1 <0>        -0.2049
     20 C17         6.4866    3.3160   -3.8368 C.ar      1 <0>         0.1287
     21 C18         5.4449    2.4833   -4.2198 C.ar      1 <0>        -0.1437
     22 O2          6.3589    4.6639   -3.9541 O.3       1 <0>        -0.3179
     23 C19         7.4739    5.4591   -3.5461 C.3       1 <0>         0.0272
     24 N2          4.9341   -0.7904   -5.4606 N.3       1 <0>        -0.5235
     25 C20         5.8753   -0.1871   -6.4145 C.3       1 <0>         0.0591
     26 C21         6.4248   -1.2740   -7.3415 C.3       1 <0>         0.0852
     27 H2          6.9645   -2.0155   -6.7525 H         1 <0>         0.0499
     28 N3          5.3101   -1.9236   -8.0451 N.3       1 <0>        -0.5319
     29 C22         4.3689   -2.5269   -7.0912 C.3       1 <0>         0.0632
     30 C23         3.8194   -1.4400   -6.1643 C.3       1 <0>         0.0878
     31 H3          3.2797   -0.6985   -6.7533 H         1 <0>         0.0515
     32 C24         2.8703   -2.0714   -5.1438 C.3       1 <0>        -0.1576
     33 C25         5.8028   -2.9233   -9.0022 C.3       1 <0>         0.0760
     34 C26         4.6643   -3.3891   -9.8728 C.2       1 <0>        -0.1487
     35 C27         4.7637   -3.3140  -11.1768 C.2       1 <0>        -0.1816
     36 C28         7.3744   -0.6427   -8.3616 C.3       1 <0>        -0.1490
     37 H4          1.4821   -5.2662    1.0707 H         1 <0>         0.0589
     38 H5          0.0598   -5.3753    2.1353 H         1 <0>         0.0674
     39 H6         -0.1557   -5.1678    0.3806 H         1 <0>         0.0554
     40 H7         -0.5337   -3.0320    1.5824 H         1 <0>         0.0766
     41 H8          1.1040   -3.1304    2.2725 H         1 <0>         0.0861
     42 H9          0.7501   -2.3298   -1.8242 H         1 <0>         0.0900
     43 H10        -0.5420   -3.2973   -1.0741 H         1 <0>         0.0778
     44 H11        -1.0566   -0.8033   -1.5700 H         1 <0>         0.0717
     45 H12        -1.4518   -1.4117    0.0554 H         1 <0>         0.0615
     46 H13         0.0203   -0.4439   -0.1990 H         1 <0>         0.0645
     47 H14         1.2936   -0.3218   -1.1399 H         1 <0>         0.1376
     48 H15         2.2011    0.8112   -3.1255 H         1 <0>         0.1259
     49 H16         5.4744   -1.9239   -3.2140 H         1 <0>         0.1357
     50 H17         4.5902   -3.0638   -1.2219 H         1 <0>         0.1276
     51 H18         6.8477   -0.4990   -3.5038 H         1 <0>         0.1299
     52 H19         8.7020    0.9739   -2.8337 H         1 <0>         0.1260
     53 H20         8.4745    3.4159   -3.0442 H         1 <0>         0.1275
     54 H21         4.5315    2.9057   -4.6120 H         1 <0>         0.1282
     55 H22         8.3467    5.1946   -4.1430 H         1 <0>         0.0560
     56 H23         7.2404    6.5139   -3.6914 H         1 <0>         0.1010
     57 H24         7.6850    5.2755   -2.4926 H         1 <0>         0.0560
     58 H25         5.3589    0.5686   -7.0064 H         1 <0>         0.0437
     59 H26         6.6979    0.2764   -5.8700 H         1 <0>         0.0904
     60 H27         3.5463   -2.9904   -7.6358 H         1 <0>         0.0808
     61 H28         4.8854   -3.2826   -6.4994 H         1 <0>         0.0431
     62 H29         2.3494   -1.2853   -4.5972 H         1 <0>         0.0664
     63 H30         2.1432   -2.6965   -5.6622 H         1 <0>         0.0573
     64 H31         3.4420   -2.6822   -4.4452 H         1 <0>         0.0704
     65 H32         6.5783   -2.4782   -9.6256 H         1 <0>         0.0853
     66 H33         6.2163   -3.7732   -8.4593 H         1 <0>         0.0422
     67 H34         3.7664   -3.7849   -9.4216 H         1 <0>         0.1067
     68 H35         5.6616   -2.9182  -11.6280 H         1 <0>         0.0960
     69 H36         3.9478   -3.6478  -11.8007 H         1 <0>         0.0983
     70 H37         8.2000   -0.1596   -7.8390 H         1 <0>         0.0622
     71 H38         7.7655   -1.4170   -9.0216 H         1 <0>         0.0600
     72 H39         6.8341    0.0982   -8.9509 H         1 <0>         0.0643
@<TRIPOS>BOND
     1    1    2 1
     2    1   37 1
     3    1   38 1
     4    1   39 1
     5    2    3 1
     6    2   40 1
     7    2   41 1
     8    3    4 1
     9    3    6 am
    10    4    5 1
    11    4   42 1
    12    4   43 1
    13    5   44 1
    14    5   45 1
    15    5   46 1
    16    6    7 2
    17    6    8 1
    18    8   13 ar
    19    8    9 ar
    20    9   10 ar
    21    9   47 1
    22   10   11 ar
    23   10   48 1
    24   11   12 ar
    25   11   14 1
    26   12   13 ar
    27   12   49 1
    28   13   50 1
    29   14   15 1
    30   14   16 1
    31   14   24 1
    32   16   21 ar
    33   16   17 ar
    34   17   18 ar
    35   17   51 1
    36   18   19 ar
    37   18   52 1
    38   19   20 ar
    39   19   53 1
    40   20   21 ar
    41   20   22 1
    42   21   54 1
    43   22   23 1
    44   23   55 1
    45   23   56 1
    46   23   57 1
    47   24   30 1
    48   24   25 1
    49   25   26 1
    50   25   58 1
    51   25   59 1
    52   26   27 1
    53   26   28 1
    54   26   36 1
    55   28   29 1
    56   28   33 1
    57   29   30 1
    58   29   60 1
    59   29   61 1
    60   30   31 1
    61   30   32 1
    62   32   62 1
    63   32   63 1
    64   32   64 1
    65   33   34 1
    66   33   65 1
    67   33   66 1
    68   34   35 2
    69   34   67 1
    70   35   68 1
    71   35   69 1
    72   36   70 1
    73   36   71 1
    74   36   72 1
@<TRIPOS>MOLECULE
ZINC08214562
   43    42     0     0     0
SMALL
USER_CHARGES
heptadeca-1,9-dien-4,6-diyne-3,8-diol
@<TRIPOS>ATOM
      1 C1          6.2908    8.6714    2.0212 C.3       1 <0>        -0.1544
      2 C2          4.8334    8.2781    2.2707 C.3       1 <0>        -0.1261
      3 C3          4.6516    6.7861    1.9848 C.3       1 <0>        -0.1214
      4 C4          3.1942    6.3928    2.2344 C.3       1 <0>        -0.1209
      5 C5          3.0125    4.9008    1.9484 C.3       1 <0>        -0.1214
      6 C6          1.5551    4.5076    2.1980 C.3       1 <0>        -0.1131
      7 C7          1.3733    3.0155    1.9121 C.3       1 <0>        -0.1116
      8 C8         -0.0622    2.6282    2.1579 C.2       1 <0>        -0.1122
      9 C9         -0.7456    2.0182    1.2214 C.2       1 <0>        -0.2054
     10 C10        -0.0544    1.5542   -0.0348 C.3       1 <0>         0.2457
     11 H1          1.0217    1.6922    0.0704 H         1 <0>         0.1370
     12 C11        -0.3468    0.1289   -0.2579 C.1       1 <0>        -0.1469
     13 C12        -0.5800   -1.0079   -0.4358 C.1       1 <0>        -0.0608
     14 C13        -0.8536   -2.3412   -0.6444 C.1       1 <0>        -0.0569
     15 C14        -1.0868   -3.4780   -0.8223 C.1       1 <0>        -0.1499
     16 C15        -1.3792   -4.9033   -1.0453 C.3       1 <0>         0.2515
     17 H2         -0.8793   -5.2389   -1.9539 H         1 <0>         0.1382
     18 C16        -0.8820   -5.7077    0.1280 C.2       1 <0>        -0.1980
     19 C17        -1.7018   -6.4996    0.7737 C.2       1 <0>        -0.1654
     20 O1         -2.7900   -5.0842   -1.1833 O.3       1 <0>        -0.5424
     21 O2         -0.5258    2.3170   -1.1474 O.3       1 <0>        -0.5411
     22 H3          6.4203    9.7343    2.2249 H         1 <0>         0.0534
     23 H4          6.9406    8.0937    2.6785 H         1 <0>         0.0532
     24 H5          6.5497    8.4663    0.9824 H         1 <0>         0.0535
     25 H6          4.1835    8.8558    1.6135 H         1 <0>         0.0605
     26 H7          4.5745    8.4832    3.3095 H         1 <0>         0.0601
     27 H8          5.3015    6.2084    2.6421 H         1 <0>         0.0606
     28 H9          4.9105    6.5810    0.9461 H         1 <0>         0.0611
     29 H10         2.5444    6.9705    1.5771 H         1 <0>         0.0617
     30 H11         2.9353    6.5979    3.2731 H         1 <0>         0.0609
     31 H12         3.6623    4.3231    2.6057 H         1 <0>         0.0617
     32 H13         3.2714    4.6957    0.9097 H         1 <0>         0.0628
     33 H14         0.9052    5.0853    1.5407 H         1 <0>         0.0656
     34 H15         1.2962    4.7126    3.2367 H         1 <0>         0.0636
     35 H16         2.0232    2.4378    2.5694 H         1 <0>         0.0765
     36 H17         1.6322    2.8105    0.8733 H         1 <0>         0.0773
     37 H18        -0.5275    2.8535    3.1061 H         1 <0>         0.1193
     38 H19        -1.8043    1.8479    1.3495 H         1 <0>         0.1186
     39 H20         0.1502   -5.6313    0.4366 H         1 <0>         0.1228
     40 H21        -2.7339   -6.5760    0.4651 H         1 <0>         0.1093
     41 H22        -1.3454   -7.0761    1.6146 H         1 <0>         0.1071
     42 H23        -3.2997   -4.8059   -0.4101 H         1 <0>         0.3830
     43 H24        -1.4776    2.2416   -1.3010 H         1 <0>         0.3830
@<TRIPOS>BOND
     1    1    2 1
     2    1   22 1
     3    1   23 1
     4    1   24 1
     5    2    3 1
     6    2   25 1
     7    2   26 1
     8    3    4 1
     9    3   27 1
    10    3   28 1
    11    4    5 1
    12    4   29 1
    13    4   30 1
    14    5    6 1
    15    5   31 1
    16    5   32 1
    17    6    7 1
    18    6   33 1
    19    6   34 1
    20    7    8 1
    21    7   35 1
    22    7   36 1
    23    8    9 2
    24    8   37 1
    25    9   10 1
    26    9   38 1
    27   10   11 1
    28   10   12 1
    29   10   21 1
    30   12   13 3
    31   13   14 1
    32   14   15 3
    33   15   16 1
    34   16   17 1
    35   16   18 1
    36   16   20 1
    37   18   19 2
    38   18   39 1
    39   19   40 1
    40   19   41 1
    41   20   42 1
    42   21   43 1
@<TRIPOS>MOLECULE
ZINC03812983
   41    45     0     0     0
SMALL
USER_CHARGES
methylBLAHdiol
@<TRIPOS>ATOM
      1 C1          2.5532   -4.0281   -1.2929 C.3       1 <0>        -0.0484
      2 C2          3.5947   -1.8745   -0.9415 C.3       1 <0>        -0.0043
      3 C3          3.6019   -0.5992   -0.0995 C.3       1 <0>        -0.1260
      4 C4          2.2189    0.0434   -0.2379 C.3       1 <0>        -0.0574
      5 C5          1.9436    0.2694   -1.7033 C.ar      1 <0>        -0.1864
      6 C6          1.3321   -0.5987   -2.5755 C.ar      1 <0>        -0.0564
      7 C7          1.2190   -0.1564   -3.8812 C.ar      1 <0>        -0.1265
      8 C8          1.6669    1.1083   -4.2290 C.ar      1 <0>        -0.1009
      9 C9          2.2257    2.0020   -3.3175 C.ar      1 <0>         0.1075
     10 C10         2.3451    1.5675   -1.9939 C.ar      1 <0>         0.1517
     11 O1          2.7949    2.1721   -0.8702 O.3       1 <0>        -0.2745
     12 C11         2.1727    1.4792    0.2740 C.3       1 <0>         0.1100
     13 H1          2.6983    1.6223    1.2181 H         1 <0>         0.1502
     14 C12         0.7367    2.0155    0.2661 C.3       1 <0>         0.1097
     15 H2          0.6482    2.7733    1.0446 H         1 <0>         0.0803
     16 C13        -0.3150    0.9908    0.4879 C.2       1 <0>        -0.1525
     17 C14        -0.1527   -0.2942    0.4717 C.2       1 <0>        -0.1355
     18 C15         1.1799   -0.9197    0.2862 C.3       1 <0>        -0.0479
     19 H3          1.5192   -1.2471    1.2689 H         1 <0>         0.1004
     20 C16         1.1821   -2.1468   -0.6151 C.3       1 <0>         0.0590
     21 H4          0.4619   -2.8606   -0.2153 H         1 <0>         0.1363
     22 C17         0.8134   -1.9003   -2.0558 C.3       1 <0>        -0.0882
     23 O2          0.4964    2.6425   -0.9953 O.3       1 <0>        -0.5359
     24 O3          2.6371    3.2410   -3.6984 O.3       1 <0>        -0.4796
     25 H5          2.4612   -3.8104   -2.3570 H         1 <0>         0.1267
     26 H6          3.4994   -4.5361   -1.1065 H         1 <0>         0.1256
     27 H7          1.7289   -4.6694   -0.9807 H         1 <0>         0.1244
     28 H8          4.5493   -2.3884   -0.8287 H         1 <0>         0.1314
     29 H9          3.4563   -1.6019   -1.9877 H         1 <0>         0.1340
     30 H10         4.3670    0.0825   -0.4709 H         1 <0>         0.1194
     31 H11         3.7955   -0.8428    0.9451 H         1 <0>         0.0984
     32 H12         0.7809   -0.7981   -4.6314 H         1 <0>         0.1324
     33 H13         1.5779    1.4173   -5.2600 H         1 <0>         0.1363
     34 H14        -1.3148    1.3526    0.6772 H         1 <0>         0.1225
     35 H15        -1.0158   -0.9312    0.5970 H         1 <0>         0.1292
     36 H16        -0.2725   -1.9066   -2.1492 H         1 <0>         0.1227
     37 H17         1.2210   -2.7075   -2.6645 H         1 <0>         0.1017
     38 H18        -0.3623    3.0826   -1.0586 H         1 <0>         0.3865
     39 H19         3.5594    3.2780   -3.9865 H         1 <0>         0.3923
     40 N1          2.5173   -2.7921   -0.4927 N.4       1 <0>        -0.3970
     41 H20         2.6774   -3.0298    0.4933 H         1 <0>         0.4294
@<TRIPOS>BOND
     1    1   25 1
     2    1   26 1
     3    1   27 1
     4    1   40 1
     5    2    3 1
     6    2   28 1
     7    2   29 1
     8    2   40 1
     9    3    4 1
    10    3   30 1
    11    3   31 1
    12    4   12 1
    13    4   18 1
    14    4    5 1
    15    5   10 ar
    16    5    6 ar
    17    6   22 1
    18    6    7 ar
    19    7    8 ar
    20    7   32 1
    21    8    9 ar
    22    8   33 1
    23    9   10 ar
    24    9   24 1
    25   10   11 1
    26   11   12 1
    27   12   13 1
    28   12   14 1
    29   14   15 1
    30   14   16 1
    31   14   23 1
    32   16   17 2
    33   16   34 1
    34   17   18 1
    35   17   35 1
    36   18   19 1
    37   18   20 1
    38   20   21 1
    39   20   22 1
    40   20   40 1
    41   22   36 1
    42   22   37 1
    43   23   38 1
    44   24   39 1
    45   40   41 1
@<TRIPOS>MOLECULE
ZINC14952116
   76    77     0     0     0
SMALL
USER_CHARGES

@<TRIPOS>ATOM
      1 C1         -0.0187    1.5258    0.0104 C.3       1 <0>        -0.1447
      2 C2          0.0021   -0.0041    0.0020 C.3       1 <0>        -0.0967
      3 C3          0.7421   -0.5109    1.2415 C.3       1 <0>        -0.1473
      4 C4         -1.4333   -0.5336    0.0129 C.3       1 <0>        -0.1054
      5 C5         -1.4157   -2.0577   -0.1212 C.3       1 <0>         0.0745
      6 H1         -0.7891   -2.4841    0.6622 H         1 <0>         0.0870
      7 C6         -2.8192   -2.5900    0.0125 C.2       1 <0>         0.4905
      8 O1         -3.3892   -3.0569   -0.9588 O.co2     1 <0>        -0.6874
      9 O2         -3.3846   -2.5537    1.0921 O.co2     1 <0>        -0.6962
     10 N1         -0.8765   -2.4263   -1.4325 N.am      1 <0>        -0.6830
     11 C7         -0.2982   -3.6308   -1.6090 C.2       1 <0>         0.5110
     12 O3         -0.2242   -4.4096   -0.6822 O.2       1 <0>        -0.5434
     13 C8          0.2565   -4.0101   -2.9579 C.3       1 <0>         0.1410
     14 H2          1.0331   -3.3007   -3.2439 H         1 <0>         0.1113
     15 C9         -0.8664   -3.9833   -3.9969 C.3       1 <0>        -0.0906
     16 C10        -0.2907   -4.2419   -5.3654 C.ar      1 <0>        -0.0564
     17 C11         0.1466   -3.1854   -6.1422 C.ar      1 <0>        -0.1049
     18 C12         0.6746   -3.4227   -7.3975 C.ar      1 <0>        -0.1132
     19 C13         0.7657   -4.7164   -7.8758 C.ar      1 <0>        -0.1244
     20 C14         0.3292   -5.7730   -7.0986 C.ar      1 <0>        -0.1144
     21 C15        -0.1948   -5.5361   -5.8416 C.ar      1 <0>        -0.1104
     22 N2          0.8270   -5.3577   -2.8901 N.am      1 <0>        -0.7019
     23 C16         1.7936   -5.7246   -3.7546 C.2       1 <0>         0.5103
     24 O4          2.1912   -4.9391   -4.5888 O.2       1 <0>        -0.5220
     25 C17         2.3805   -7.1108   -3.6848 C.3       1 <0>         0.1013
     26 N3          3.4040   -7.2606   -4.7222 N.am      1 <0>        -0.7065
     27 C18         4.0686   -8.4262   -4.8498 C.2       1 <0>         0.5125
     28 O5          3.8194   -9.3510   -4.1058 O.2       1 <0>        -0.5389
     29 C19         5.1215   -8.5803   -5.9170 C.3       1 <0>         0.1024
     30 N4          5.6920   -9.9279   -5.8491 N.am      1 <0>        -0.7178
     31 C20         6.6587  -10.2948   -6.7136 C.2       1 <0>         0.5243
     32 O6          7.0562   -9.5093   -7.5478 O.2       1 <0>        -0.5267
     33 C21         7.2456  -11.6811   -6.6438 C.3       1 <0>         0.0854
     34 H3          6.4524  -12.4018   -6.4452 H         1 <0>         0.1063
     35 C22         8.2817  -11.7402   -5.5196 C.3       1 <0>        -0.1125
     36 C23         8.7791  -13.1547   -5.3688 C.ar      1 <0>        -0.0942
     37 C24         8.1319  -14.0263   -4.5124 C.ar      1 <0>        -0.0953
     38 C25         8.5862  -15.3233   -4.3721 C.ar      1 <0>        -0.1400
     39 C26         9.6924  -15.7513   -5.0916 C.ar      1 <0>         0.1037
     40 C27        10.3397  -14.8750   -5.9506 C.ar      1 <0>        -0.1404
     41 C28         9.8784  -13.5805   -6.0913 C.ar      1 <0>        -0.1033
     42 O7         10.1415  -17.0266   -4.9550 O.3       1 <0>        -0.5002
     43 N5          7.8918  -12.0042   -7.9228 N.3       1 <0>        -0.8255
     44 H4          1.0039    1.9031    0.0027 H         1 <0>         0.0490
     45 H5         -0.5459    1.8868   -0.8726 H         1 <0>         0.0520
     46 H6         -0.5289    1.8773    0.9072 H         1 <0>         0.0538
     47 H7          0.5123   -0.3556   -0.8948 H         1 <0>         0.0651
     48 H8          0.7568   -1.6008    1.2356 H         1 <0>         0.0579
     49 H9          1.7647   -0.1336    1.2338 H         1 <0>         0.0467
     50 H10         0.2319   -0.1594    2.1383 H         1 <0>         0.0546
     51 H11        -1.9156   -0.2570    0.9504 H         1 <0>         0.0807
     52 H12        -1.9862   -0.1019   -0.8214 H         1 <0>         0.0611
     53 H13        -0.9356   -1.8035   -2.1738 H         1 <0>         0.3916
     54 H14        -1.5995   -4.7542   -3.7595 H         1 <0>         0.0864
     55 H15        -1.3495   -3.0063   -3.9847 H         1 <0>         0.0914
     56 H16         0.0754   -2.1747   -5.7685 H         1 <0>         0.1162
     57 H17         1.0157   -2.5972   -8.0047 H         1 <0>         0.1146
     58 H18         1.1776   -4.9017   -8.8569 H         1 <0>         0.1130
     59 H19         0.4001   -6.7838   -7.4725 H         1 <0>         0.1117
     60 H20        -0.5324   -6.3619   -5.2329 H         1 <0>         0.1103
     61 H21         0.5090   -5.9859   -2.2229 H         1 <0>         0.4131
     62 H22         2.8314   -7.2656   -2.7045 H         1 <0>         0.1015
     63 H23         1.5926   -7.8473   -3.8427 H         1 <0>         0.1009
     64 H24         3.6034   -6.5210   -5.3172 H         1 <0>         0.4161
     65 H25         4.6706   -8.4255   -6.8972 H         1 <0>         0.1029
     66 H26         5.9094   -7.8438   -5.7591 H         1 <0>         0.1017
     67 H27         5.3741  -10.5561   -5.1819 H         1 <0>         0.4123
     68 H28         9.1183  -11.0848   -5.7617 H         1 <0>         0.0822
     69 H29         7.8235  -11.4147   -4.5857 H         1 <0>         0.0865
     70 H30         7.2708  -13.6926   -3.9525 H         1 <0>         0.1304
     71 H31         8.0808  -16.0035   -3.7025 H         1 <0>         0.1306
     72 H32        11.2012  -15.2058   -6.5118 H         1 <0>         0.1298
     73 H33        10.3793  -12.8992   -6.7631 H         1 <0>         0.1258
     74 H34         9.7431  -17.6525   -5.5751 H         1 <0>         0.3917
     75 H35         8.6314  -11.3498   -8.1298 H         1 <0>         0.3515
     76 H36         8.2370  -12.9523   -7.9242 H         1 <0>         0.3495
@<TRIPOS>BOND
     1    1    2 1
     2    1   44 1
     3    1   45 1
     4    1   46 1
     5    2    3 1
     6    2    4 1
     7    2   47 1
     8    3   48 1
     9    3   49 1
    10    3   50 1
    11    4    5 1
    12    4   51 1
    13    4   52 1
    14    5    6 1
    15    5    7 1
    16    5   10 1
    17    7    8 2
    18    7    9 1
    19   10   11 am
    20   10   53 1
    21   11   12 2
    22   11   13 1
    23   13   14 1
    24   13   15 1
    25   13   22 1
    26   15   16 1
    27   15   54 1
    28   15   55 1
    29   16   21 ar
    30   16   17 ar
    31   17   18 ar
    32   17   56 1
    33   18   19 ar
    34   18   57 1
    35   19   20 ar
    36   19   58 1
    37   20   21 ar
    38   20   59 1
    39   21   60 1
    40   22   23 am
    41   22   61 1
    42   23   24 2
    43   23   25 1
    44   25   26 1
    45   25   62 1
    46   25   63 1
    47   26   27 am
    48   26   64 1
    49   27   28 2
    50   27   29 1
    51   29   30 1
    52   29   65 1
    53   29   66 1
    54   30   31 am
    55   30   67 1
    56   31   32 2
    57   31   33 1
    58   33   34 1
    59   33   35 1
    60   33   43 1
    61   35   36 1
    62   35   68 1
    63   35   69 1
    64   36   41 ar
    65   36   37 ar
    66   37   38 ar
    67   37   70 1
    68   38   39 ar
    69   38   71 1
    70   39   40 ar
    71   39   42 1
    72   40   41 ar
    73   40   72 1
    74   41   73 1
    75   42   74 1
    76   43   75 1
    77   43   76 1
