@<TRIPOS>MOLECULE
ZINC02534401
   36    38     0     0     0
SMALL
USER_CHARGES
dimethylBLAHol
@<TRIPOS>ATOM
      1 C1         -1.5660    3.5822    2.4837 C.3       1 <0>        -0.1713
      2 C2         -1.0584    3.0545    1.1403 C.3       1 <0>        -0.0877
      3 H1         -0.1899    3.6317    0.8229 H         1 <0>         0.1214
      4 C3         -0.6989    1.5633    1.2760 C.3       1 <0>         0.0328
      5 H2          0.0129    1.4691    2.0961 H         1 <0>         0.1356
      6 C4         -0.0127    1.0858    0.0080 C.3       1 <0>        -0.0882
      7 C5         -0.7165    1.5724   -1.2301 C.ar      1 <0>        -0.1149
      8 C6         -0.3426    1.0107   -2.4463 C.ar      1 <0>        -0.0932
      9 C7         -0.9388    1.4171   -3.6203 C.ar      1 <0>        -0.1362
     10 C8         -1.9207    2.3972   -3.5926 C.ar      1 <0>         0.1248
     11 C9         -2.2962    2.9544   -2.3815 C.ar      1 <0>        -0.1397
     12 C10        -1.6977    2.5370   -1.2023 C.ar      1 <0>        -0.0649
     13 C11        -2.1668    3.1674    0.0882 C.3       1 <0>        -0.0211
     14 C12        -3.3825    2.3603    0.5776 C.3       1 <0>        -0.1371
     15 C13        -2.9615    0.8891    0.6611 C.3       1 <0>        -0.0093
     16 C14        -2.5479    4.6321   -0.1362 C.3       1 <0>        -0.1477
     17 O1         -2.5104    2.8074   -4.7463 O.3       1 <0>        -0.4966
     18 H3         -2.4275    2.9954    2.8025 H         1 <0>         0.0558
     19 H4         -0.7746    3.5000    3.2288 H         1 <0>         0.0754
     20 H5         -1.8574    4.6271    2.3770 H         1 <0>         0.0871
     21 H6          0.0021   -0.0041    0.0020 H         1 <0>         0.0959
     22 H7          1.0132    1.4539    0.0002 H         1 <0>         0.1214
     23 H8          0.4227    0.2490   -2.4708 H         1 <0>         0.1326
     24 H9         -0.6424    0.9742   -4.5596 H         1 <0>         0.1372
     25 H10        -3.0591    3.7184   -2.3554 H         1 <0>         0.1376
     26 H11        -3.6903    2.7155    1.5610 H         1 <0>         0.0986
     27 H12        -4.2056    2.4671   -0.1290 H         1 <0>         0.1133
     28 H13        -2.6339    0.5457   -0.3202 H         1 <0>         0.1334
     29 H14        -3.8079    0.2877    0.9925 H         1 <0>         0.1314
     30 H15        -3.3516    4.6900   -0.8703 H         1 <0>         0.0715
     31 H16        -2.8832    5.0685    0.8047 H         1 <0>         0.0722
     32 H17        -1.6806    5.1811   -0.5028 H         1 <0>         0.0706
     33 H18        -2.0621    3.5492   -5.1749 H         1 <0>         0.4011
     34 N1         -1.8611    0.7376    1.6400 N.4       1 <0>        -0.5089
     35 H19        -2.1971    1.0245    2.5669 H         1 <0>         0.4318
     36 H20        -1.5742   -0.2478    1.6698 H         1 <0>         0.4349
@<TRIPOS>BOND
     1    1    2 1
     2    1   18 1
     3    1   19 1
     4    1   20 1
     5    2    3 1
     6    2   13 1
     7    2    4 1
     8    4    5 1
     9    4    6 1
    10    4   34 1
    11    6    7 1
    12    6   21 1
    13    6   22 1
    14    7   12 ar
    15    7    8 ar
    16    8    9 ar
    17    8   23 1
    18    9   10 ar
    19    9   24 1
    20   10   11 ar
    21   10   17 1
    22   11   12 ar
    23   11   25 1
    24   12   13 1
    25   13   14 1
    26   13   16 1
    27   14   15 1
    28   14   26 1
    29   14   27 1
    30   15   28 1
    31   15   29 1
    32   15   34 1
    33   16   30 1
    34   16   31 1
    35   16   32 1
    36   17   33 1
    37   34   35 1
    38   34   36 1
@<TRIPOS>MOLECULE
ZINC38321402
   76    82     0     0     0
SMALL
USER_CHARGES

@<TRIPOS>ATOM
      1 C1          0.4310    1.5076   -1.3639 C.3       1 <0>        -0.1699
      2 C2         -0.0188    0.3493   -0.4713 C.3       1 <0>         0.1576
      3 C3          0.8533    0.3050    0.7849 C.3       1 <0>        -0.1001
      4 H1          0.9533   -0.7284    1.1169 H         1 <0>         0.0974
      5 C4          2.2417    0.8672    0.4567 C.3       1 <0>        -0.1345
      6 C5          2.5263    2.0512    1.3689 C.3       1 <0>        -0.0586
      7 C6          1.4722    3.1390    1.1281 C.3       1 <0>        -0.1114
      8 C7          0.0822    2.5870    1.4447 C.3       1 <0>        -0.1498
      9 C8          0.1872    1.1290    1.8917 C.3       1 <0>         0.1392
     10 C9          1.0327    1.0439    3.1653 C.3       1 <0>         0.0737
     11 H2          1.0947    0.0154    3.5210 H         1 <0>         0.1169
     12 C10         2.4211    1.5903    2.8308 C.3       1 <0>        -0.0454
     13 C11         3.5334    0.6459    3.2104 C.3       1 <0>        -0.1211
     14 C12         4.8977    1.2224    2.8250 C.3       1 <0>        -0.0107
     15 N1          4.9039    1.5632    1.3942 N.4       1 <0>        -0.3880
     16 C13         3.9169    2.6439    1.1753 C.3       1 <0>         0.0573
     17 H3          4.0109    3.0155    0.1550 H         1 <0>         0.1466
     18 C14         4.2611    3.7755    2.1430 C.3       1 <0>        -0.0941
     19 C15         3.3087    3.9382    3.2785 C.ar      1 <0>        -0.0530
     20 C16         2.4464    2.8973    3.5666 C.ar      1 <0>        -0.1746
     21 C17         1.3619    2.9528    4.4179 C.ar      1 <0>         0.1067
     22 C18         1.2530    4.0777    5.2475 C.ar      1 <0>         0.1057
     23 C19         2.1993    5.0849    5.0689 C.ar      1 <0>        -0.1016
     24 C20         3.1915    5.0414    4.1010 C.ar      1 <0>        -0.1156
     25 O1          0.2703    4.1813    6.1819 O.3       1 <0>        -0.4801
     26 O2          0.5194    1.9113    4.1927 O.3       1 <0>        -0.2684
     27 C21         6.2414    2.0255    1.0000 C.3       1 <0>         0.0212
     28 C22         7.2410    0.8761    1.1433 C.3       1 <0>        -0.2106
     29 C23         8.3675    1.0428    2.1650 C.3       1 <0>        -0.1682
     30 C24         8.6743    1.1230    0.6683 C.3       1 <0>        -0.1475
     31 O3         -1.1209    0.6142    2.1484 O.3       1 <0>        -0.3618
     32 C25        -1.8316    1.3163    3.1702 C.3       1 <0>         0.0249
     33 C26         0.1216   -0.9683   -1.2363 C.3       1 <0>        -0.0923
     34 C27         1.5655   -1.1278   -1.7166 C.3       1 <0>        -0.1503
     35 C28        -0.2410   -2.1344   -0.3145 C.3       1 <0>        -0.1511
     36 C29        -0.8193   -0.9603   -2.4428 C.3       1 <0>        -0.1409
     37 O4         -1.3846    0.5392   -0.0965 O.3       1 <0>        -0.5375
     38 H4          1.4583    1.3396   -1.6870 H         1 <0>         0.0768
     39 H5         -0.2192    1.5675   -2.2367 H         1 <0>         0.0727
     40 H6          0.3742    2.4411   -0.8040 H         1 <0>         0.0769
     41 H7          2.9945    0.0951    0.6157 H         1 <0>         0.0626
     42 H8          2.2663    1.1937   -0.5830 H         1 <0>         0.1156
     43 H9          1.6787    3.9934    1.7726 H         1 <0>         0.0852
     44 H10         1.5083    3.4547    0.0854 H         1 <0>         0.0824
     45 H11        -0.3688    3.1782    2.2417 H         1 <0>         0.0742
     46 H12        -0.5427    2.6480    0.5537 H         1 <0>         0.1053
     47 H13         3.5075    0.4765    4.2868 H         1 <0>         0.1160
     48 H14         3.3878   -0.3039    2.6958 H         1 <0>         0.0964
     49 H15         5.0916    2.1197    3.4126 H         1 <0>         0.1353
     50 H16         5.6736    0.4834    3.0253 H         1 <0>         0.1376
     51 H17         5.2547    3.5897    2.5508 H         1 <0>         0.1003
     52 H18         4.2922    4.7101    1.5830 H         1 <0>         0.1186
     53 H19         2.1577    5.9460    5.7194 H         1 <0>         0.1408
     54 H20         3.8735    5.8714    3.9904 H         1 <0>         0.1369
     55 H21         0.5111    3.8231    7.0472 H         1 <0>         0.3974
     56 H22         6.2190    2.3604   -0.0370 H         1 <0>         0.1355
     57 H23         6.5440    2.8524    1.6425 H         1 <0>         0.1310
     58 H24         6.8303   -0.1241    1.0052 H         1 <0>         0.1241
     59 H25         8.3965    1.9714    2.7352 H         1 <0>         0.1057
     60 H26         8.6981    0.1522    2.6995 H         1 <0>         0.1101
     61 H27         9.2067    0.2852    0.2180 H         1 <0>         0.1125
     62 H28         8.9051    2.1044    0.2537 H         1 <0>         0.1080
     63 H29        -2.8145    0.8648    3.3049 H         1 <0>         0.0882
     64 H30        -1.2743    1.2592    4.1052 H         1 <0>         0.0627
     65 H31        -1.9481    2.3605    2.8799 H         1 <0>         0.0458
     66 H32         2.1889   -1.4642   -0.8881 H         1 <0>         0.0512
     67 H33         1.6018   -1.8631   -2.5205 H         1 <0>         0.0620
     68 H34         1.9343   -0.1699   -2.0833 H         1 <0>         0.0601
     69 H35        -1.2697   -2.0207    0.0277 H         1 <0>         0.0606
     70 H36        -0.1410   -3.0730   -0.8595 H         1 <0>         0.0624
     71 H37         0.4292   -2.1401    0.5450 H         1 <0>         0.0560
     72 H38        -0.5609   -0.1296   -3.0995 H         1 <0>         0.0572
     73 H39        -0.7193   -1.8990   -2.9878 H         1 <0>         0.0552
     74 H40        -1.8479   -0.8467   -2.1006 H         1 <0>         0.0645
     75 H41        -1.7375   -0.1594    0.4713 H         1 <0>         0.3835
     76 H42         4.6485    0.7530    0.8497 H         1 <0>         0.4222
@<TRIPOS>BOND
     1    1    2 1
     2    1   38 1
     3    1   39 1
     4    1   40 1
     5    2    3 1
     6    2   33 1
     7    2   37 1
     8    3    4 1
     9    3    9 1
    10    3    5 1
    11    5    6 1
    12    5   41 1
    13    5   42 1
    14    6   12 1
    15    6   16 1
    16    6    7 1
    17    7    8 1
    18    7   43 1
    19    7   44 1
    20    8    9 1
    21    8   45 1
    22    8   46 1
    23    9   10 1
    24    9   31 1
    25   10   11 1
    26   10   26 1
    27   10   12 1
    28   12   20 1
    29   12   13 1
    30   13   14 1
    31   13   47 1
    32   13   48 1
    33   14   15 1
    34   14   49 1
    35   14   50 1
    36   15   16 1
    37   15   27 1
    38   15   76 1
    39   16   17 1
    40   16   18 1
    41   18   19 1
    42   18   51 1
    43   18   52 1
    44   19   24 ar
    45   19   20 ar
    46   20   21 ar
    47   21   22 ar
    48   21   26 1
    49   22   23 ar
    50   22   25 1
    51   23   24 ar
    52   23   53 1
    53   24   54 1
    54   25   55 1
    55   27   28 1
    56   27   56 1
    57   27   57 1
    58   28   30 1
    59   28   29 1
    60   28   58 1
    61   29   30 1
    62   29   59 1
    63   29   60 1
    64   30   61 1
    65   30   62 1
    66   31   32 1
    67   32   63 1
    68   32   64 1
    69   32   65 1
    70   33   34 1
    71   33   35 1
    72   33   36 1
    73   34   66 1
    74   34   67 1
    75   34   68 1
    76   35   69 1
    77   35   70 1
    78   35   71 1
    79   36   72 1
    80   36   73 1
    81   36   74 1
    82   37   75 1
@<TRIPOS>MOLECULE
ZINC58590440
   50    53     0     0     0
SMALL
USER_CHARGES

@<TRIPOS>ATOM
      1 C1          1.0173    1.7686   -0.9090 C.3       1 <0>        -0.0885
      2 C2          0.8331    0.2798   -0.7657 C.2       1 <0>        -0.0818
      3 C3         -0.3152   -0.4402   -0.7458 C.2       1 <0>        -0.1907
      4 C4         -0.2431   -1.8132   -0.6031 C.2       1 <0>        -0.0785
      5 C5          0.9738   -2.3990   -0.4874 C.2       1 <0>        -0.2682
      6 S1          2.0709   -0.9941   -0.5861 S.3       1 <0>         0.0826
      7 C6          1.3129   -3.8582   -0.3236 C.3       1 <0>         0.1025
      8 N1          1.4867   -4.4720   -1.6469 N.4       1 <0>        -0.3958
      9 C7          0.1786   -4.5929   -2.3440 C.3       1 <0>         0.0356
     10 H1         -0.4185   -3.6848   -2.2610 H         1 <0>         0.1465
     11 C8         -0.5024   -5.8043   -1.6665 C.3       1 <0>        -0.1395
     12 C9          0.6612   -6.6563   -1.1184 C.3       1 <0>        -0.1368
     13 C10         1.9396   -5.8824   -1.5145 C.3       1 <0>         0.0341
     14 H2          2.7338   -5.9929   -0.7762 H         1 <0>         0.1540
     15 C11         2.3628   -6.3581   -2.9135 C.3       1 <0>        -0.1348
     16 C12         1.1360   -6.3554   -3.8302 C.3       1 <0>         0.0707
     17 C13         0.4744   -4.9596   -3.8071 C.3       1 <0>        -0.1672
     18 O1          0.2030   -7.3391   -3.3785 O.3       1 <0>        -0.2924
     19 C14        -0.6401   -7.8622   -4.3073 C.ar      1 <0>         0.0993
     20 C15        -0.6474   -7.3570   -5.6007 C.ar      1 <0>        -0.1812
     21 C16        -1.5028   -7.8851   -6.5496 C.ar      1 <0>        -0.0833
     22 C17        -2.3557   -8.9180   -6.2174 C.ar      1 <0>        -0.1126
     23 C18        -2.3555   -9.4323   -4.9200 C.ar      1 <0>        -0.0940
     24 C19        -1.4873   -8.9024   -3.9650 C.ar      1 <0>        -0.0867
     25 C20        -3.2683  -10.5386   -4.5603 C.2       1 <0>         0.5605
     26 O2         -3.2663  -10.9849   -3.4297 O.2       1 <0>        -0.5321
     27 N2         -4.1024  -11.0520   -5.4861 N.am      1 <0>        -0.8457
     28 H3          2.0808    2.0067   -0.8892 H         1 <0>         0.0813
     29 H4          0.5887    2.0983   -1.8554 H         1 <0>         0.0941
     30 H5          0.5156    2.2777   -0.0861 H         1 <0>         0.0951
     31 H6         -1.2722    0.0515   -0.8396 H         1 <0>         0.1468
     32 H7         -1.1428   -2.4103   -0.5838 H         1 <0>         0.1398
     33 H8          2.2372   -3.9548    0.2459 H         1 <0>         0.1383
     34 H9          0.5048   -4.3617    0.2071 H         1 <0>         0.1444
     35 H10        -1.1453   -5.4713   -0.8517 H         1 <0>         0.0885
     36 H11        -1.0779   -6.3732   -2.3967 H         1 <0>         0.1271
     37 H12         0.5905   -6.7422   -0.0341 H         1 <0>         0.0932
     38 H13         0.6578   -7.6442   -1.5790 H         1 <0>         0.1323
     39 H14         3.1198   -5.6844   -3.3148 H         1 <0>         0.1066
     40 H15         2.7678   -7.3680   -2.8487 H         1 <0>         0.1253
     41 H16         1.4442   -6.5900   -4.8490 H         1 <0>         0.1046
     42 H17        -0.4577   -4.9900   -4.3714 H         1 <0>         0.1176
     43 H18         1.1423   -4.2161   -4.2420 H         1 <0>         0.1035
     44 H19         0.0173   -6.5483   -5.8662 H         1 <0>         0.1330
     45 H20        -1.5039   -7.4880   -7.5539 H         1 <0>         0.1373
     46 H21        -3.0232   -9.3278   -6.9610 H         1 <0>         0.1336
     47 H22        -1.4792   -9.2994   -2.9606 H         1 <0>         0.1466
     48 H23        -4.1040  -10.6959   -6.3883 H         1 <0>         0.4029
     49 H24        -4.7012  -11.7777   -5.2501 H         1 <0>         0.4114
     50 H25         2.1398   -3.9398   -2.2021 H         1 <0>         0.4207
@<TRIPOS>BOND
     1    1    2 1
     2    1   28 1
     3    1   29 1
     4    1   30 1
     5    2    6 1
     6    2    3 2
     7    3    4 1
     8    3   31 1
     9    4    5 2
    10    4   32 1
    11    5    6 1
    12    5    7 1
    13    7    8 1
    14    7   33 1
    15    7   34 1
    16    8   13 1
    17    8    9 1
    18    8   50 1
    19    9   10 1
    20    9   17 1
    21    9   11 1
    22   11   12 1
    23   11   35 1
    24   11   36 1
    25   12   13 1
    26   12   37 1
    27   12   38 1
    28   13   14 1
    29   13   15 1
    30   15   16 1
    31   15   39 1
    32   15   40 1
    33   16   17 1
    34   16   18 1
    35   16   41 1
    36   17   42 1
    37   17   43 1
    38   18   19 1
    39   19   24 ar
    40   19   20 ar
    41   20   21 ar
    42   20   44 1
    43   21   22 ar
    44   21   45 1
    45   22   23 ar
    46   22   46 1
    47   23   24 ar
    48   23   25 1
    49   24   47 1
    50   25   26 2
    51   25   27 am
    52   27   48 1
    53   27   49 1
@<TRIPOS>MOLECULE
ZINC58590440
   49    52     0     0     0
SMALL
USER_CHARGES

@<TRIPOS>ATOM
      1 C1          0.9868    1.7886   -0.9076 C.3       1 <0>        -0.0712
      2 C2          0.8051    0.2991   -0.7684 C.2       1 <0>        -0.1449
      3 C3         -0.3414   -0.4238   -0.7592 C.2       1 <0>        -0.1641
      4 C4         -0.2671   -1.7968   -0.6183 C.2       1 <0>        -0.1523
      5 C5          0.9502   -2.3798   -0.4935 C.2       1 <0>        -0.1304
      6 S1          2.0446   -0.9720   -0.5807 S.3       1 <0>         0.0484
      7 C6          1.2916   -3.8385   -0.3295 C.3       1 <0>         0.1262
      8 N1          1.4779   -4.4495   -1.6523 N.3       1 <0>        -0.4991
      9 C7          0.1703   -4.6767   -2.3234 C.3       1 <0>         0.0643
     10 H1         -0.4972   -3.8204   -2.2267 H         1 <0>         0.0933
     11 C8         -0.3957   -5.9399   -1.6347 C.3       1 <0>        -0.1495
     12 C9          0.8444   -6.6942   -1.1116 C.3       1 <0>        -0.1469
     13 C10         2.0471   -5.8182   -1.5317 C.3       1 <0>         0.0627
     14 H2          2.8623   -5.8637   -0.8096 H         1 <0>         0.0970
     15 C11         2.4795   -6.2574   -2.9398 C.3       1 <0>        -0.1007
     16 C12         1.2385   -6.3546   -3.8318 C.3       1 <0>         0.0823
     17 C13         0.4656   -5.0176   -3.7928 C.3       1 <0>        -0.1291
     18 O1          0.3982   -7.4114   -3.3635 O.3       1 <0>        -0.2858
     19 C14        -0.4178   -8.0014   -4.2763 C.ar      1 <0>         0.1174
     20 C15        -0.4923   -7.4981   -5.5682 C.ar      1 <0>        -0.1829
     21 C16        -1.3206   -8.0941   -6.5009 C.ar      1 <0>        -0.0859
     22 C17        -2.0794   -9.1933   -6.1537 C.ar      1 <0>        -0.1264
     23 C18        -2.0111   -9.7063   -4.8576 C.ar      1 <0>        -0.1007
     24 C19        -1.1701   -9.1074   -3.9191 C.ar      1 <0>        -0.0942
     25 C20        -2.8230  -10.8835   -4.4819 C.2       1 <0>         0.5632
     26 O2         -2.7619  -11.3285   -3.3524 O.2       1 <0>        -0.5349
     27 N2         -3.6309  -11.4632   -5.3918 N.am      1 <0>        -0.8493
     28 H3          2.0495    2.0293   -0.8786 H         1 <0>         0.0720
     29 H4          0.5653    2.1189   -1.8570 H         1 <0>         0.0798
     30 H5          0.4771    2.2950   -0.0880 H         1 <0>         0.0799
     31 H6         -1.2988    0.0658   -0.8601 H         1 <0>         0.1296
     32 H7         -1.1655   -2.3961   -0.6075 H         1 <0>         0.1266
     33 H8          2.2114   -3.9337    0.2476 H         1 <0>         0.0882
     34 H9          0.4804   -4.3448    0.1937 H         1 <0>         0.0641
     35 H10        -1.0472   -5.6608   -0.8067 H         1 <0>         0.0538
     36 H11        -0.9374   -6.5538   -2.3544 H         1 <0>         0.0913
     37 H12         0.8027   -6.7859   -0.0263 H         1 <0>         0.0581
     38 H13         0.9125   -7.6789   -1.5740 H         1 <0>         0.0964
     39 H14         3.1708   -5.5239   -3.3548 H         1 <0>         0.0921
     40 H15         2.9669   -7.2308   -2.8850 H         1 <0>         0.0791
     41 H16         1.5443   -6.5629   -4.8570 H         1 <0>         0.0764
     42 H17        -0.4720   -5.1239   -4.3384 H         1 <0>         0.0722
     43 H18         1.0617   -4.2218   -4.2395 H         1 <0>         0.0879
     44 H19         0.0987   -6.6377   -5.8454 H         1 <0>         0.1348
     45 H20        -1.3743   -7.6980   -7.5042 H         1 <0>         0.1320
     46 H21        -2.7260   -9.6561   -6.8846 H         1 <0>         0.1273
     47 H22        -1.1094   -9.5028   -2.9159 H         1 <0>         0.1429
     48 H23        -3.6796  -11.1080   -6.2931 H         1 <0>         0.4018
     49 H24        -4.1635  -12.2355   -5.1453 H         1 <0>         0.4072
@<TRIPOS>BOND
     1    1    2 1
     2    1   28 1
     3    1   29 1
     4    1   30 1
     5    2    6 1
     6    2    3 2
     7    3    4 1
     8    3   31 1
     9    4    5 2
    10    4   32 1
    11    5    6 1
    12    5    7 1
    13    7    8 1
    14    7   33 1
    15    7   34 1
    16    8   13 1
    17    8    9 1
    18    9   10 1
    19    9   17 1
    20    9   11 1
    21   11   12 1
    22   11   35 1
    23   11   36 1
    24   12   13 1
    25   12   37 1
    26   12   38 1
    27   13   14 1
    28   13   15 1
    29   15   16 1
    30   15   39 1
    31   15   40 1
    32   16   17 1
    33   16   18 1
    34   16   41 1
    35   17   42 1
    36   17   43 1
    37   18   19 1
    38   19   24 ar
    39   19   20 ar
    40   20   21 ar
    41   20   44 1
    42   21   22 ar
    43   21   45 1
    44   22   23 ar
    45   22   46 1
    46   23   24 ar
    47   23   25 1
    48   24   47 1
    49   25   26 2
    50   25   27 am
    51   27   48 1
    52   27   49 1
@<TRIPOS>MOLECULE
ZINC00000853
   45    46     0     0     0
SMALL
USER_CHARGES

@<TRIPOS>ATOM
      1 C1         -0.0178    1.4648    0.0101 C.3       1 <0>        -0.0563
      2 N1          0.0021   -0.0041    0.0020 N.4       1 <0>        -0.3878
      3 C2          0.7126   -0.4907    1.1921 C.3       1 <0>        -0.0471
      4 C3         -1.3761   -0.5125    0.0124 C.3       1 <0>        -0.0103
      5 C4         -2.0780   -0.1101   -1.2861 C.3       1 <0>        -0.0949
      6 H1         -2.0144    0.9705   -1.4137 H         1 <0>         0.1057
      7 C5         -1.3995   -0.8041   -2.4688 C.3       1 <0>        -0.1251
      8 C6         -2.1014   -0.4017   -3.7674 C.3       1 <0>        -0.1201
      9 C7         -3.5711   -0.8221   -3.7042 C.3       1 <0>        -0.1213
     10 C8         -4.2497   -0.1281   -2.5214 C.3       1 <0>        -0.1420
     11 C9         -3.5477   -0.5306   -1.2229 C.3       1 <0>         0.1949
     12 C10        -4.2161    0.1530   -0.0579 C.ar      1 <0>        -0.0843
     13 C11        -3.7786    1.3977    0.3564 C.ar      1 <0>        -0.1707
     14 C12        -4.3896    2.0274    1.4247 C.ar      1 <0>        -0.0707
     15 C13        -5.4390    1.4140    2.0816 C.ar      1 <0>        -0.2039
     16 C14        -5.8796    0.1655    1.6680 C.ar      1 <0>         0.1450
     17 C15        -5.2687   -0.4618    0.5916 C.ar      1 <0>        -0.1429
     18 O1         -6.9117   -0.4400    2.3124 O.3       1 <0>        -0.3132
     19 C16        -7.4965    0.2669    3.4080 C.3       1 <0>         0.0238
     20 O2         -3.6311   -1.9473   -1.0556 O.3       1 <0>        -0.5509
     21 H2          1.0047    1.8421    0.0024 H         1 <0>         0.1265
     22 H3         -0.5450    1.8259   -0.8730 H         1 <0>         0.1223
     23 H4         -0.5280    1.8163    0.9069 H         1 <0>         0.1237
     24 H5          0.2024   -0.1392    2.0889 H         1 <0>         0.1216
     25 H6          0.7273   -1.5806    1.1861 H         1 <0>         0.1240
     26 H7          1.7352   -0.1134    1.1844 H         1 <0>         0.1249
     27 H8         -1.3618   -1.5992    0.0961 H         1 <0>         0.1405
     28 H9         -1.9129   -0.0898    0.8617 H         1 <0>         0.1336
     29 H10        -0.3524   -0.5046   -2.5139 H         1 <0>         0.0574
     30 H11        -1.4631   -1.8847   -2.3413 H         1 <0>         0.0907
     31 H12        -2.0378    0.6790   -3.8950 H         1 <0>         0.0659
     32 H13        -1.6180   -0.8961   -4.6100 H         1 <0>         0.0759
     33 H14        -4.0712   -0.5354   -4.6293 H         1 <0>         0.0732
     34 H15        -3.6347   -1.9028   -3.5766 H         1 <0>         0.0755
     35 H16        -4.1861    0.9525   -2.6490 H         1 <0>         0.0782
     36 H17        -5.2967   -0.4277   -2.4764 H         1 <0>         0.0788
     37 H18        -2.9581    1.8786   -0.1553 H         1 <0>         0.1199
     38 H19        -4.0462    2.9995    1.7463 H         1 <0>         0.1301
     39 H20        -5.9155    1.9060    2.9166 H         1 <0>         0.1343
     40 H21        -5.6131   -1.4318    0.2646 H         1 <0>         0.1327
     41 H22        -7.8899    1.2207    3.0566 H         1 <0>         0.0603
     42 H23        -8.3067   -0.3263    3.8321 H         1 <0>         0.1081
     43 H24        -6.7389    0.4453    4.1712 H         1 <0>         0.0591
     44 H25        -4.5359   -2.2851   -1.0074 H         1 <0>         0.3908
     45 H26         0.4743   -0.3295   -0.8281 H         1 <0>         0.4241
@<TRIPOS>BOND
     1    1    2 1
     2    1   21 1
     3    1   22 1
     4    1   23 1
     5    2    3 1
     6    2    4 1
     7    2   45 1
     8    3   24 1
     9    3   25 1
    10    3   26 1
    11    4    5 1
    12    4   27 1
    13    4   28 1
    14    5    6 1
    15    5   11 1
    16    5    7 1
    17    7    8 1
    18    7   29 1
    19    7   30 1
    20    8    9 1
    21    8   31 1
    22    8   32 1
    23    9   10 1
    24    9   33 1
    25    9   34 1
    26   10   11 1
    27   10   35 1
    28   10   36 1
    29   11   12 1
    30   11   20 1
    31   12   17 ar
    32   12   13 ar
    33   13   14 ar
    34   13   37 1
    35   14   15 ar
    36   14   38 1
    37   15   16 ar
    38   15   39 1
    39   16   17 ar
    40   16   18 1
    41   17   40 1
    42   18   19 1
    43   19   41 1
    44   19   42 1
    45   19   43 1
    46   20   44 1
@<TRIPOS>MOLECULE
ZINC00002200
   45    46     0     0     0
SMALL
USER_CHARGES
2-(dimethylaminomethyl)-1-(3-methoxyphenyl)-cyclohexan-1-ol
@<TRIPOS>ATOM
      1 C1         -4.3360    0.0060   -2.3149 C.3       1 <0>        -0.0424
      2 C2         -3.4265   -2.0815   -1.4917 C.3       1 <0>        -0.0505
      3 H1         -2.8695   -2.5368   -0.6728 H         1 <0>         0.1199
      4 H2         -4.4311   -2.5031   -1.5264 H         1 <0>         0.1245
      5 H3         -2.9159   -2.2814   -2.4337 H         1 <0>         0.1245
      6 C3         -2.1733   -0.0268   -1.2266 C.3       1 <0>        -0.0051
      7 C4         -1.4333   -0.5336    0.0129 C.3       1 <0>        -0.0960
      8 H4         -1.4185   -1.6235    0.0069 H         1 <0>         0.1055
      9 C5         -2.1494   -0.0402    1.2717 C.3       1 <0>        -0.1250
     10 C6         -1.4095   -0.5471    2.5112 C.3       1 <0>        -0.1199
     11 C7          0.0259   -0.0175    2.5003 C.3       1 <0>        -0.1213
     12 C8          0.7421   -0.5109    1.2415 C.3       1 <0>        -0.1421
     13 C9          0.0021   -0.0041    0.0020 C.3       1 <0>         0.1949
     14 C10         0.7074   -0.4901   -1.2379 C.ar      1 <0>        -0.0845
     15 C11         0.3564   -1.7029   -1.8018 C.ar      1 <0>        -0.1701
     16 C12         0.9977   -2.1489   -2.9425 C.ar      1 <0>        -0.0708
     17 C13         1.9991   -1.3887   -3.5154 C.ar      1 <0>        -0.2038
     18 C14         2.3570   -0.1744   -2.9483 C.ar      1 <0>         0.1449
     19 C15         1.7079    0.2736   -1.8068 C.ar      1 <0>        -0.1430
     20 O1          3.3419    0.5750   -3.5097 O.3       1 <0>        -0.3132
     21 C16         3.9663    0.0515   -4.6837 C.3       1 <0>         0.0239
     22 O2         -0.0173    1.4248    0.0099 O.3       1 <0>        -0.5510
     23 H5         -3.8583   -0.1182   -3.2867 H         1 <0>         0.1227
     24 H6         -5.3213   -0.4598   -2.3321 H         1 <0>         0.1229
     25 H7         -4.4402    1.0684   -2.0944 H         1 <0>         0.1221
     26 H8         -2.2658    1.0581   -1.1763 H         1 <0>         0.1388
     27 H9         -1.6150   -0.3027   -2.1212 H         1 <0>         0.1348
     28 H10        -2.1642    1.0497    1.2777 H         1 <0>         0.0911
     29 H11        -3.1720   -0.4175    1.2794 H         1 <0>         0.0569
     30 H12        -1.9196   -0.1955    3.4080 H         1 <0>         0.0760
     31 H13        -1.3947   -1.6369    2.5052 H         1 <0>         0.0661
     32 H14         0.0111    1.0724    2.5063 H         1 <0>         0.0755
     33 H15         0.5531   -0.3786    3.3834 H         1 <0>         0.0733
     34 H16         0.7568   -1.6008    1.2356 H         1 <0>         0.0782
     35 H17         1.7647   -0.1336    1.2338 H         1 <0>         0.0788
     36 H18        -0.4228   -2.3009   -1.3528 H         1 <0>         0.1201
     37 H19         0.7185   -3.0942   -3.3838 H         1 <0>         0.1301
     38 H20         2.5031   -1.7397   -4.4037 H         1 <0>         0.1342
     39 H21         1.9845    1.2189   -1.3636 H         1 <0>         0.1326
     40 H22         4.7322    0.7462   -5.0284 H         1 <0>         0.1081
     41 H23         4.4251   -0.9100   -4.4531 H         1 <0>         0.0603
     42 H24         3.2178   -0.0811   -5.4649 H         1 <0>         0.0591
     43 H25         0.8606    1.8301    0.0037 H         1 <0>         0.3908
     44 N1         -3.5242   -0.6260   -1.2536 N.4       1 <0>        -0.3993
     45 H26        -3.9782   -0.4662   -0.3467 H         1 <0>         0.4275
@<TRIPOS>BOND
     1    1   23 1
     2    1   24 1
     3    1   25 1
     4    1   44 1
     5    2    3 1
     6    2    4 1
     7    2    5 1
     8    2   44 1
     9    6    7 1
    10    6   26 1
    11    6   27 1
    12    6   44 1
    13    7    8 1
    14    7   13 1
    15    7    9 1
    16    9   10 1
    17    9   28 1
    18    9   29 1
    19   10   11 1
    20   10   30 1
    21   10   31 1
    22   11   12 1
    23   11   32 1
    24   11   33 1
    25   12   13 1
    26   12   34 1
    27   12   35 1
    28   13   14 1
    29   13   22 1
    30   14   19 ar
    31   14   15 ar
    32   15   16 ar
    33   15   36 1
    34   16   17 ar
    35   16   37 1
    36   17   18 ar
    37   17   38 1
    38   18   19 ar
    39   18   20 1
    40   19   39 1
    41   20   21 1
    42   21   40 1
    43   21   41 1
    44   21   42 1
    45   22   43 1
    46   44   45 1
@<TRIPOS>MOLECULE
ZINC01849532
   45    46     0     0     0
SMALL
USER_CHARGES
2-(dimethylaminomethyl)-1-(3-methoxyphenyl)-cyclohexan-1-ol
@<TRIPOS>ATOM
      1 C1         -3.8545    4.1975    2.4202 C.3       1 <0>        -0.0487
      2 C2         -5.0373    5.1687    0.5440 C.3       1 <0>        -0.0439
      3 C3         -3.7850    3.1167    0.2547 C.3       1 <0>        -0.0176
      4 C4         -3.5513    1.7292    0.8556 C.3       1 <0>        -0.0934
      5 H1         -3.0656    1.8307    1.8261 H         1 <0>         0.1035
      6 C5         -4.8937    1.0160    1.0293 C.3       1 <0>        -0.1270
      7 C6         -5.5755    0.8735   -0.3329 C.3       1 <0>        -0.1281
      8 C7         -4.6813    0.0568   -1.2679 C.3       1 <0>        -0.1218
      9 C8         -3.3389    0.7700   -1.4416 C.3       1 <0>        -0.1522
     10 C9         -2.6571    0.9125   -0.0793 C.3       1 <0>         0.1978
     11 C10        -1.3348    1.6150   -0.2504 C.ar      1 <0>        -0.0976
     12 C11        -0.2551    1.2563    0.5357 C.ar      1 <0>        -0.1395
     13 C12         0.9577    1.9025    0.3848 C.ar      1 <0>        -0.0702
     14 C13         1.0951    2.9054   -0.5555 C.ar      1 <0>        -0.1995
     15 C14         0.0151    3.2634   -1.3489 C.ar      1 <0>         0.1329
     16 C15        -1.2009    2.6130   -1.1958 C.ar      1 <0>        -0.1616
     17 O1          0.1480    4.2492   -2.2748 O.3       1 <0>        -0.3174
     18 C16         1.4286    4.8749   -2.3771 C.3       1 <0>         0.0239
     19 O2         -2.4388   -0.3834    0.4819 O.3       1 <0>        -0.5426
     20 H2         -2.9421    4.7457    2.1854 H         1 <0>         0.1239
     21 H3         -4.4756    4.7948    3.0878 H         1 <0>         0.1246
     22 H4         -3.5980    3.2568    2.9074 H         1 <0>         0.1221
     23 H5         -5.6407    4.9340   -0.3329 H         1 <0>         0.1217
     24 H6         -5.6333    5.7454    1.2513 H         1 <0>         0.1248
     25 H7         -4.1678    5.7520    0.2411 H         1 <0>         0.1241
     26 H8         -2.8257    3.6071    0.0889 H         1 <0>         0.1395
     27 H9         -4.3112    3.0175   -0.6947 H         1 <0>         0.1358
     28 H10        -5.5308    1.5978    1.6954 H         1 <0>         0.0579
     29 H11        -4.7272    0.0275    1.4574 H         1 <0>         0.1029
     30 H12        -5.7420    1.8620   -0.7611 H         1 <0>         0.0553
     31 H13        -6.5319    0.3654   -0.2092 H         1 <0>         0.0800
     32 H14        -5.1670   -0.0447   -2.2384 H         1 <0>         0.0735
     33 H15        -4.5148   -0.9317   -0.8398 H         1 <0>         0.0797
     34 H16        -3.5053    1.7585   -1.8697 H         1 <0>         0.0739
     35 H17        -2.7018    0.1882   -2.1077 H         1 <0>         0.0819
     36 H18        -0.3606    0.4726    1.2713 H         1 <0>         0.1350
     37 H19         1.7983    1.6233    1.0028 H         1 <0>         0.1321
     38 H20         2.0426    3.4104   -0.6725 H         1 <0>         0.1336
     39 H21        -2.0433    2.8899   -1.8124 H         1 <0>         0.1307
     40 H22         1.6864    5.3332   -1.4223 H         1 <0>         0.0586
     41 H23         2.1786    4.1274   -2.6356 H         1 <0>         0.0608
     42 H24         1.3977    5.6414   -3.1515 H         1 <0>         0.1069
     43 H25        -1.8788   -0.9570   -0.0588 H         1 <0>         0.3925
     44 N1         -4.6162    3.9064    1.1875 N.4       1 <0>        -0.3966
     45 H26        -5.4517    3.3620    1.4324 H         1 <0>         0.4276
@<TRIPOS>BOND
     1    1   20 1
     2    1   21 1
     3    1   22 1
     4    1   44 1
     5    2   23 1
     6    2   24 1
     7    2   25 1
     8    2   44 1
     9    3    4 1
    10    3   26 1
    11    3   27 1
    12    3   44 1
    13    4    5 1
    14    4   10 1
    15    4    6 1
    16    6    7 1
    17    6   28 1
    18    6   29 1
    19    7    8 1
    20    7   30 1
    21    7   31 1
    22    8    9 1
    23    8   32 1
    24    8   33 1
    25    9   10 1
    26    9   34 1
    27    9   35 1
    28   10   11 1
    29   10   19 1
    30   11   16 ar
    31   11   12 ar
    32   12   13 ar
    33   12   36 1
    34   13   14 ar
    35   13   37 1
    36   14   15 ar
    37   14   38 1
    38   15   16 ar
    39   15   17 1
    40   16   39 1
    41   17   18 1
    42   18   40 1
    43   18   41 1
    44   18   42 1
    45   19   43 1
    46   44   45 1
@<TRIPOS>MOLECULE
ZINC02015652
   45    46     0     0     0
SMALL
USER_CHARGES

@<TRIPOS>ATOM
      1 C1         -0.0525   -2.0814   -0.7853 C.3       1 <0>        -0.0566
      2 N1         -1.1008   -1.9115    0.2297 N.4       1 <0>        -0.3982
      3 C2         -0.6157   -2.4114    1.5230 C.3       1 <0>        -0.0511
      4 C3         -1.4389   -0.4871    0.3509 C.3       1 <0>        -0.0131
      5 C4         -2.0436    0.0072   -0.9648 C.3       1 <0>        -0.0949
      6 H1         -1.4830   -0.4095   -1.8015 H         1 <0>         0.1020
      7 C5         -1.9752    1.5349   -1.0153 C.3       1 <0>        -0.1098
      8 C6         -2.7620    2.1198    0.1593 C.3       1 <0>        -0.1278
      9 C7         -4.2221    1.6714    0.0688 C.3       1 <0>        -0.1224
     10 C8         -4.2905    0.1438    0.1193 C.3       1 <0>        -0.1519
     11 C9         -3.5036   -0.4411   -1.0552 C.3       1 <0>         0.1809
     12 C10        -3.5711   -1.9458   -1.0054 C.ar      1 <0>        -0.1268
     13 C11        -4.0597   -2.5785    0.1230 C.ar      1 <0>        -0.1791
     14 C12        -4.1228   -3.9586    0.1718 C.ar      1 <0>        -0.0733
     15 C13        -3.6972   -4.7094   -0.9072 C.ar      1 <0>        -0.1994
     16 C14        -3.2067   -4.0772   -2.0402 C.ar      1 <0>         0.1380
     17 C15        -3.1500   -2.6916   -2.0891 C.ar      1 <0>        -0.1464
     18 O1         -2.7875   -4.8134   -3.1028 O.3       1 <0>        -0.3079
     19 C16        -2.8803   -6.2345   -2.9846 C.3       1 <0>         0.0205
     20 O2         -4.0684    0.0206   -2.2840 O.3       1 <0>        -0.5352
     21 H2          0.2849   -3.1178   -0.7893 H         1 <0>         0.1230
     22 H3         -0.4521   -1.8256   -1.7667 H         1 <0>         0.1225
     23 H4          0.7875   -1.4267   -0.5532 H         1 <0>         0.1268
     24 H5          0.2712   -1.8514    1.8195 H         1 <0>         0.1254
     25 H6         -1.3935   -2.2854    2.2762 H         1 <0>         0.1219
     26 H7         -0.3648   -3.4683    1.4331 H         1 <0>         0.1225
     27 H8         -2.1612   -0.3523    1.1560 H         1 <0>         0.1354
     28 H9         -0.5367    0.0828    0.5729 H         1 <0>         0.1394
     29 H10        -0.9350    1.8543   -0.9508 H         1 <0>         0.0760
     30 H11        -2.4060    1.8871   -1.9526 H         1 <0>         0.0943
     31 H12        -2.3312    1.7676    1.0965 H         1 <0>         0.0602
     32 H13        -2.7133    3.2081    0.1233 H         1 <0>         0.0785
     33 H14        -4.7826    2.0881    0.9056 H         1 <0>         0.0733
     34 H15        -4.6529    2.0236   -0.8685 H         1 <0>         0.0791
     35 H16        -3.8597   -0.2084    1.0566 H         1 <0>         0.0721
     36 H17        -5.3307   -0.1756    0.0549 H         1 <0>         0.0827
     37 H18        -4.3922   -1.9934    0.9677 H         1 <0>         0.1418
     38 H19        -4.5048   -4.4504    1.0542 H         1 <0>         0.1412
     39 H20        -3.7461   -5.7876   -0.8683 H         1 <0>         0.1424
     40 H21        -2.7729   -2.1969   -2.9719 H         1 <0>         0.1470
     41 H22        -3.9202   -6.5185   -2.8235 H         1 <0>         0.0639
     42 H23        -2.5141   -6.6999   -3.8997 H         1 <0>         0.1121
     43 H24        -2.2774   -6.5690   -2.1404 H         1 <0>         0.0606
     44 H25        -4.9946   -0.2278   -2.4091 H         1 <0>         0.3912
     45 H26        -1.9218   -2.4299   -0.0447 H         1 <0>         0.4189
@<TRIPOS>BOND
     1    1    2 1
     2    1   21 1
     3    1   22 1
     4    1   23 1
     5    2    3 1
     6    2    4 1
     7    2   45 1
     8    3   24 1
     9    3   25 1
    10    3   26 1
    11    4    5 1
    12    4   27 1
    13    4   28 1
    14    5    6 1
    15    5   11 1
    16    5    7 1
    17    7    8 1
    18    7   29 1
    19    7   30 1
    20    8    9 1
    21    8   31 1
    22    8   32 1
    23    9   10 1
    24    9   33 1
    25    9   34 1
    26   10   11 1
    27   10   35 1
    28   10   36 1
    29   11   12 1
    30   11   20 1
    31   12   17 ar
    32   12   13 ar
    33   13   14 ar
    34   13   37 1
    35   14   15 ar
    36   14   38 1
    37   15   16 ar
    38   15   39 1
    39   16   17 ar
    40   16   18 1
    41   17   40 1
    42   18   19 1
    43   19   41 1
    44   19   42 1
    45   19   43 1
    46   20   44 1
@<TRIPOS>MOLECULE
ZINC14089740
   60    65     0     0     0
SMALL
USER_CHARGES
(2S,3S,4S,5R,6R)-3,4,5-trihydroxy-6-(hydroxy-methyl-BLAHyl)oxy-tetrahydropyran-2-carboxylic acid
@<TRIPOS>ATOM
      1 C1          2.2238   -3.3128    8.0696 C.3       1 <0>        -0.0471
      2 C2          3.4617   -1.4602    7.1304 C.3       1 <0>        -0.0033
      3 C3          3.4604    0.0510    6.8535 C.3       1 <0>        -0.1222
      4 C4          2.2591    0.3419    5.9499 C.3       1 <0>        -0.0575
      5 C5          2.3752   -0.5146    4.7140 C.ar      1 <0>        -0.1776
      6 C6          1.8556   -1.7726    4.5248 C.ar      1 <0>        -0.0492
      7 C7          2.1142   -2.3494    3.2944 C.ar      1 <0>        -0.1194
      8 C8          2.8193   -1.6464    2.3302 C.ar      1 <0>        -0.1005
      9 C9          3.2861   -0.3467    2.5162 C.ar      1 <0>         0.1020
     10 C10         3.0344    0.2470    3.7569 C.ar      1 <0>         0.1420
     11 O1          3.2757    1.4871    4.2413 O.3       1 <0>        -0.2773
     12 C11         2.3032    1.7313    5.3230 C.3       1 <0>         0.1113
     13 H1          2.5850    2.5167    6.0243 H         1 <0>         0.1520
     14 C12         1.0050    2.0292    4.5642 C.3       1 <0>         0.0974
     15 H2          0.8451    3.1074    4.5659 H         1 <0>         0.0841
     16 C13        -0.2057    1.3748    5.1224 C.2       1 <0>        -0.1210
     17 C14        -0.2362    0.4448    6.0190 C.2       1 <0>        -0.1521
     18 C15         0.9959   -0.0584    6.6750 C.3       1 <0>        -0.0436
     19 H3          1.0359    0.4052    7.6606 H         1 <0>         0.0950
     20 C16         1.0254   -1.5652    6.8918 C.3       1 <0>         0.0574
     21 H4          0.1286   -1.8319    7.4512 H         1 <0>         0.1387
     22 C17         1.0512   -2.3956    5.6193 C.3       1 <0>        -0.0857
     23 O2          1.1655    1.6011    3.2103 O.3       1 <0>        -0.3396
     24 C18         0.2700    2.2305    2.2916 C.3       1 <0>         0.2181
     25 H5          0.2050    3.2947    2.5185 H         1 <0>         0.0634
     26 C19         0.7891    2.0438    0.8636 C.3       1 <0>         0.1027
     27 H6          0.8929    0.9800    0.6499 H         1 <0>         0.0766
     28 C20        -0.2062    2.6686   -0.1189 C.3       1 <0>         0.1245
     29 H7         -0.2730    3.7413    0.0623 H         1 <0>         0.0706
     30 C21        -1.5819    2.0274    0.0881 C.3       1 <0>         0.0696
     31 H8         -1.5260    0.9633   -0.1413 H         1 <0>         0.0663
     32 C22        -2.0094    2.2147    1.5461 C.3       1 <0>         0.0224
     33 H9         -2.1043    3.2787    1.7632 H         1 <0>         0.0715
     34 O3         -1.0254    1.6385    2.4074 O.3       1 <0>        -0.3592
     35 C23        -3.3353    1.5352    1.7724 C.2       1 <0>         0.4750
     36 O4         -3.4097    0.5899    2.5213 O.co2     1 <0>        -0.6071
     37 O5         -2.5347    2.6524   -0.7743 O.3       1 <0>        -0.5639
     38 O6          0.2335    2.4347   -1.4584 O.3       1 <0>        -0.5511
     39 O7          2.0594    2.6842    0.7283 O.3       1 <0>        -0.5421
     40 O8          3.9561    0.3149    1.5349 O.3       1 <0>        -0.4845
     41 H10         2.4155   -3.8965    7.1692 H         1 <0>         0.1260
     42 H11         3.0144   -3.4967    8.7971 H         1 <0>         0.1221
     43 H12         1.2637   -3.6054    8.4946 H         1 <0>         0.1233
     44 H13         4.2776   -1.6986    7.8127 H         1 <0>         0.1277
     45 H14         3.6115   -1.9960    6.1931 H         1 <0>         0.1344
     46 H15         4.3831    0.3370    6.3486 H         1 <0>         0.1188
     47 H16         3.3625    0.6002    7.7899 H         1 <0>         0.0963
     48 H17         1.7661   -3.3500    3.0847 H         1 <0>         0.1323
     49 H18         3.0170   -2.1310    1.3855 H         1 <0>         0.1352
     50 H19        -1.1593    1.7101    4.7421 H         1 <0>         0.1357
     51 H20        -1.1883    0.0189    6.2995 H         1 <0>         0.1302
     52 H21         0.0280   -2.5303    5.2686 H         1 <0>         0.1261
     53 H22         1.4716   -3.3747    5.8488 H         1 <0>         0.0980
     54 H23        -3.4302    2.2964   -0.6946 H         1 <0>         0.4068
     55 H24        -0.3547    2.7982   -2.1345 H         1 <0>         0.3908
     56 H25         2.7085    2.4146    1.3925 H         1 <0>         0.3768
     57 H26         3.3811    0.7547    0.8938 H         1 <0>         0.3916
     58 N1          2.1866   -1.8711    7.7705 N.4       1 <0>        -0.3963
     59 H27         2.0780   -1.3521    8.6497 H         1 <0>         0.4274
     60 O9         -4.4337    1.9800    1.1419 O.co2     1 <0>        -0.7395
@<TRIPOS>BOND
     1    1   41 1
     2    1   42 1
     3    1   43 1
     4    1   58 1
     5    2    3 1
     6    2   44 1
     7    2   45 1
     8    2   58 1
     9    3    4 1
    10    3   46 1
    11    3   47 1
    12    4   12 1
    13    4   18 1
    14    4    5 1
    15    5   10 ar
    16    5    6 ar
    17    6   22 1
    18    6    7 ar
    19    7    8 ar
    20    7   48 1
    21    8    9 ar
    22    8   49 1
    23    9   10 ar
    24    9   40 1
    25   10   11 1
    26   11   12 1
    27   12   13 1
    28   12   14 1
    29   14   15 1
    30   14   16 1
    31   14   23 1
    32   16   17 2
    33   16   50 1
    34   17   18 1
    35   17   51 1
    36   18   19 1
    37   18   20 1
    38   20   21 1
    39   20   22 1
    40   20   58 1
    41   22   52 1
    42   22   53 1
    43   23   24 1
    44   24   25 1
    45   24   34 1
    46   24   26 1
    47   26   27 1
    48   26   28 1
    49   26   39 1
    50   28   29 1
    51   28   30 1
    52   28   38 1
    53   30   31 1
    54   30   32 1
    55   30   37 1
    56   32   33 1
    57   32   34 1
    58   32   35 1
    59   35   36 2
    60   35   60 1
    61   37   54 1
    62   38   55 1
    63   39   56 1
    64   40   57 1
    65   58   59 1
@<TRIPOS>MOLECULE
ZINC22066510
   73    75     0     0     0
SMALL
USER_CHARGES

@<TRIPOS>ATOM
      1 C1          2.4910   -1.6080   -3.8112 C.3       1 <0>        -0.1682
      2 C2          1.7409   -0.5348   -3.0198 C.3       1 <0>         0.1082
      3 N1          0.4296   -1.0506   -2.6189 N.am      1 <0>        -0.6052
      4 C3          0.2957   -1.8338   -1.3881 C.3       1 <0>         0.0959
      5 C4          0.2625   -0.8901   -0.1842 C.3       1 <0>        -0.1789
      6 C5         -0.6534   -0.8047   -3.3824 C.2       1 <0>         0.5551
      7 O1         -0.5330   -0.2052   -4.4329 O.2       1 <0>        -0.5297
      8 C6         -1.9880   -1.2642   -2.9423 C.ar      1 <0>        -0.1172
      9 C7         -2.3958   -1.0698   -1.6217 C.ar      1 <0>        -0.0965
     10 C8         -3.6425   -1.5005   -1.2175 C.ar      1 <0>        -0.1206
     11 C9         -4.4878   -2.1244   -2.1179 C.ar      1 <0>        -0.0559
     12 C10        -4.0894   -2.3205   -3.4283 C.ar      1 <0>        -0.0954
     13 C11        -2.8477   -1.8890   -3.8470 C.ar      1 <0>        -0.0706
     14 C12        -5.8481   -2.5927   -1.6693 C.3       1 <0>         0.1758
     15 H1         -6.1289   -2.0701   -0.7549 H         1 <0>         0.0736
     16 C13        -5.8075   -4.0763   -1.4077 C.ar      1 <0>        -0.0583
     17 C14        -5.6865   -4.9609   -2.4637 C.ar      1 <0>        -0.1407
     18 C15        -5.6490   -6.3224   -2.2271 C.ar      1 <0>        -0.0770
     19 C16        -5.7329   -6.8027   -0.9343 C.ar      1 <0>        -0.1994
     20 C17        -5.8544   -5.9174    0.1266 C.ar      1 <0>         0.1361
     21 C18        -5.8856   -4.5511   -0.1130 C.ar      1 <0>        -0.1429
     22 O2         -5.9370   -6.3873    1.3991 O.3       1 <0>        -0.3155
     23 C19        -5.8925   -7.8052    1.5713 C.3       1 <0>         0.0249
     24 N2         -6.8351   -2.3074   -2.7192 N.3       1 <0>        -0.5260
     25 C20        -8.0333   -3.1429   -2.5568 C.3       1 <0>         0.0231
     26 C21        -9.0086   -2.8586   -3.7012 C.3       1 <0>         0.0323
     27 H2         -8.5345   -3.1030   -4.6518 H         1 <0>         0.1445
     28 N3         -9.3769   -1.4368   -3.6891 N.4       1 <0>        -0.3828
     29 C22        -8.1734   -0.6159   -3.8768 C.3       1 <0>         0.0016
     30 C23        -7.1911   -0.8815   -2.7339 C.3       1 <0>         0.0643
     31 H3         -7.6558   -0.6128   -1.7852 H         1 <0>         0.0669
     32 C24        -5.9286   -0.0422   -2.9404 C.3       1 <0>        -0.1606
     33 C25       -10.3271   -1.1681   -4.7766 C.3       1 <0>         0.0243
     34 C26       -10.7993    0.2604   -4.6897 C.2       1 <0>        -0.2350
     35 C27       -10.6767    1.0549   -5.7241 C.2       1 <0>        -0.1053
     36 C28       -10.2657   -3.7125   -3.5238 C.3       1 <0>        -0.1832
     37 H4          2.6235   -2.4927   -3.1884 H         1 <0>         0.0561
     38 H5          1.9172   -1.8718   -4.6997 H         1 <0>         0.0586
     39 H6          3.4666   -1.2242   -4.1095 H         1 <0>         0.0703
     40 H7          2.3147   -0.2710   -2.1314 H         1 <0>         0.0793
     41 H8          1.6084    0.3499   -3.6427 H         1 <0>         0.0876
     42 H9         -0.6286   -2.4105   -1.4232 H         1 <0>         0.0867
     43 H10         1.1438   -2.5120   -1.2949 H         1 <0>         0.0813
     44 H11         1.2763   -0.5666    0.0519 H         1 <0>         0.0652
     45 H12        -0.3505   -0.0205   -0.4210 H         1 <0>         0.0640
     46 H13        -0.1618   -1.4110    0.6741 H         1 <0>         0.0725
     47 H14        -1.7367   -0.5837   -0.9177 H         1 <0>         0.1429
     48 H15        -3.9594   -1.3508   -0.1959 H         1 <0>         0.1276
     49 H16        -4.7538   -2.8085   -4.1262 H         1 <0>         0.1342
     50 H17        -2.5399   -2.0384   -4.8714 H         1 <0>         0.1309
     51 H18        -5.6215   -4.5875   -3.4750 H         1 <0>         0.1305
     52 H19        -5.5545   -7.0113   -3.0535 H         1 <0>         0.1294
     53 H20        -5.7043   -7.8665   -0.7501 H         1 <0>         0.1321
     54 H21        -5.9754   -3.8596    0.7117 H         1 <0>         0.1302
     55 H22        -4.9515   -8.1896    1.1776 H         1 <0>         0.0594
     56 H23        -5.9676   -8.0450    2.6319 H         1 <0>         0.1059
     57 H24        -6.7243   -8.2626    1.0356 H         1 <0>         0.0581
     58 H25        -7.7483   -4.1948   -2.5747 H         1 <0>         0.1343
     59 H26        -8.5118   -2.9115   -1.6052 H         1 <0>         0.0619
     60 H27        -7.7036   -0.8717   -4.8265 H         1 <0>         0.1367
     61 H28        -8.4498    0.4385   -3.8807 H         1 <0>         0.1360
     62 H29        -5.3719   -0.4275   -3.7946 H         1 <0>         0.0844
     63 H30        -6.2082    0.9948   -3.1267 H         1 <0>         0.0700
     64 H31        -5.3065   -0.0959   -2.0470 H         1 <0>         0.0838
     65 H32        -9.8365   -1.3308   -5.7363 H         1 <0>         0.1301
     66 H33       -11.1813   -1.8392   -4.6869 H         1 <0>         0.1384
     67 H34       -11.2387    0.6292   -3.7746 H         1 <0>         0.1330
     68 H35       -10.2373    0.6861   -6.6391 H         1 <0>         0.1115
     69 H36       -11.0151    2.0786   -5.6617 H         1 <0>         0.1228
     70 H37       -10.7398   -3.4682   -2.5732 H         1 <0>         0.0809
     71 H38       -10.9604   -3.5101   -4.3390 H         1 <0>         0.0860
     72 H39        -9.9925   -4.7677   -3.5330 H         1 <0>         0.1076
     73 H40        -9.8052   -1.2080   -2.8046 H         1 <0>         0.4183
@<TRIPOS>BOND
     1    1    2 1
     2    1   37 1
     3    1   38 1
     4    1   39 1
     5    2    3 1
     6    2   40 1
     7    2   41 1
     8    3    4 1
     9    3    6 am
    10    4    5 1
    11    4   42 1
    12    4   43 1
    13    5   44 1
    14    5   45 1
    15    5   46 1
    16    6    7 2
    17    6    8 1
    18    8   13 ar
    19    8    9 ar
    20    9   10 ar
    21    9   47 1
    22   10   11 ar
    23   10   48 1
    24   11   12 ar
    25   11   14 1
    26   12   13 ar
    27   12   49 1
    28   13   50 1
    29   14   15 1
    30   14   16 1
    31   14   24 1
    32   16   21 ar
    33   16   17 ar
    34   17   18 ar
    35   17   51 1
    36   18   19 ar
    37   18   52 1
    38   19   20 ar
    39   19   53 1
    40   20   21 ar
    41   20   22 1
    42   21   54 1
    43   22   23 1
    44   23   55 1
    45   23   56 1
    46   23   57 1
    47   24   30 1
    48   24   25 1
    49   25   26 1
    50   25   58 1
    51   25   59 1
    52   26   27 1
    53   26   28 1
    54   26   36 1
    55   28   29 1
    56   28   33 1
    57   28   73 1
    58   29   30 1
    59   29   60 1
    60   29   61 1
    61   30   31 1
    62   30   32 1
    63   32   62 1
    64   32   63 1
    65   32   64 1
    66   33   34 1
    67   33   65 1
    68   33   66 1
    69   34   35 2
    70   34   67 1
    71   35   68 1
    72   35   69 1
    73   36   70 1
    74   36   71 1
    75   36   72 1
@<TRIPOS>MOLECULE
ZINC22066510
   73    75     0     0     0
SMALL
USER_CHARGES

@<TRIPOS>ATOM
      1 C1          2.0818   -4.4766    3.2676 C.3       1 <0>        -0.1689
      2 C2          1.7388   -3.0977    2.7003 C.3       1 <0>         0.1074
      3 N1          2.1743   -3.0222    1.3035 N.am      1 <0>        -0.6022
      4 C3          1.3002   -3.5147    0.2360 C.3       1 <0>         0.0926
      5 C4          0.2008   -2.4865   -0.0380 C.3       1 <0>        -0.1804
      6 C5          3.3792   -2.4997    1.0006 C.2       1 <0>         0.5507
      7 O1          4.1293   -2.1464    1.8895 O.2       1 <0>        -0.5215
      8 C6          3.7885   -2.3561   -0.4128 C.ar      1 <0>        -0.0969
      9 C7          2.8877   -1.8598   -1.3564 C.ar      1 <0>        -0.0885
     10 C8          3.2762   -1.7279   -2.6736 C.ar      1 <0>        -0.0986
     11 C9          4.5553   -2.0868   -3.0600 C.ar      1 <0>        -0.0985
     12 C10         5.4529   -2.5799   -2.1298 C.ar      1 <0>        -0.1217
     13 C11         5.0792   -2.7110   -0.8082 C.ar      1 <0>        -0.0542
     14 C12         4.9725   -1.9405   -4.5007 C.3       1 <0>         0.1312
     15 H1          4.2422   -1.3285   -5.0301 H         1 <0>         0.1530
     16 C13         5.0470   -3.3018   -5.1429 C.ar      1 <0>        -0.0894
     17 C14         6.1536   -4.1045   -4.9342 C.ar      1 <0>        -0.1656
     18 C15         6.2249   -5.3537   -5.5218 C.ar      1 <0>        -0.0582
     19 C16         5.1905   -5.8032   -6.3198 C.ar      1 <0>        -0.1869
     20 C17         4.0794   -5.0000   -6.5308 C.ar      1 <0>         0.1493
     21 C18         4.0075   -3.7489   -5.9349 C.ar      1 <0>        -0.1219
     22 O2          3.0606   -5.4398   -7.3152 O.3       1 <0>        -0.3093
     23 C19         3.2001   -6.7401   -7.8913 C.3       1 <0>         0.0219
     24 N2          6.2908   -1.2956   -4.5657 N.4       1 <0>        -0.3815
     25 C20         6.7880   -1.3363   -5.9472 C.3       1 <0>        -0.0063
     26 C21         8.1695   -0.6815   -6.0119 C.3       1 <0>         0.0612
     27 H2          8.8619   -1.2291   -5.3726 H         1 <0>         0.0642
     28 N3          8.0710    0.7101   -5.5492 N.3       1 <0>        -0.5312
     29 C22         7.5510    0.7680   -4.1758 C.3       1 <0>         0.0332
     30 C23         6.1745    0.1011   -4.1263 C.3       1 <0>         0.0365
     31 H3          5.4890    0.6335   -4.7856 H         1 <0>         0.1458
     32 C24         5.6392    0.1421   -2.6935 C.3       1 <0>        -0.1984
     33 C25         9.3686    1.3914   -5.6500 C.3       1 <0>         0.0780
     34 C26         9.1817    2.8666   -5.4050 C.2       1 <0>        -0.1649
     35 C27         9.8791    3.4695   -4.4743 C.2       1 <0>        -0.1715
     36 C28         8.6788   -0.7055   -7.4544 C.3       1 <0>        -0.1519
     37 H4          3.1591   -4.6339    3.2139 H         1 <0>         0.0588
     38 H5          1.7578   -4.5328    4.3068 H         1 <0>         0.0724
     39 H6          1.5730   -5.2455    2.6863 H         1 <0>         0.0568
     40 H7          0.6616   -2.9404    2.7540 H         1 <0>         0.0820
     41 H8          2.2477   -2.3288    3.2816 H         1 <0>         0.0896
     42 H9          1.8857   -3.6709   -0.6700 H         1 <0>         0.0853
     43 H10         0.8475   -4.4576    0.5431 H         1 <0>         0.0843
     44 H11        -0.3007   -2.7316   -0.9742 H         1 <0>         0.0751
     45 H12        -0.5230   -2.5026    0.7769 H         1 <0>         0.0685
     46 H13         0.6428   -1.4929   -0.1118 H         1 <0>         0.0633
     47 H14         1.8888   -1.5799   -1.0561 H         1 <0>         0.1541
     48 H15         2.5802   -1.3439   -3.4047 H         1 <0>         0.1427
     49 H16         6.4498   -2.8586   -2.4380 H         1 <0>         0.1243
     50 H17         5.7823   -3.0914   -0.0821 H         1 <0>         0.1428
     51 H18         6.9635   -3.7546   -4.3113 H         1 <0>         0.1167
     52 H19         7.0902   -5.9788   -5.3573 H         1 <0>         0.1385
     53 H20         5.2470   -6.7790   -6.7793 H         1 <0>         0.1409
     54 H21         3.1414   -3.1236   -6.0937 H         1 <0>         0.1422
     55 H22         4.0878   -6.7641   -8.5234 H         1 <0>         0.0622
     56 H23         3.2992   -7.4804   -7.0975 H         1 <0>         0.0621
     57 H24         2.3198   -6.9675   -8.4925 H         1 <0>         0.1108
     58 H25         6.8614   -2.3728   -6.2765 H         1 <0>         0.1408
     59 H26         6.0993   -0.7966   -6.5972 H         1 <0>         0.1402
     60 H27         8.2331    0.2441   -3.5062 H         1 <0>         0.0587
     61 H28         7.4623    1.8086   -3.8640 H         1 <0>         0.1262
     62 H29         6.1642   -0.5969   -2.0883 H         1 <0>         0.0840
     63 H30         5.7995    1.1354   -2.2741 H         1 <0>         0.1007
     64 H31         4.5727   -0.0829   -2.6975 H         1 <0>         0.0994
     65 H32        10.0521    0.9832   -4.9055 H         1 <0>         0.0490
     66 H33         9.7830    1.2382   -6.6464 H         1 <0>         0.1013
     67 H34         8.4728    3.4267   -5.9967 H         1 <0>         0.1193
     68 H35         9.7451    4.5267   -4.2988 H         1 <0>         0.1067
     69 H36        10.5880    2.9094   -3.8826 H         1 <0>         0.0969
     70 H37         7.9867   -0.1570   -8.0933 H         1 <0>         0.0789
     71 H38         9.6629   -0.2390   -7.5001 H         1 <0>         0.0796
     72 H39         8.7498   -1.7377   -7.7975 H         1 <0>         0.0752
     73 H40         6.9346   -1.7852   -3.9624 H         1 <0>         0.4129
@<TRIPOS>BOND
     1    1    2 1
     2    1   37 1
     3    1   38 1
     4    1   39 1
     5    2    3 1
     6    2   40 1
     7    2   41 1
     8    3    4 1
     9    3    6 am
    10    4    5 1
    11    4   42 1
    12    4   43 1
    13    5   44 1
    14    5   45 1
    15    5   46 1
    16    6    7 2
    17    6    8 1
    18    8   13 ar
    19    8    9 ar
    20    9   10 ar
    21    9   47 1
    22   10   11 ar
    23   10   48 1
    24   11   12 ar
    25   11   14 1
    26   12   13 ar
    27   12   49 1
    28   13   50 1
    29   14   15 1
    30   14   16 1
    31   14   24 1
    32   16   21 ar
    33   16   17 ar
    34   17   18 ar
    35   17   51 1
    36   18   19 ar
    37   18   52 1
    38   19   20 ar
    39   19   53 1
    40   20   21 ar
    41   20   22 1
    42   21   54 1
    43   22   23 1
    44   23   55 1
    45   23   56 1
    46   23   57 1
    47   24   30 1
    48   24   25 1
    49   24   73 1
    50   25   26 1
    51   25   58 1
    52   25   59 1
    53   26   27 1
    54   26   28 1
    55   26   36 1
    56   28   29 1
    57   28   33 1
    58   29   30 1
    59   29   60 1
    60   29   61 1
    61   30   31 1
    62   30   32 1
    63   32   62 1
    64   32   63 1
    65   32   64 1
    66   33   34 1
    67   33   65 1
    68   33   66 1
    69   34   35 2
    70   34   67 1
    71   35   68 1
    72   35   69 1
    73   36   70 1
    74   36   71 1
    75   36   72 1
@<TRIPOS>MOLECULE
ZINC22066510
   72    74     0     0     0
SMALL
USER_CHARGES

@<TRIPOS>ATOM
      1 C1          2.1295   -1.3205    3.8951 C.3       1 <0>        -0.1676
      2 C2          1.6862   -0.2597    2.8856 C.3       1 <0>         0.1092
      3 N1          1.9679   -0.7304    1.5272 N.am      1 <0>        -0.6081
      4 C3          0.9979   -1.5784    0.8299 C.3       1 <0>         0.0967
      5 C4         -0.1181   -0.7066    0.2506 C.3       1 <0>        -0.1783
      6 C5          3.1194   -0.3832    0.9190 C.2       1 <0>         0.5598
      7 O1          3.9442    0.2827    1.5138 O.2       1 <0>        -0.5325
      8 C6          3.3794   -0.8123   -0.4717 C.ar      1 <0>        -0.1298
      9 C7          2.3801   -0.6969   -1.4393 C.ar      1 <0>        -0.1006
     10 C8          2.6294   -1.0987   -2.7353 C.ar      1 <0>        -0.1242
     11 C9          3.8665   -1.6156   -3.0767 C.ar      1 <0>        -0.0371
     12 C10         4.8613   -1.7331   -2.1223 C.ar      1 <0>        -0.0925
     13 C11         4.6271   -1.3292   -0.8241 C.ar      1 <0>        -0.0713
     14 C12         4.1316   -2.0530   -4.4943 C.3       1 <0>         0.1647
     15 H1          3.4074   -1.5841   -5.1606 H         1 <0>         0.0639
     16 C13         4.0051   -3.5516   -4.5896 C.ar      1 <0>        -0.0412
     17 C14         4.9574   -4.3641   -4.0020 C.ar      1 <0>        -0.1310
     18 C15         4.8442   -5.7392   -4.0876 C.ar      1 <0>        -0.0815
     19 C16         3.7789   -6.3052   -4.7612 C.ar      1 <0>        -0.2053
     20 C17         2.8223   -5.4925   -5.3515 C.ar      1 <0>         0.1287
     21 C18         2.9349   -4.1126   -5.2589 C.ar      1 <0>        -0.1432
     22 O2          1.7735   -6.0468   -6.0145 O.3       1 <0>        -0.3178
     23 C19         1.7188   -7.4739   -6.0646 C.3       1 <0>         0.0273
     24 N2          5.4891   -1.6503   -4.8853 N.3       1 <0>        -0.5241
     25 C20         5.9518   -2.4191   -6.0491 C.3       1 <0>         0.0580
     26 C21         7.3951   -2.0276   -6.3748 C.3       1 <0>         0.0852
     27 H2          8.0376   -2.2704   -5.5284 H         1 <0>         0.0496
     28 N3          7.4600   -0.5838   -6.6413 N.3       1 <0>        -0.5331
     29 C22         6.9973    0.1850   -5.4774 C.3       1 <0>         0.0660
     30 C23         5.5540   -0.2066   -5.1518 C.3       1 <0>         0.0883
     31 H3          4.9116    0.0362   -5.9982 H         1 <0>         0.0511
     32 C24         5.0830    0.5623   -3.9158 C.3       1 <0>        -0.1581
     33 C25         8.8176   -0.1812   -7.0323 C.3       1 <0>         0.0755
     34 C26         8.7957    1.2405   -7.5316 C.2       1 <0>        -0.1451
     35 C27         9.5853    2.1362   -6.9927 C.2       1 <0>        -0.1908
     36 C28         7.8663   -2.7969   -7.6105 C.3       1 <0>        -0.1491
     37 H4          3.1992   -1.5000    3.7873 H         1 <0>         0.0589
     38 H5          1.9199   -0.9703    4.9058 H         1 <0>         0.0674
     39 H6          1.5853   -2.2468    3.7114 H         1 <0>         0.0553
     40 H7          0.6165   -0.0801    2.9934 H         1 <0>         0.0766
     41 H8          2.2304    0.6667    3.0694 H         1 <0>         0.0863
     42 H9          1.4975   -2.1133    0.0222 H         1 <0>         0.0897
     43 H10         0.5717   -2.2955    1.5315 H         1 <0>         0.0782
     44 H11        -0.6418   -1.2583   -0.5301 H         1 <0>         0.0719
     45 H12        -0.8198   -0.4417    1.0415 H         1 <0>         0.0618
     46 H13         0.3124    0.2011   -0.1723 H         1 <0>         0.0654
     47 H14         1.4137   -0.2943   -1.1739 H         1 <0>         0.1393
     48 H15         1.8570   -1.0100   -3.4850 H         1 <0>         0.1257
     49 H16         5.8248   -2.1377   -2.3952 H         1 <0>         0.1358
     50 H17         5.4060   -1.4169   -0.0812 H         1 <0>         0.1275
     51 H18         5.7913   -3.9236   -3.4757 H         1 <0>         0.1302
     52 H19         5.5893   -6.3716   -3.6279 H         1 <0>         0.1256
     53 H20         3.6913   -7.3796   -4.8285 H         1 <0>         0.1272
     54 H21         2.1889   -3.4777   -5.7135 H         1 <0>         0.1283
     55 H22         1.6675   -7.8713   -5.0509 H         1 <0>         0.0558
     56 H23         0.8348   -7.7843   -6.6217 H         1 <0>         0.1010
     57 H24         2.6123   -7.8546   -6.5593 H         1 <0>         0.0559
     58 H25         5.9063   -3.4844   -5.8227 H         1 <0>         0.0911
     59 H26         5.3139   -2.2015   -6.9057 H         1 <0>         0.0435
     60 H27         7.6353   -0.0327   -4.6209 H         1 <0>         0.0424
     61 H28         7.0429    1.2502   -5.7038 H         1 <0>         0.0816
     62 H29         5.6128    0.1962   -3.0364 H         1 <0>         0.0715
     63 H30         5.2892    1.6244   -4.0482 H         1 <0>         0.0575
     64 H31         4.0114    0.4141   -3.7822 H         1 <0>         0.0661
     65 H32         9.4805   -0.2533   -6.1700 H         1 <0>         0.0380
     66 H33         9.1779   -0.8386   -7.8235 H         1 <0>         0.0892
     67 H34         8.1290    1.5210   -8.3336 H         1 <0>         0.1132
     68 H35        10.2520    1.8558   -6.1907 H         1 <0>         0.0940
     69 H36         9.5696    3.1551   -7.3506 H         1 <0>         0.0994
     70 H37         7.2242   -2.5533   -8.4569 H         1 <0>         0.0644
     71 H38         8.8942   -2.5178   -7.8421 H         1 <0>         0.0605
     72 H39         7.8163   -3.8676   -7.4128 H         1 <0>         0.0621
@<TRIPOS>BOND
     1    1    2 1
     2    1   37 1
     3    1   38 1
     4    1   39 1
     5    2    3 1
     6    2   40 1
     7    2   41 1
     8    3    4 1
     9    3    6 am
    10    4    5 1
    11    4   42 1
    12    4   43 1
    13    5   44 1
    14    5   45 1
    15    5   46 1
    16    6    7 2
    17    6    8 1
    18    8   13 ar
    19    8    9 ar
    20    9   10 ar
    21    9   47 1
    22   10   11 ar
    23   10   48 1
    24   11   12 ar
    25   11   14 1
    26   12   13 ar
    27   12   49 1
    28   13   50 1
    29   14   15 1
    30   14   16 1
    31   14   24 1
    32   16   21 ar
    33   16   17 ar
    34   17   18 ar
    35   17   51 1
    36   18   19 ar
    37   18   52 1
    38   19   20 ar
    39   19   53 1
    40   20   21 ar
    41   20   22 1
    42   21   54 1
    43   22   23 1
    44   23   55 1
    45   23   56 1
    46   23   57 1
    47   24   30 1
    48   24   25 1
    49   25   26 1
    50   25   58 1
    51   25   59 1
    52   26   27 1
    53   26   28 1
    54   26   36 1
    55   28   29 1
    56   28   33 1
    57   29   30 1
    58   29   60 1
    59   29   61 1
    60   30   31 1
    61   30   32 1
    62   32   62 1
    63   32   63 1
    64   32   64 1
    65   33   34 1
    66   33   65 1
    67   33   66 1
    68   34   35 2
    69   34   67 1
    70   35   68 1
    71   35   69 1
    72   36   70 1
    73   36   71 1
    74   36   72 1
@<TRIPOS>MOLECULE
ZINC53147203
   74    75     0     0     0
SMALL
USER_CHARGES

@<TRIPOS>ATOM
      1 C1         -0.0225    1.8097    0.0120 C.3       1 <0>        -0.1211
      2 S1          0.0021   -0.0041    0.0020 S.3       1 <0>        -0.2721
      3 C2         -1.7518   -0.4668    0.0163 C.3       1 <0>        -0.0758
      4 C3         -1.8771   -1.9917    0.0093 C.3       1 <0>        -0.0932
      5 C4         -3.3564   -2.3820    0.0213 C.3       1 <0>         0.0814
      6 H1         -3.8661   -1.9002   -0.8131 H         1 <0>         0.0862
      7 C5         -3.4823   -3.8780   -0.1094 C.2       1 <0>         0.4933
      8 O1         -3.8614   -4.5431    0.8396 O.co2     1 <0>        -0.6829
      9 O2         -3.2050   -4.4233   -1.1640 O.co2     1 <0>        -0.6914
     10 N1         -3.9655   -1.9489    1.2813 N.am      1 <0>        -0.6867
     11 C6         -5.2910   -1.7131    1.3430 C.2       1 <0>         0.5116
     12 O3         -5.9796   -1.8594    0.3554 O.2       1 <0>        -0.5408
     13 C7         -5.9176   -1.2675    2.6392 C.3       1 <0>         0.1412
     14 H2         -5.4677   -0.3265    2.9556 H         1 <0>         0.1113
     15 C8         -5.6812   -2.3321    3.7123 C.3       1 <0>        -0.0910
     16 C9         -6.1992   -1.8339    5.0369 C.ar      1 <0>        -0.0566
     17 C10        -5.3674   -1.1219    5.8808 C.ar      1 <0>        -0.1047
     18 C11        -5.8426   -0.6649    7.0957 C.ar      1 <0>        -0.1131
     19 C12        -7.1497   -0.9194    7.4667 C.ar      1 <0>        -0.1244
     20 C13        -7.9817   -1.6306    6.6224 C.ar      1 <0>        -0.1147
     21 C14        -7.5078   -2.0839    5.4055 C.ar      1 <0>        -0.1103
     22 N2         -7.3576   -1.0799    2.4463 N.am      1 <0>        -0.7022
     23 C15        -8.0409   -0.2388    3.2477 C.2       1 <0>         0.5105
     24 O4         -7.4636    0.3627    4.1285 O.2       1 <0>        -0.5219
     25 C16        -9.5222   -0.0457    3.0493 C.3       1 <0>         0.1012
     26 N3        -10.0269    0.9100    4.0383 N.am      1 <0>        -0.7065
     27 C17       -11.3339    1.2390    4.0517 C.2       1 <0>         0.5121
     28 O5        -12.0921    0.7438    3.2450 O.2       1 <0>        -0.5379
     29 C18       -11.8530    2.2221    5.0690 C.3       1 <0>         0.0991
     30 N4        -13.2931    2.4098    4.8762 N.am      1 <0>        -0.7135
     31 C19       -13.9763    3.2509    5.6775 C.2       1 <0>         0.4823
     32 O6        -13.3990    3.8524    6.5583 O.2       1 <0>        -0.5427
     33 C20       -15.4577    3.4439    5.4791 C.3       1 <0>         0.0845
     34 H3        -15.9216    2.4847    5.2494 H         1 <0>         0.1071
     35 C21       -15.6949    4.4155    4.3212 C.3       1 <0>        -0.0684
     36 C22       -17.1726    4.5139    4.0428 C.ar      1 <0>        -0.0781
     37 C23       -17.7642    3.6487    3.1411 C.ar      1 <0>        -0.1010
     38 C24       -19.1186    3.7372    2.8837 C.ar      1 <0>        -0.1459
     39 C25       -19.8853    4.6950    3.5313 C.ar      1 <0>         0.0996
     40 C26       -19.2895    5.5617    4.4360 C.ar      1 <0>        -0.1467
     41 C27       -17.9356    5.4657    4.6937 C.ar      1 <0>        -0.0735
     42 O7        -21.2178    4.7844    3.2795 O.3       1 <0>        -0.5022
     43 N5        -16.0489    3.9920    6.7072 N.3       1 <0>        -0.8134
     44 H4          1.0001    2.1870    0.0043 H         1 <0>         0.0982
     45 H5         -0.5497    2.1708   -0.8711 H         1 <0>         0.0736
     46 H6         -0.5327    2.1613    0.9088 H         1 <0>         0.0731
     47 H7         -2.2257   -0.0675    0.9130 H         1 <0>         0.0773
     48 H8         -2.2427   -0.0579   -0.8669 H         1 <0>         0.0796
     49 H9         -1.4032   -2.3910   -0.8874 H         1 <0>         0.0924
     50 H10        -1.3862   -2.4006    0.8924 H         1 <0>         0.0733
     51 H11        -3.4147   -1.8318    2.0712 H         1 <0>         0.3931
     52 H12        -6.2058   -3.2473    3.4380 H         1 <0>         0.0871
     53 H13        -4.6134   -2.5358    3.7932 H         1 <0>         0.0920
     54 H14        -4.3462   -0.9231    5.5910 H         1 <0>         0.1165
     55 H15        -5.1925   -0.1092    7.7554 H         1 <0>         0.1148
     56 H16        -7.5207   -0.5629    8.4162 H         1 <0>         0.1128
     57 H17        -9.0029   -1.8298    6.9124 H         1 <0>         0.1114
     58 H18        -8.1590   -2.6364    4.7443 H         1 <0>         0.1104
     59 H19        -7.8194   -1.5610    1.7419 H         1 <0>         0.4134
     60 H20        -9.7075    0.3377    2.0460 H         1 <0>         0.1019
     61 H21       -10.0329   -1.0007    3.1733 H         1 <0>         0.1012
     62 H22        -9.4205    1.3060    4.6835 H         1 <0>         0.4159
     63 H23       -11.6677    1.8386    6.0724 H         1 <0>         0.1016
     64 H24       -11.3423    3.1770    4.9450 H         1 <0>         0.1017
     65 H25       -13.7548    1.9287    4.1717 H         1 <0>         0.4137
     66 H26       -15.3090    5.3994    4.5877 H         1 <0>         0.0807
     67 H27       -15.1808    4.0524    3.4313 H         1 <0>         0.0840
     68 H28       -17.1669    2.9032    2.6372 H         1 <0>         0.1260
     69 H29       -19.5800    3.0616    2.1788 H         1 <0>         0.1266
     70 H30       -19.8842    6.3083    4.9413 H         1 <0>         0.1259
     71 H31       -17.4721    6.1373    5.4012 H         1 <0>         0.1259
     72 H32       -21.7653    4.2387    3.8604 H         1 <0>         0.3895
     73 H33       -15.9622    3.3401    7.4724 H         1 <0>         0.3470
     74 H34       -15.6352    4.8819    6.9417 H         1 <0>         0.3503
@<TRIPOS>BOND
     1    1    2 1
     2    1   44 1
     3    1   45 1
     4    1   46 1
     5    2    3 1
     6    3    4 1
     7    3   47 1
     8    3   48 1
     9    4    5 1
    10    4   49 1
    11    4   50 1
    12    5    6 1
    13    5    7 1
    14    5   10 1
    15    7    8 2
    16    7    9 1
    17   10   11 am
    18   10   51 1
    19   11   12 2
    20   11   13 1
    21   13   14 1
    22   13   15 1
    23   13   22 1
    24   15   16 1
    25   15   52 1
    26   15   53 1
    27   16   21 ar
    28   16   17 ar
    29   17   18 ar
    30   17   54 1
    31   18   19 ar
    32   18   55 1
    33   19   20 ar
    34   19   56 1
    35   20   21 ar
    36   20   57 1
    37   21   58 1
    38   22   23 am
    39   22   59 1
    40   23   24 2
    41   23   25 1
    42   25   26 1
    43   25   60 1
    44   25   61 1
    45   26   27 am
    46   26   62 1
    47   27   28 2
    48   27   29 1
    49   29   30 1
    50   29   63 1
    51   29   64 1
    52   30   31 am
    53   30   65 1
    54   31   32 2
    55   31   33 1
    56   33   34 1
    57   33   35 1
    58   33   43 1
    59   35   36 1
    60   35   66 1
    61   35   67 1
    62   36   41 ar
    63   36   37 ar
    64   37   38 ar
    65   37   68 1
    66   38   39 ar
    67   38   69 1
    68   39   40 ar
    69   39   42 1
    70   40   41 ar
    71   40   70 1
    72   41   71 1
    73   42   72 1
    74   43   73 1
    75   43   74 1
@<TRIPOS>MOLECULE
ZINC02509756
   42    43     0     0     0
SMALL
USER_CHARGES

@<TRIPOS>ATOM
      1 C1         -0.0178    1.4648    0.0101 C.3       1 <0>        -0.0567
      2 N1          0.0021   -0.0041    0.0020 N.4       1 <0>        -0.3878
      3 C2          0.7126   -0.4907    1.1921 C.3       1 <0>        -0.0474
      4 C3         -1.3761   -0.5125    0.0124 C.3       1 <0>        -0.0103
      5 C4         -2.0780   -0.1101   -1.2861 C.3       1 <0>        -0.0956
      6 H1         -2.0144    0.9705   -1.4137 H         1 <0>         0.1055
      7 C5         -1.3995   -0.8041   -2.4688 C.3       1 <0>        -0.1252
      8 C6         -2.1014   -0.4017   -3.7674 C.3       1 <0>        -0.1201
      9 C7         -3.5711   -0.8221   -3.7042 C.3       1 <0>        -0.1216
     10 C8         -4.2497   -0.1281   -2.5214 C.3       1 <0>        -0.1416
     11 C9         -3.5477   -0.5306   -1.2229 C.3       1 <0>         0.1939
     12 C10        -4.2161    0.1530   -0.0579 C.ar      1 <0>        -0.1071
     13 C11        -3.7786    1.3977    0.3564 C.ar      1 <0>        -0.1410
     14 C12        -4.3896    2.0274    1.4247 C.ar      1 <0>        -0.0946
     15 C13        -5.4390    1.4140    2.0816 C.ar      1 <0>        -0.1394
     16 C14        -5.8796    0.1655    1.6680 C.ar      1 <0>         0.1244
     17 C15        -5.2687   -0.4618    0.5916 C.ar      1 <0>        -0.1358
     18 O1         -6.9117   -0.4400    2.3124 O.3       1 <0>        -0.4972
     19 O2         -3.6311   -1.9473   -1.0556 O.3       1 <0>        -0.5505
     20 H2          1.0047    1.8421    0.0024 H         1 <0>         0.1271
     21 H3         -0.5450    1.8259   -0.8730 H         1 <0>         0.1221
     22 H4         -0.5280    1.8163    0.9069 H         1 <0>         0.1238
     23 H5          0.2024   -0.1392    2.0889 H         1 <0>         0.1220
     24 H6          0.7273   -1.5806    1.1861 H         1 <0>         0.1241
     25 H7          1.7352   -0.1134    1.1844 H         1 <0>         0.1253
     26 H8         -1.3618   -1.5992    0.0961 H         1 <0>         0.1406
     27 H9         -1.9129   -0.0898    0.8617 H         1 <0>         0.1329
     28 H10        -0.3524   -0.5046   -2.5139 H         1 <0>         0.0578
     29 H11        -1.4631   -1.8847   -2.3413 H         1 <0>         0.0907
     30 H12        -2.0378    0.6790   -3.8950 H         1 <0>         0.0660
     31 H13        -1.6180   -0.8961   -4.6100 H         1 <0>         0.0763
     32 H14        -4.0712   -0.5354   -4.6293 H         1 <0>         0.0734
     33 H15        -3.6347   -1.9028   -3.5766 H         1 <0>         0.0754
     34 H16        -4.1861    0.9525   -2.6490 H         1 <0>         0.0781
     35 H17        -5.2967   -0.4277   -2.4764 H         1 <0>         0.0777
     36 H18        -2.9581    1.8786   -0.1553 H         1 <0>         0.1212
     37 H19        -4.0462    2.9995    1.7463 H         1 <0>         0.1326
     38 H20        -5.9155    1.9060    2.9166 H         1 <0>         0.1356
     39 H21        -5.6131   -1.4318    0.2646 H         1 <0>         0.1311
     40 H22        -7.7815   -0.2304    1.9457 H         1 <0>         0.4003
     41 H23        -4.5359   -2.2851   -1.0074 H         1 <0>         0.3898
     42 H24         0.4743   -0.3295   -0.8281 H         1 <0>         0.4241
@<TRIPOS>BOND
     1    1    2 1
     2    1   20 1
     3    1   21 1
     4    1   22 1
     5    2    3 1
     6    2    4 1
     7    2   42 1
     8    3   23 1
     9    3   24 1
    10    3   25 1
    11    4    5 1
    12    4   26 1
    13    4   27 1
    14    5    6 1
    15    5   11 1
    16    5    7 1
    17    7    8 1
    18    7   28 1
    19    7   29 1
    20    8    9 1
    21    8   30 1
    22    8   31 1
    23    9   10 1
    24    9   32 1
    25    9   33 1
    26   10   11 1
    27   10   34 1
    28   10   35 1
    29   11   12 1
    30   11   19 1
    31   12   17 ar
    32   12   13 ar
    33   13   14 ar
    34   13   36 1
    35   14   15 ar
    36   14   37 1
    37   15   16 ar
    38   15   38 1
    39   16   17 ar
    40   16   18 1
    41   17   39 1
    42   18   40 1
    43   19   41 1
@<TRIPOS>MOLECULE
ZINC06092289
   51    56     0     0     0
SMALL
USER_CHARGES

@<TRIPOS>ATOM
      1 C1         -0.2585    1.2511    0.4629 C.ar      1 <0>        -0.1146
      2 C2          0.8922    2.0166    0.5631 C.ar      1 <0>        -0.0973
      3 C3          2.1752    1.4744    0.5394 C.ar      1 <0>         0.1078
      4 C4          2.2764    0.0872    0.3866 C.ar      1 <0>         0.1041
      5 C5          1.1018   -0.6366    0.2365 C.ar      1 <0>        -0.1870
      6 C6         -0.1710   -0.1214    0.3127 C.ar      1 <0>        -0.0605
      7 C7         -1.3378   -1.0549    0.2905 C.3       1 <0>        -0.0920
      8 C8         -0.9433   -2.5076    0.0868 C.3       1 <0>         0.0158
      9 H1         -1.7119   -3.1291    0.5462 H         1 <0>         0.1432
     10 C9          0.3995   -2.8953    0.7028 C.3       1 <0>         0.1458
     11 C10         1.4837   -2.0864    0.0557 C.3       1 <0>        -0.0288
     12 C11         1.5189   -2.4095   -1.4393 C.3       1 <0>        -0.1234
     13 C12         0.1442   -2.0700   -2.0294 C.3       1 <0>        -0.0095
     14 N1         -0.9052   -2.8314   -1.3456 N.4       1 <0>        -0.3738
     15 C13        -2.2056   -2.5084   -1.9478 C.3       1 <0>         0.0181
     16 C14        -2.2317   -2.9971   -3.3975 C.3       1 <0>        -0.2107
     17 C15        -2.3688   -1.9414   -4.4964 C.3       1 <0>        -0.1677
     18 C16        -3.5476   -2.8590   -4.1658 C.3       1 <0>        -0.1476
     19 C17         2.8672   -2.0975    0.6815 C.3       1 <0>         0.1175
     20 H2          3.5015   -2.8537    0.2189 H         1 <0>         0.1411
     21 O1          3.3398   -0.7459    0.3730 O.3       1 <0>        -0.2764
     22 C18         2.8645   -2.2380    2.1909 C.3       1 <0>         0.0936
     23 H3          2.7929   -1.2415    2.6267 H         1 <0>         0.0599
     24 C19         1.7536   -3.0865    2.7640 C.3       1 <0>        -0.1480
     25 C20         0.4182   -2.6261    2.2040 C.3       1 <0>        -0.1400
     26 O2          4.1117   -2.8101    2.5897 O.3       1 <0>        -0.5586
     27 O3          0.6447   -4.2834    0.4679 O.3       1 <0>        -0.5423
     28 O4          3.2800    2.2584    0.6588 O.3       1 <0>        -0.4788
     29 H4         -1.2269    1.7270    0.5068 H         1 <0>         0.1398
     30 H5          0.7893    3.0869    0.6642 H         1 <0>         0.1438
     31 H6         -1.8735   -0.9675    1.2357 H         1 <0>         0.1264
     32 H7         -2.0077   -0.7581   -0.5166 H         1 <0>         0.1071
     33 H8          2.2877   -1.8107   -1.9277 H         1 <0>         0.1174
     34 H9          1.7299   -3.4693   -1.5825 H         1 <0>         0.1086
     35 H10        -0.0468   -1.0037   -1.9087 H         1 <0>         0.1310
     36 H11         0.1361   -2.3175   -3.0909 H         1 <0>         0.1378
     37 H12        -2.9990   -2.9996   -1.3845 H         1 <0>         0.1348
     38 H13        -2.3584   -1.4294   -1.9253 H         1 <0>         0.1322
     39 H14        -1.6134   -3.8689   -3.6109 H         1 <0>         0.1255
     40 H15        -2.4403   -0.8988   -4.1867 H         1 <0>         0.1058
     41 H16        -1.8404   -2.1186   -5.4332 H         1 <0>         0.1108
     42 H17        -3.7947   -3.6399   -4.8851 H         1 <0>         0.1128
     43 H18        -4.3946   -2.4201   -3.6386 H         1 <0>         0.1076
     44 H19         1.9359   -4.1306    2.5096 H         1 <0>         0.0942
     45 H20         1.7490   -2.9814    3.8489 H         1 <0>         0.0870
     46 H21         0.2532   -1.5649    2.3905 H         1 <0>         0.0939
     47 H22        -0.3592   -3.2126    2.6936 H         1 <0>         0.0869
     48 H23         4.1989   -2.9370    3.5444 H         1 <0>         0.3893
     49 H24        -0.0243   -4.8704    0.8461 H         1 <0>         0.3917
     50 H25         3.5742    2.3869    1.5710 H         1 <0>         0.3988
     51 H26        -0.7251   -3.8179   -1.4575 H         1 <0>         0.4271
@<TRIPOS>BOND
     1    1    6 ar
     2    1    2 ar
     3    1   29 1
     4    2    3 ar
     5    2   30 1
     6    3    4 ar
     7    3   28 1
     8    4   21 1
     9    4    5 ar
    10    5   11 1
    11    5    6 ar
    12    6    7 1
    13    7    8 1
    14    7   31 1
    15    7   32 1
    16    8    9 1
    17    8   14 1
    18    8   10 1
    19   10   25 1
    20   10   11 1
    21   10   27 1
    22   11   12 1
    23   11   19 1
    24   12   13 1
    25   12   33 1
    26   12   34 1
    27   13   14 1
    28   13   35 1
    29   13   36 1
    30   14   15 1
    31   14   51 1
    32   15   16 1
    33   15   37 1
    34   15   38 1
    35   16   18 1
    36   16   17 1
    37   16   39 1
    38   17   18 1
    39   17   40 1
    40   17   41 1
    41   18   42 1
    42   18   43 1
    43   19   20 1
    44   19   21 1
    45   19   22 1
    46   22   23 1
    47   22   24 1
    48   22   26 1
    49   24   25 1
    50   24   44 1
    51   24   45 1
    52   25   46 1
    53   25   47 1
    54   26   48 1
    55   27   49 1
    56   28   50 1
@<TRIPOS>MOLECULE
ZINC00602902
   57    60     0     0     0
SMALL
USER_CHARGES

@<TRIPOS>ATOM
      1 C1         -0.0095    1.5771   -0.0196 C.3       1 <0>        -0.1481
      2 C2          0.0095    0.0473   -0.0152 C.3       1 <0>        -0.0832
      3 C3          0.7133   -0.4499   -1.2515 C.ar      1 <0>        -0.1153
      4 C4         -0.0072   -0.6870   -2.4076 C.ar      1 <0>        -0.0776
      5 C5          0.6355   -1.1432   -3.5421 C.ar      1 <0>        -0.1458
      6 C6          2.0052   -1.3631   -3.5210 C.ar      1 <0>         0.1240
      7 C7          2.7259   -1.1241   -2.3599 C.ar      1 <0>        -0.2040
      8 C8          2.0793   -0.6629   -1.2295 C.ar      1 <0>        -0.0793
      9 O1          2.6397   -1.8123   -4.6356 O.3       1 <0>        -0.3191
     10 C9          4.0509   -2.0164   -4.5410 C.3       1 <0>         0.1055
     11 C10         4.5765   -2.5118   -5.8636 C.ar      1 <0>        -0.0209
     12 C11         3.7152   -2.6917   -6.9264 C.ar      1 <0>        -0.1047
     13 C12         4.1961   -3.1469   -8.1410 C.ar      1 <0>        -0.0751
     14 C13         5.5425   -3.4249   -8.2989 C.ar      1 <0>        -0.1234
     15 C14         6.4143   -3.2494   -7.2446 C.ar      1 <0>        -0.0807
     16 C15         5.9367   -2.7843   -6.0179 C.ar      1 <0>        -0.1483
     17 C16         6.8661   -2.5881   -4.8855 C.2       1 <0>         0.5705
     18 O2          6.4464   -2.1886   -3.8168 O.2       1 <0>        -0.5105
     19 N1          8.1790   -2.8522   -5.0377 N.am      1 <0>        -0.6729
     20 C17         9.0733   -2.5758   -3.9979 C.ar      1 <0>         0.1722
     21 C18         8.6686   -2.7491   -2.6700 C.ar      1 <0>        -0.0379
     22 C19         9.5172   -2.4879   -1.6403 C.ar      1 <0>        -0.1225
     23 C20        10.8228   -2.0367   -1.9023 C.ar      1 <0>         0.1587
     24 C21        11.2375   -1.8602   -3.2441 C.ar      1 <0>        -0.1104
     25 C22        10.3481   -2.1403   -4.2900 C.ar      1 <0>        -0.1023
     26 C23        12.5535   -1.4057   -3.5002 C.ar      1 <0>         0.3574
     27 C24        13.3759   -1.1546   -2.4135 C.ar      1 <0>        -0.2639
     28 C25        12.8941   -1.3525   -1.1266 C.ar      1 <0>         0.2627
     29 N2         11.6719   -1.7747   -0.9016 N.ar      1 <0>        -0.5048
     30 C26        13.8004   -1.0755    0.0451 C.3       1 <0>        -0.1500
     31 N3         13.0056   -1.2180   -4.7981 N.pl3     1 <0>        -0.8000
     32 H1          1.0135    1.9532   -0.0314 H         1 <0>         0.0537
     33 H2         -0.5371    1.9313   -0.9052 H         1 <0>         0.0562
     34 H3         -0.5186    1.9368    0.8746 H         1 <0>         0.0591
     35 H4          0.5371   -0.3069    0.8705 H         1 <0>         0.0703
     36 H5         -1.0135   -0.3288   -0.0034 H         1 <0>         0.0728
     37 H6         -1.0734   -0.5156   -2.4235 H         1 <0>         0.1304
     38 H7          0.0722   -1.3289   -4.4446 H         1 <0>         0.1313
     39 H8          3.7922   -1.2945   -2.3409 H         1 <0>         0.1287
     40 H9          2.6406   -0.4725   -0.3267 H         1 <0>         0.1228
     41 H10         4.5378   -1.0751   -4.2861 H         1 <0>         0.0876
     42 H11         4.2601   -2.7549   -3.7672 H         1 <0>         0.0879
     43 H12         2.6632   -2.4770   -6.8097 H         1 <0>         0.1462
     44 H13         3.5176   -3.2864   -8.9697 H         1 <0>         0.1376
     45 H14         5.9114   -3.7803   -9.2497 H         1 <0>         0.1368
     46 H15         7.4648   -3.4670   -7.3690 H         1 <0>         0.1275
     47 H16         8.5038   -3.2338   -5.8682 H         1 <0>         0.4202
     48 H17         7.6673   -3.0950   -2.4597 H         1 <0>         0.1690
     49 H18         9.1882   -2.6268   -0.6210 H         1 <0>         0.1608
     50 H19        10.6577   -2.0122   -5.3167 H         1 <0>         0.1496
     51 H20        14.3868   -0.8069   -2.5669 H         1 <0>         0.1782
     52 H21        13.6884   -0.0361    0.3534 H         1 <0>         0.1182
     53 H22        13.5334   -1.7312    0.8739 H         1 <0>         0.0992
     54 H23        14.8351   -1.2591   -0.2445 H         1 <0>         0.1169
     55 H24        12.4171   -1.3988   -5.5476 H         1 <0>         0.4198
     56 H25        13.9104   -0.9060   -4.9561 H         1 <0>         0.4275
     57 H26        11.3762   -1.8995    0.0138 H         1 <0>         0.4413
@<TRIPOS>BOND
     1    1    2 1
     2    1   32 1
     3    1   33 1
     4    1   34 1
     5    2    3 1
     6    2   35 1
     7    2   36 1
     8    3    8 ar
     9    3    4 ar
    10    4    5 ar
    11    4   37 1
    12    5    6 ar
    13    5   38 1
    14    6    7 ar
    15    6    9 1
    16    7    8 ar
    17    7   39 1
    18    8   40 1
    19    9   10 1
    20   10   11 1
    21   10   41 1
    22   10   42 1
    23   11   16 ar
    24   11   12 ar
    25   12   13 ar
    26   12   43 1
    27   13   14 ar
    28   13   44 1
    29   14   15 ar
    30   14   45 1
    31   15   16 ar
    32   15   46 1
    33   16   17 1
    34   17   18 2
    35   17   19 am
    36   19   20 1
    37   19   47 1
    38   20   25 ar
    39   20   21 ar
    40   21   22 ar
    41   21   48 1
    42   22   23 ar
    43   22   49 1
    44   23   29 ar
    45   23   24 ar
    46   24   25 ar
    47   24   26 ar
    48   25   50 1
    49   26   27 ar
    50   26   31 1
    51   27   28 ar
    52   27   51 1
    53   28   29 ar
    54   28   30 1
    55   29   57 1
    56   30   52 1
    57   30   53 1
    58   30   54 1
    59   31   55 1
    60   31   56 1
@<TRIPOS>MOLECULE
ZINC00001773
   49    54     0     0     0
SMALL
USER_CHARGES

@<TRIPOS>ATOM
      1 C1         -0.2443    1.2570    0.4660 C.ar      1 <0>        -0.1112
      2 C2          0.9083    2.0200    0.5623 C.ar      1 <0>        -0.0962
      3 C3          2.1900    1.4753    0.5348 C.ar      1 <0>         0.1149
      4 C4          2.2879    0.0876    0.3806 C.ar      1 <0>         0.0997
      5 C5          1.1121   -0.6326    0.2304 C.ar      1 <0>        -0.1886
      6 C6         -0.1602   -0.1156    0.3155 C.ar      1 <0>        -0.0596
      7 C7         -1.3282   -1.0478    0.3098 C.3       1 <0>        -0.0925
      8 C8         -0.9396   -2.5064    0.1383 C.3       1 <0>         0.0145
      9 H1         -1.6997   -3.1130    0.6306 H         1 <0>         0.1456
     10 C9          0.4167   -2.8747    0.7456 C.3       1 <0>         0.1448
     11 C10         1.4829   -2.0836    0.0450 C.3       1 <0>        -0.0304
     12 C11         1.4804   -2.4286   -1.4426 C.3       1 <0>        -0.1241
     13 C12         0.0910   -2.1126   -2.0094 C.3       1 <0>        -0.0096
     14 N1         -0.9309   -2.8716   -1.2830 N.4       1 <0>        -0.3739
     15 C13        -2.2494   -2.5851   -1.8638 C.3       1 <0>         0.0182
     16 C14        -2.3011   -3.1153   -3.2981 C.3       1 <0>        -0.2108
     17 C15        -2.4792   -2.0935   -4.4229 C.3       1 <0>        -0.1679
     18 C16        -3.6360   -3.0186   -4.0393 C.3       1 <0>        -0.1476
     19 C17         2.8868   -2.1036    0.6341 C.3       1 <0>         0.0644
     20 H2          3.5148   -2.8457    0.1412 H         1 <0>         0.1600
     21 O1          3.3506   -0.7456    0.3657 O.3       1 <0>        -0.2592
     22 C18         2.8706   -2.3034    2.1213 C.2       1 <0>         0.3361
     23 O2          3.8019   -1.8874    2.7678 O.2       1 <0>        -0.4120
     24 C19         1.7528   -2.9946    2.8421 C.3       1 <0>        -0.1575
     25 C20         0.4362   -2.5258    2.2328 C.3       1 <0>        -0.1426
     26 O3          0.6517   -4.2744    0.5791 O.3       1 <0>        -0.5414
     27 O4          3.2968    2.2569    0.6522 O.3       1 <0>        -0.4785
     28 H3         -1.2116    1.7350    0.5131 H         1 <0>         0.1418
     29 H4          0.8079    3.0906    0.6634 H         1 <0>         0.1458
     30 H5         -1.8664   -0.9385    1.2514 H         1 <0>         0.1279
     31 H6         -1.9954   -0.7663   -0.5049 H         1 <0>         0.1079
     32 H7          2.2322   -1.8319   -1.9592 H         1 <0>         0.1192
     33 H8          1.6983   -3.4885   -1.5741 H         1 <0>         0.1097
     34 H9         -0.1082   -1.0460   -1.9055 H         1 <0>         0.1319
     35 H10         0.0606   -2.3836   -3.0648 H         1 <0>         0.1393
     36 H11        -3.0221   -3.0716   -1.2686 H         1 <0>         0.1355
     37 H12        -2.4183   -1.5083   -1.8682 H         1 <0>         0.1323
     38 H13        -1.6744   -3.9837   -3.5011 H         1 <0>         0.1257
     39 H14        -2.5597   -1.0437   -4.1411 H         1 <0>         0.1059
     40 H15        -1.9696   -2.2896   -5.3663 H         1 <0>         0.1108
     41 H16        -3.8874   -3.8232   -4.7304 H         1 <0>         0.1129
     42 H17        -4.4775   -2.5773   -3.5052 H         1 <0>         0.1078
     43 H18         1.8718   -4.0736    2.7439 H         1 <0>         0.1208
     44 H19         1.7811   -2.7239    3.8976 H         1 <0>         0.1111
     45 H20         0.2965   -1.4521    2.3583 H         1 <0>         0.0987
     46 H21        -0.3620   -3.0631    2.7449 H         1 <0>         0.0955
     47 H22        -0.0114   -4.8375    1.0014 H         1 <0>         0.3955
     48 H23         3.5936    2.3840    1.5637 H         1 <0>         0.4013
     49 H24        -0.7373   -3.8580   -1.3711 H         1 <0>         0.4280
@<TRIPOS>BOND
     1    1    6 ar
     2    1    2 ar
     3    1   28 1
     4    2    3 ar
     5    2   29 1
     6    3    4 ar
     7    3   27 1
     8    4   21 1
     9    4    5 ar
    10    5   11 1
    11    5    6 ar
    12    6    7 1
    13    7    8 1
    14    7   30 1
    15    7   31 1
    16    8    9 1
    17    8   14 1
    18    8   10 1
    19   10   25 1
    20   10   11 1
    21   10   26 1
    22   11   12 1
    23   11   19 1
    24   12   13 1
    25   12   32 1
    26   12   33 1
    27   13   14 1
    28   13   34 1
    29   13   35 1
    30   14   15 1
    31   14   49 1
    32   15   16 1
    33   15   36 1
    34   15   37 1
    35   16   18 1
    36   16   17 1
    37   16   38 1
    38   17   18 1
    39   17   39 1
    40   17   40 1
    41   18   41 1
    42   18   42 1
    43   19   20 1
    44   19   21 1
    45   19   22 1
    46   22   23 2
    47   22   24 1
    48   24   25 1
    49   24   43 1
    50   24   44 1
    51   25   45 1
    52   25   46 1
    53   26   47 1
    54   27   48 1
@<TRIPOS>MOLECULE
ZINC19796084
   64    68     0     0     0
SMALL
USER_CHARGES

@<TRIPOS>ATOM
      1 C1         -0.2663   -0.3620    5.4641 C.ar      1 <0>        -0.0986
      2 C2          0.6994    0.5149    5.0004 C.ar      1 <0>        -0.1026
      3 C3          1.8638    0.0332    4.4352 C.ar      1 <0>        -0.1044
      4 C4          2.0664   -1.3346    4.3318 C.ar      1 <0>         0.0788
      5 C5          1.0924   -2.2191    4.7995 C.ar      1 <0>         0.0916
      6 C6         -0.0735   -1.7260    5.3654 C.ar      1 <0>        -0.0998
      7 N1          1.5706   -3.5059    4.5639 N.am      1 <0>        -0.6391
      8 H1          1.1107   -4.3313    4.7830 H         1 <0>         0.4399
      9 C7          2.7798   -3.4086    3.9799 C.2       1 <0>         0.6857
     10 O1          3.4724   -4.3503    3.6415 O.2       1 <0>        -0.5583
     11 N2          3.1062   -2.1115    3.8266 N.am      1 <0>        -0.5378
     12 C8          4.3442   -1.6036    3.2301 C.3       1 <0>         0.1610
     13 C9          4.4622   -2.1072    1.7886 C.3       1 <0>        -0.1674
     14 C10         5.7941   -1.6393    1.1981 C.3       1 <0>         0.0018
     15 N3          6.9027   -2.1747    1.9974 N.4       1 <0>        -0.3868
     16 C11         6.8368   -1.6390    3.3624 C.3       1 <0>        -0.0033
     17 C12         5.5451   -2.1068    4.0361 C.3       1 <0>        -0.1667
     18 C13         8.1794   -1.7878    1.3822 C.3       1 <0>        -0.0099
     19 C14         9.3321   -2.4478    2.1415 C.3       1 <0>        -0.1521
     20 C15        10.6618   -2.0449    1.5008 C.3       1 <0>        -0.1087
     21 C16        11.8145   -2.7048    2.2601 C.3       1 <0>         0.0020
     22 C17        11.7312   -4.2008    2.0984 C.ar      1 <0>        -0.0960
     23 C18        11.6406   -4.7550    0.8351 C.ar      1 <0>        -0.0887
     24 C19        11.5647   -6.1268    0.6856 C.ar      1 <0>        -0.1502
     25 C20        11.5793   -6.9462    1.8016 C.ar      1 <0>         0.1040
     26 C21        11.6701   -6.3900    3.0664 C.ar      1 <0>        -0.1491
     27 C22        11.7512   -5.0182    3.2131 C.ar      1 <0>        -0.0845
     28 F1         11.5046   -8.2873    1.6567 F         1 <0>        -0.1345
     29 C23        13.1272   -2.2122    1.7076 C.ar      1 <0>        -0.0972
     30 C24        13.3682   -2.2667    0.3474 C.ar      1 <0>        -0.0865
     31 C25        14.5714   -1.8148   -0.1604 C.ar      1 <0>        -0.1502
     32 C26        15.5358   -1.3073    0.6937 C.ar      1 <0>         0.1057
     33 C27        15.2933   -1.2531    2.0559 C.ar      1 <0>        -0.1489
     34 C28        14.0872   -1.7008    2.5608 C.ar      1 <0>        -0.0812
     35 F2         16.7126   -0.8656    0.1985 F         1 <0>        -0.1344
     36 H2         -1.1724    0.0221    5.9090 H         1 <0>         0.1403
     37 H3          0.5414    1.5802    5.0807 H         1 <0>         0.1389
     38 H4          2.6148    0.7203    4.0743 H         1 <0>         0.1287
     39 H5         -0.8291   -2.4070    5.7282 H         1 <0>         0.1370
     40 H6          4.3316   -0.5137    3.2367 H         1 <0>         0.1148
     41 H7          4.4224   -3.1964    1.7792 H         1 <0>         0.1076
     42 H8          3.6403   -1.7072    1.1949 H         1 <0>         0.1178
     43 H9          5.8813   -1.9960    0.1718 H         1 <0>         0.1377
     44 H10         5.8327   -0.5501    1.2078 H         1 <0>         0.1327
     45 H11         7.6939   -1.9955    3.9338 H         1 <0>         0.1389
     46 H12         6.8532   -0.5498    3.3259 H         1 <0>         0.1330
     47 H13         5.4972   -1.7066    5.0489 H         1 <0>         0.1174
     48 H14         5.5278   -3.1961    4.0734 H         1 <0>         0.1073
     49 H15         8.1953   -2.1141    0.3423 H         1 <0>         0.1326
     50 H16         8.2896   -0.7042    1.4247 H         1 <0>         0.1320
     51 H17         9.3162   -2.1215    3.1814 H         1 <0>         0.0898
     52 H18         9.2220   -3.5314    2.0990 H         1 <0>         0.0914
     53 H19        10.6777   -2.3712    0.4609 H         1 <0>         0.0799
     54 H20        10.7720   -0.9613    1.5433 H         1 <0>         0.0841
     55 H21        11.7465   -2.4493    3.3175 H         1 <0>         0.0944
     56 H22        11.6289   -4.1157   -0.0352 H         1 <0>         0.1319
     57 H23        11.4935   -6.5595   -0.3014 H         1 <0>         0.1380
     58 H24        11.6812   -7.0281    3.9376 H         1 <0>         0.1387
     59 H25        11.8265   -4.5844    4.1993 H         1 <0>         0.1333
     60 H26        12.6160   -2.6630   -0.3186 H         1 <0>         0.1302
     61 H27        14.7596   -1.8579   -1.2230 H         1 <0>         0.1383
     62 H28        16.0449   -0.8577    2.7231 H         1 <0>         0.1395
     63 H29        13.8961   -1.6545    3.6228 H         1 <0>         0.1335
     64 H30         6.8381   -3.1812    2.0286 H         1 <0>         0.4267
@<TRIPOS>BOND
     1    1    6 ar
     2    1    2 ar
     3    1   36 1
     4    2    3 ar
     5    2   37 1
     6    3    4 ar
     7    3   38 1
     8    4   11 1
     9    4    5 ar
    10    5    6 ar
    11    5    7 1
    12    6   39 1
    13    7    8 1
    14    7    9 am
    15    9   10 2
    16    9   11 am
    17   11   12 1
    18   12   17 1
    19   12   13 1
    20   12   40 1
    21   13   14 1
    22   13   41 1
    23   13   42 1
    24   14   15 1
    25   14   43 1
    26   14   44 1
    27   15   16 1
    28   15   18 1
    29   15   64 1
    30   16   17 1
    31   16   45 1
    32   16   46 1
    33   17   47 1
    34   17   48 1
    35   18   19 1
    36   18   49 1
    37   18   50 1
    38   19   20 1
    39   19   51 1
    40   19   52 1
    41   20   21 1
    42   20   53 1
    43   20   54 1
    44   21   22 1
    45   21   29 1
    46   21   55 1
    47   22   27 ar
    48   22   23 ar
    49   23   24 ar
    50   23   56 1
    51   24   25 ar
    52   24   57 1
    53   25   26 ar
    54   25   28 1
    55   26   27 ar
    56   26   58 1
    57   27   59 1
    58   29   34 ar
    59   29   30 ar
    60   30   31 ar
    61   30   60 1
    62   31   32 ar
    63   31   61 1
    64   32   33 ar
    65   32   35 1
    66   33   34 ar
    67   33   62 1
    68   34   63 1
@<TRIPOS>MOLECULE
ZINC58512951
   82    84     0     0     0
SMALL
USER_CHARGES

@<TRIPOS>ATOM
      1 C1          0.7162    1.8563   -0.5029 C.3       1 <0>        -0.1755
      2 C2          0.6586    0.3299   -0.5904 C.3       1 <0>        -0.0075
      3 C3          1.4848   -0.1438   -1.7878 C.3       1 <0>         0.1495
      4 H1          1.7800   -1.1823   -1.6375 H         1 <0>         0.1197
      5 C4          2.7165    0.7144   -1.9197 C.2       1 <0>         0.4918
      6 O1          2.9900    1.5356   -1.0701 O.2       1 <0>        -0.4668
      7 N1          3.5186    0.5520   -3.0116 N.am      1 <0>        -0.7176
      8 C5          4.7103    1.4268   -3.0696 C.3       1 <0>         0.0984
      9 C6          5.5806    1.1351   -1.8742 C.2       1 <0>         0.5169
     10 O2          5.9158   -0.0006   -1.6122 O.2       1 <0>        -0.5335
     11 N2          5.9848    2.1858   -1.0897 N.am      1 <0>        -0.6990
     12 C7          6.8316    1.7862    0.0640 C.3       1 <0>         0.1254
     13 H2          7.0627    0.7230   -0.0010 H         1 <0>         0.1132
     14 C8          6.0666    2.0628    1.3325 C.2       1 <0>         0.5126
     15 O3          6.2633    3.0807    1.9618 O.2       1 <0>        -0.4904
     16 N3          5.1483    1.1489    1.7611 N.am      1 <0>        -0.7099
     17 C9          4.4385    1.4896    3.0134 C.3       1 <0>         0.0916
     18 H3          5.0954    1.3143    3.8654 H         1 <0>         0.0677
     19 C10         3.1976    0.6022    3.1311 C.3       1 <0>        -0.0198
     20 S1          1.8931    1.2400    2.0439 S.3       1 <0>        -0.0694
     21 S2          1.3334   -0.3889    0.9323 S.3       1 <0>        -0.2221
     22 C11         2.7027    0.6068    4.5788 C.3       1 <0>        -0.1278
     23 C12         3.5521   -0.8276    2.7178 C.3       1 <0>        -0.1519
     24 C13         4.0263    2.9388    2.9827 C.2       1 <0>         0.5124
     25 O4          4.1287    3.5799    1.9507 O.co2     1 <0>        -0.6435
     26 O5          3.5906    3.4702    3.9898 O.co2     1 <0>        -0.7048
     27 C14         8.1291    2.5970    0.0565 C.3       1 <0>        -0.0791
     28 C15         8.9348    2.2443   -1.1673 C.ar      1 <0>        -0.0619
     29 C16         9.8481    1.2077   -1.1180 C.ar      1 <0>        -0.1013
     30 C17        10.5873    0.8837   -2.2400 C.ar      1 <0>        -0.1078
     31 C18        10.4131    1.5970   -3.4126 C.ar      1 <0>        -0.0409
     32 C19         9.4989    2.6343   -3.4613 C.ar      1 <0>        -0.1102
     33 C20         8.7562    2.9537   -2.3402 C.ar      1 <0>        -0.0979
     34 Cl1        11.3416    1.1910   -4.8221 Cl        1 <0>        -0.0805
     35 N4          0.6818   -0.0362   -3.0084 N.am      1 <0>        -0.7142
     36 C21         0.9583   -0.8214   -4.0683 C.2       1 <0>         0.5207
     37 O6          1.8718   -1.6171   -4.0117 O.2       1 <0>        -0.5197
     38 C22         0.1322   -0.7108   -5.3239 C.3       1 <0>         0.0849
     39 H4         -0.0882    0.3381   -5.5225 H         1 <0>         0.1056
     40 C23        -1.1769   -1.4816   -5.1427 C.3       1 <0>        -0.1126
     41 C24        -2.0554   -1.2702   -6.3487 C.ar      1 <0>        -0.0934
     42 C25        -2.9450   -0.2121   -6.3776 C.ar      1 <0>        -0.0956
     43 C26        -3.7518   -0.0163   -7.4818 C.ar      1 <0>        -0.1401
     44 C27        -3.6685   -0.8822   -8.5625 C.ar      1 <0>         0.1036
     45 C28        -2.7748   -1.9429   -8.5313 C.ar      1 <0>        -0.1400
     46 C29        -1.9665   -2.1312   -7.4269 C.ar      1 <0>        -0.1027
     47 O7         -4.4614   -0.6921   -9.6497 O.3       1 <0>        -0.5004
     48 N5          0.8811   -1.2763   -6.4541 N.3       1 <0>        -0.8244
     49 C30        -0.7944   -0.1164   -0.7648 C.3       1 <0>        -0.1228
     50 H5          1.6422    2.1575   -0.0131 H         1 <0>         0.1394
     51 H6          0.6820    2.2794   -1.5069 H         1 <0>         0.0573
     52 H7         -0.1345    2.2196    0.0736 H         1 <0>         0.0570
     53 H8          3.3202   -0.0961   -3.7055 H         1 <0>         0.4153
     54 H9          5.2670    1.2263   -3.9850 H         1 <0>         0.1074
     55 H10         4.3988    2.4711   -3.0492 H         1 <0>         0.0880
     56 H11         5.7401    3.1066   -1.2721 H         1 <0>         0.4158
     57 H12         4.9720    0.3280    1.2752 H         1 <0>         0.3912
     58 H13         2.4501    1.6255    4.8731 H         1 <0>         0.0900
     59 H14         1.8187   -0.0254    4.6626 H         1 <0>         0.0556
     60 H15         3.4866    0.2237    5.2320 H         1 <0>         0.0613
     61 H16         4.4196   -1.1653    3.2849 H         1 <0>         0.0714
     62 H17         2.7067   -1.4849    2.9214 H         1 <0>         0.0653
     63 H18         3.7826   -0.8514    1.6527 H         1 <0>         0.0688
     64 H19         7.8925    3.6609    0.0415 H         1 <0>         0.0918
     65 H20         8.7072    2.3659    0.9511 H         1 <0>         0.0890
     66 H21         9.9843    0.6512   -0.2025 H         1 <0>         0.1309
     67 H22        11.3011    0.0741   -2.2012 H         1 <0>         0.1301
     68 H23         9.3627    3.1917   -4.3762 H         1 <0>         0.1301
     69 H24         8.0391    3.7603   -2.3795 H         1 <0>         0.1307
     70 H25        -0.0489    0.6002   -3.0537 H         1 <0>         0.4056
     71 H26        -0.9606   -2.5442   -5.0326 H         1 <0>         0.0833
     72 H27        -1.6905   -1.1211   -4.2514 H         1 <0>         0.0860
     73 H28        -3.0095    0.4617   -5.5360 H         1 <0>         0.1293
     74 H29        -4.4470    0.8099   -7.5035 H         1 <0>         0.1301
     75 H30        -2.7081   -2.6183   -9.3713 H         1 <0>         0.1296
     76 H31        -1.2675   -2.9542   -7.4039 H         1 <0>         0.1260
     77 H32        -4.0700   -0.1241  -10.3274 H         1 <0>         0.3917
     78 H33         1.0977   -2.2487   -6.2940 H         1 <0>         0.3525
     79 H34         0.3756   -1.1560   -7.3191 H         1 <0>         0.3494
     80 H35        -1.1999    0.3155   -1.6797 H         1 <0>         0.0626
     81 H36        -0.8355   -1.2039   -0.8271 H         1 <0>         0.0639
     82 H37        -1.3830    0.2211    0.0883 H         1 <0>         0.0747
@<TRIPOS>BOND
     1    1    2 1
     2    1   50 1
     3    1   51 1
     4    1   52 1
     5    2   21 1
     6    2    3 1
     7    2   49 1
     8    3    4 1
     9    3    5 1
    10    3   35 1
    11    5    6 2
    12    5    7 am
    13    7    8 1
    14    7   53 1
    15    8    9 1
    16    8   54 1
    17    8   55 1
    18    9   10 2
    19    9   11 am
    20   11   12 1
    21   11   56 1
    22   12   13 1
    23   12   14 1
    24   12   27 1
    25   14   15 2
    26   14   16 am
    27   16   17 1
    28   16   57 1
    29   17   18 1
    30   17   19 1
    31   17   24 1
    32   19   20 1
    33   19   22 1
    34   19   23 1
    35   20   21 1
    36   22   58 1
    37   22   59 1
    38   22   60 1
    39   23   61 1
    40   23   62 1
    41   23   63 1
    42   24   25 2
    43   24   26 1
    44   27   28 1
    45   27   64 1
    46   27   65 1
    47   28   33 ar
    48   28   29 ar
    49   29   30 ar
    50   29   66 1
    51   30   31 ar
    52   30   67 1
    53   31   32 ar
    54   31   34 1
    55   32   33 ar
    56   32   68 1
    57   33   69 1
    58   35   36 am
    59   35   70 1
    60   36   37 2
    61   36   38 1
    62   38   39 1
    63   38   40 1
    64   38   48 1
    65   40   41 1
    66   40   71 1
    67   40   72 1
    68   41   46 ar
    69   41   42 ar
    70   42   43 ar
    71   42   73 1
    72   43   44 ar
    73   43   74 1
    74   44   45 ar
    75   44   47 1
    76   45   46 ar
    77   45   75 1
    78   46   76 1
    79   47   77 1
    80   48   78 1
    81   48   79 1
    82   49   80 1
    83   49   81 1
    84   49   82 1
@<TRIPOS>MOLECULE
ZINC01687322
   29    30     0     0     0
SMALL
USER_CHARGES

@<TRIPOS>ATOM
      1 C1         -0.0167    1.3781    0.0096 C.ar      1 <0>        -0.1134
      2 C2          1.1709    2.0855    0.0021 C.ar      1 <0>        -0.1233
      3 C3          2.3773    1.4107   -0.0130 C.ar      1 <0>        -0.0987
      4 C4          2.3960    0.0285   -0.0201 C.ar      1 <0>        -0.0925
      5 C5          1.2084   -0.6789   -0.0117 C.ar      1 <0>        -0.0987
      6 C6          0.0021   -0.0041    0.0020 C.ar      1 <0>        -0.1233
      7 C7          3.7112   -0.7071   -0.0376 C.3       1 <0>         0.1018
      8 O1          4.1410   -0.9464    1.3041 O.3       1 <0>        -0.3747
      9 C8          5.3853   -1.6423    1.4004 C.3       1 <0>         0.1018
     10 C9          5.7397   -1.8393    2.8519 C.ar      1 <0>        -0.0927
     11 C10         6.4818   -0.8821    3.5182 C.ar      1 <0>        -0.0986
     12 C11         6.8069   -1.0628    4.8496 C.ar      1 <0>        -0.1234
     13 C12         6.3894   -2.2004    5.5148 C.ar      1 <0>        -0.1133
     14 C13         5.6465   -3.1571    4.8487 C.ar      1 <0>        -0.1234
     15 C14         5.3178   -2.9744    3.5185 C.ar      1 <0>        -0.0986
     16 H1         -0.9591    1.9053    0.0259 H         1 <0>         0.1235
     17 H2          1.1563    3.1654    0.0076 H         1 <0>         0.1243
     18 H3          3.3051    1.9634   -0.0196 H         1 <0>         0.1226
     19 H4          1.2231   -1.7588   -0.0179 H         1 <0>         0.1226
     20 H5         -0.9258   -0.5567    0.0082 H         1 <0>         0.1243
     21 H6          3.5884   -1.6586   -0.5549 H         1 <0>         0.0591
     22 H7          4.4573   -0.1052   -0.5563 H         1 <0>         0.0592
     23 H8          5.2973   -2.6133    0.9129 H         1 <0>         0.0591
     24 H9          6.1662   -1.0598    0.9116 H         1 <0>         0.0591
     25 H10         6.8080    0.0066    2.9985 H         1 <0>         0.1226
     26 H11         7.3873   -0.3153    5.3699 H         1 <0>         0.1243
     27 H12         6.6440   -2.3419    6.5547 H         1 <0>         0.1235
     28 H13         5.3207   -4.0461    5.3683 H         1 <0>         0.1243
     29 H14         4.7342   -3.7201    2.9991 H         1 <0>         0.1226
@<TRIPOS>BOND
     1    1    6 ar
     2    1    2 ar
     3    1   16 1
     4    2    3 ar
     5    2   17 1
     6    3    4 ar
     7    3   18 1
     8    4    5 ar
     9    4    7 1
    10    5    6 ar
    11    5   19 1
    12    6   20 1
    13    7    8 1
    14    7   21 1
    15    7   22 1
    16    8    9 1
    17    9   10 1
    18    9   23 1
    19    9   24 1
    20   10   15 ar
    21   10   11 ar
    22   11   12 ar
    23   11   25 1
    24   12   13 ar
    25   12   26 1
    26   13   14 ar
    27   13   27 1
    28   14   15 ar
    29   14   28 1
    30   15   29 1
@<TRIPOS>MOLECULE
ZINC03812984
   43    46     0     0     0
SMALL
USER_CHARGES
methylBLAHol
@<TRIPOS>ATOM
      1 C1         -2.7983    1.5746    2.5117 C.3       1 <0>        -0.0492
      2 C2         -2.8836    1.5590    0.0946 C.3       1 <0>        -0.0137
      3 C3         -2.1794    1.0201   -1.2058 C.3       1 <0>        -0.1260
      4 C4         -0.7576    1.5994   -1.2263 C.3       1 <0>        -0.0184
      5 C5         -0.0471    1.1494   -2.4971 C.3       1 <0>        -0.1096
      6 C6          1.3879    1.6819   -2.5009 C.3       1 <0>        -0.1248
      7 C7          2.1311    1.1511   -1.2732 C.3       1 <0>        -0.1197
      8 C8          1.4200    1.6218   -0.0028 C.3       1 <0>        -0.1140
      9 C9         -0.0127    1.0858    0.0080 C.3       1 <0>        -0.0868
     10 H1          0.0021   -0.0041    0.0020 H         1 <0>         0.1005
     11 C10        -0.7376    1.5857    1.2587 C.3       1 <0>         0.0368
     12 H2         -0.2470    1.1454    2.1268 H         1 <0>         0.1322
     13 C11        -0.6296    3.0942    1.3559 C.3       1 <0>        -0.0906
     14 C12        -0.8275    3.7825    0.0324 C.ar      1 <0>        -0.1118
     15 C13        -0.8645    3.1019   -1.1649 C.ar      1 <0>        -0.0525
     16 C14        -1.0059    3.7971   -2.3554 C.ar      1 <0>        -0.1389
     17 C15        -1.1227    5.1776   -2.3507 C.ar      1 <0>         0.1246
     18 C16        -1.1001    5.8624   -1.1445 C.ar      1 <0>        -0.1373
     19 C17        -0.9542    5.1667    0.0366 C.ar      1 <0>        -0.0934
     20 O1         -1.2582    5.8565   -3.5201 O.3       1 <0>        -0.4965
     21 H3         -2.7772    2.6625    2.5756 H         1 <0>         0.1254
     22 H4         -3.8328    1.2313    2.5006 H         1 <0>         0.1236
     23 H5         -2.2838    1.1498    3.3736 H         1 <0>         0.1231
     24 H6         -3.8977    1.1640    0.1553 H         1 <0>         0.1274
     25 H7         -2.9199    2.6475    0.0505 H         1 <0>         0.1324
     26 H8         -2.7194    1.3346   -2.0989 H         1 <0>         0.1139
     27 H9         -2.1344   -0.0682   -1.1643 H         1 <0>         0.0929
     28 H10        -0.5796    1.5352   -3.3664 H         1 <0>         0.0775
     29 H11        -0.0300    0.0602   -2.5361 H         1 <0>         0.0764
     30 H12         1.3713    2.7714   -2.4727 H         1 <0>         0.0675
     31 H13         1.8966    1.3495   -3.4057 H         1 <0>         0.0729
     32 H14         3.1542    1.5269   -1.2774 H         1 <0>         0.0739
     33 H15         2.1443    0.0615   -1.2996 H         1 <0>         0.0675
     34 H16         1.4005    2.7114    0.0201 H         1 <0>         0.0786
     35 H17         1.9539    1.2495    0.8716 H         1 <0>         0.0744
     36 H18         0.3629    3.3369    1.7355 H         1 <0>         0.1193
     37 H19        -1.3763    3.4612    2.0602 H         1 <0>         0.0962
     38 H20        -1.0247    3.2597   -3.2921 H         1 <0>         0.1368
     39 H21        -1.1963    6.9380   -1.1308 H         1 <0>         0.1364
     40 H22        -0.9386    5.7022    0.9743 H         1 <0>         0.1313
     41 H23        -0.4191    6.1273   -3.9172 H         1 <0>         0.4003
     42 N1         -2.1333    1.0997    1.2905 N.4       1 <0>        -0.3877
     43 H24        -2.1230    0.0730    1.2965 H         1 <0>         0.4294
@<TRIPOS>BOND
     1    1   21 1
     2    1   22 1
     3    1   23 1
     4    1   42 1
     5    2    3 1
     6    2   24 1
     7    2   25 1
     8    2   42 1
     9    3    4 1
    10    3   26 1
    11    3   27 1
    12    4    9 1
    13    4   15 1
    14    4    5 1
    15    5    6 1
    16    5   28 1
    17    5   29 1
    18    6    7 1
    19    6   30 1
    20    6   31 1
    21    7    8 1
    22    7   32 1
    23    7   33 1
    24    8    9 1
    25    8   34 1
    26    8   35 1
    27    9   10 1
    28    9   11 1
    29   11   12 1
    30   11   13 1
    31   11   42 1
    32   13   14 1
    33   13   36 1
    34   13   37 1
    35   14   19 ar
    36   14   15 ar
    37   15   16 ar
    38   16   17 ar
    39   16   38 1
    40   17   18 ar
    41   17   20 1
    42   18   19 ar
    43   18   39 1
    44   19   40 1
    45   20   41 1
    46   42   43 1
@<TRIPOS>MOLECULE
ZINC13580323
   56    60     0     0     0
SMALL
USER_CHARGES
cyclopropylmethyl-dimethoxy-BLAHone
@<TRIPOS>ATOM
      1 C1          3.6706    6.1544   -2.9214 C.3       1 <0>         0.0101
      2 O1          2.5897    5.4445   -2.3133 O.3       1 <0>        -0.2962
      3 C2          2.2092    4.2792   -2.9000 C.ar      1 <0>         0.1487
      4 C3          2.8651    3.8325   -4.0359 C.ar      1 <0>        -0.1930
      5 C4          2.4751    2.6467   -4.6272 C.ar      1 <0>        -0.0612
      6 C5          1.4325    1.9191   -4.0912 C.ar      1 <0>        -0.1492
      7 C6          0.7659    2.3652   -2.9559 C.ar      1 <0>        -0.0643
      8 C7          1.1631    3.5398   -2.3573 C.ar      1 <0>        -0.1255
      9 C8          0.4925    4.0573   -1.1111 C.3       1 <0>         0.0178
     10 C9          1.2797    3.5371    0.1018 C.3       1 <0>        -0.1301
     11 C10         1.3438    2.0089    0.0000 C.3       1 <0>        -0.0049
     12 C11        -0.8479    1.9813   -1.0690 C.3       1 <0>         0.0018
     13 H1         -1.8552    1.5877   -0.9332 H         1 <0>         0.1354
     14 C12        -0.3722    1.5283   -2.4382 C.3       1 <0>        -0.0880
     15 C13        -0.9342    3.5106   -1.0319 C.3       1 <0>         0.1189
     16 C14        -1.7422    3.9848   -2.2430 C.3       1 <0>        -0.1390
     17 C15        -1.8447    5.5125   -2.2300 C.3       1 <0>        -0.1573
     18 C16        -0.4442    6.0835   -2.1794 C.2       1 <0>         0.3617
     19 O2         -0.0812    6.9133   -2.9781 O.2       1 <0>        -0.4336
     20 C17         0.4870    5.5828   -1.0979 C.3       1 <0>        -0.1728
     21 O3         -1.5545    3.9364    0.1830 O.3       1 <0>        -0.3595
     22 C18        -2.8960    3.4713    0.3447 C.3       1 <0>         0.0066
     23 C19         0.0021   -0.0041    0.0020 C.3       1 <0>         0.0250
     24 C20         0.6072   -0.5131    1.3118 C.3       1 <0>        -0.2118
     25 C21         1.9187   -1.2964    1.2268 C.3       1 <0>        -0.1667
     26 C22         0.6112   -2.0248    1.5477 C.3       1 <0>        -0.1490
     27 H2          3.4032    6.4157   -3.9453 H         1 <0>         0.0630
     28 H3          3.8723    7.0637   -2.3553 H         1 <0>         0.1076
     29 H4          4.5607    5.5253   -2.9276 H         1 <0>         0.0610
     30 H5          3.6762    4.4082   -4.4566 H         1 <0>         0.1395
     31 H6          2.9861    2.2890   -5.5089 H         1 <0>         0.1357
     32 H7          1.1313    0.9931   -4.5584 H         1 <0>         0.1311
     33 H8          0.7717    3.8246    1.0223 H         1 <0>         0.1041
     34 H9          2.2883    3.9502    0.0917 H         1 <0>         0.1185
     35 H10         1.9009    1.6108    0.8481 H         1 <0>         0.1315
     36 H11         1.8417    1.7260   -0.9274 H         1 <0>         0.1338
     37 H12        -0.0458    0.4903   -2.3728 H         1 <0>         0.1030
     38 H13        -1.2042    1.5912   -3.1395 H         1 <0>         0.1262
     39 H14        -1.2462    3.6625   -3.1585 H         1 <0>         0.0963
     40 H15        -2.7429    3.5547   -2.2021 H         1 <0>         0.0909
     41 H16        -2.3132    5.8222   -3.0574 H         1 <0>         0.0885
     42 H17        -2.4049    5.8355   -1.3526 H         1 <0>         0.1062
     43 H18         0.1730    5.9073   -0.2056 H         1 <0>         0.0997
     44 H19         1.4952    5.9524   -1.2852 H         1 <0>         0.1503
     45 H20        -3.2958    3.8371    1.2905 H         1 <0>         0.1084
     46 H21        -3.5101    3.8407   -0.4766 H         1 <0>         0.0638
     47 H22        -2.9053    2.3813    0.3437 H         1 <0>         0.0418
     48 H23        -1.0158   -0.3807   -0.0985 H         1 <0>         0.1302
     49 H24         0.6037   -0.3547   -0.8366 H         1 <0>         0.1329
     50 H25         0.4610    0.1311    2.1789 H         1 <0>         0.1249
     51 H26         2.3505   -1.4491    0.2376 H         1 <0>         0.1056
     52 H27         2.6353   -1.1678    2.0380 H         1 <0>         0.1102
     53 H28         0.4681   -2.3751    2.5699 H         1 <0>         0.1122
     54 H29         0.1824   -2.6567    0.7698 H         1 <0>         0.1072
     55 N1         -0.0347    1.4638    0.0516 N.4       1 <0>        -0.3785
     56 H30        -0.4694    1.7548    0.9351 H         1 <0>         0.4305
@<TRIPOS>BOND
     1    1    2 1
     2    1   27 1
     3    1   28 1
     4    1   29 1
     5    2    3 1
     6    3    8 ar
     7    3    4 ar
     8    4    5 ar
     9    4   30 1
    10    5    6 ar
    11    5   31 1
    12    6    7 ar
    13    6   32 1
    14    7   14 1
    15    7    8 ar
    16    8    9 1
    17    9   15 1
    18    9   20 1
    19    9   10 1
    20   10   11 1
    21   10   33 1
    22   10   34 1
    23   11   35 1
    24   11   36 1
    25   11   55 1
    26   12   13 1
    27   12   14 1
    28   12   15 1
    29   12   55 1
    30   14   37 1
    31   14   38 1
    32   15   16 1
    33   15   21 1
    34   16   17 1
    35   16   39 1
    36   16   40 1
    37   17   18 1
    38   17   41 1
    39   17   42 1
    40   18   19 2
    41   18   20 1
    42   20   43 1
    43   20   44 1
    44   21   22 1
    45   22   45 1
    46   22   46 1
    47   22   47 1
    48   23   24 1
    49   23   48 1
    50   23   49 1
    51   23   55 1
    52   24   26 1
    53   24   25 1
    54   24   50 1
    55   25   26 1
    56   25   51 1
    57   25   52 1
    58   26   53 1
    59   26   54 1
    60   55   56 1
@<TRIPOS>MOLECULE
ZINC00967961
   48    51     0     0     0
SMALL
USER_CHARGES
N-[[6-(2-fluorophenyl)-2-methyl-2,5-diazabicyclo[5.4.0]undeca-5,8,10,12-tetraen-3-yl]methyl]thiophene-3-carboxamide
@<TRIPOS>ATOM
      1 C1          0.4780   -2.0200    0.9728 C.3       1 <0>         0.0140
      2 N1          0.8295   -0.5987    0.8524 N.pl3     1 <0>        -0.4887
      3 C2          0.6300    0.0672    2.0555 C.ar      1 <0>         0.1220
      4 C3         -0.2090   -0.4516    3.0299 C.ar      1 <0>        -0.1594
      5 C4         -0.3719    0.2208    4.2255 C.ar      1 <0>        -0.0831
      6 C5          0.2974    1.4111    4.4595 C.ar      1 <0>        -0.1327
      7 C6          1.1294    1.9448    3.4969 C.ar      1 <0>        -0.0784
      8 C7          1.2951    1.2812    2.2838 C.ar      1 <0>        -0.1088
      9 C8          2.1419    1.8478    1.2141 C.2       1 <0>         0.2593
     10 N2          1.6539    1.9319    0.0031 N.2       1 <0>        -0.4770
     11 C9          0.2634    1.5423   -0.2360 C.3       1 <0>         0.0362
     12 C10         0.1072    0.0278   -0.2542 C.3       1 <0>         0.0768
     13 H1          0.4946   -0.3590   -1.1968 H         1 <0>         0.1045
     14 C11        -1.3778   -0.3231   -0.1427 C.3       1 <0>         0.0882
     15 N3         -2.0884    0.1803   -1.3208 N.am      1 <0>        -0.7235
     16 C12        -3.4302    0.0773   -1.3934 C.2       1 <0>         0.5761
     17 O1         -4.0513   -0.4335   -0.4808 O.2       1 <0>        -0.5337
     18 C13        -4.1441    0.5830   -2.5771 C.2       1 <0>        -0.1769
     19 C14        -5.5776    0.4844   -2.6905 C.2       1 <0>        -0.1113
     20 C15        -6.1397    0.9811   -3.8099 C.2       1 <0>        -0.1908
     21 S1         -4.7390    1.5774   -4.7345 S.3       1 <0>         0.1330
     22 C16        -3.4703    1.1672   -3.6296 C.2       1 <0>        -0.1745
     23 C17         3.5169    2.3122    1.5070 C.ar      1 <0>        -0.0907
     24 C18         4.0253    2.2236    2.8032 C.ar      1 <0>        -0.0665
     25 C19         5.3088    2.6525    3.0688 C.ar      1 <0>        -0.1370
     26 C20         6.0900    3.1811    2.0557 C.ar      1 <0>        -0.0729
     27 C21         5.5926    3.2780    0.7697 C.ar      1 <0>        -0.1650
     28 C22         4.3092    2.8464    0.4879 C.ar      1 <0>         0.1451
     29 F1          3.8230    2.9416   -0.7690 F         1 <0>        -0.1138
     30 H2          0.6447   -2.5177    0.0175 H         1 <0>         0.0804
     31 H3          1.1000   -2.4845    1.7379 H         1 <0>         0.0816
     32 H4         -0.5715   -2.1123    1.2524 H         1 <0>         0.0480
     33 H5         -0.7339   -1.3791    2.8546 H         1 <0>         0.1322
     34 H6         -1.0261   -0.1842    4.9834 H         1 <0>         0.1283
     35 H7          0.1673    1.9240    5.4010 H         1 <0>         0.1300
     36 H8          1.6493    2.8729    3.6831 H         1 <0>         0.1335
     37 H9         -0.0602    1.9458   -1.1955 H         1 <0>         0.0975
     38 H10        -0.3638    1.9561    0.5535 H         1 <0>         0.0622
     39 H11        -1.4920   -1.4055   -0.0844 H         1 <0>         0.0799
     40 H12        -1.7929    0.1349    0.7551 H         1 <0>         0.0754
     41 H13        -1.5931    0.5876   -2.0486 H         1 <0>         0.4004
     42 H14        -6.1753    0.0362   -1.9107 H         1 <0>         0.1496
     43 H15        -7.1844    1.0070   -4.0823 H         1 <0>         0.1926
     44 H16        -2.4082    1.3297   -3.7381 H         1 <0>         0.1899
     45 H17         3.4161    1.8160    3.5964 H         1 <0>         0.1389
     46 H18         5.7040    2.5802    4.0713 H         1 <0>         0.1344
     47 H19         7.0927    3.5197    2.2711 H         1 <0>         0.1356
     48 H20         6.2070    3.6917   -0.0163 H         1 <0>         0.1394
@<TRIPOS>BOND
     1    1    2 1
     2    1   30 1
     3    1   31 1
     4    1   32 1
     5    2   12 1
     6    2    3 1
     7    3    8 ar
     8    3    4 ar
     9    4    5 ar
    10    4   33 1
    11    5    6 ar
    12    5   34 1
    13    6    7 ar
    14    6   35 1
    15    7    8 ar
    16    7   36 1
    17    8    9 1
    18    9   10 2
    19    9   23 1
    20   10   11 1
    21   11   12 1
    22   11   37 1
    23   11   38 1
    24   12   13 1
    25   12   14 1
    26   14   15 1
    27   14   39 1
    28   14   40 1
    29   15   16 am
    30   15   41 1
    31   16   17 2
    32   16   18 1
    33   18   22 2
    34   18   19 1
    35   19   20 2
    36   19   42 1
    37   20   21 1
    38   20   43 1
    39   21   22 1
    40   22   44 1
    41   23   28 ar
    42   23   24 ar
    43   24   25 ar
    44   24   45 1
    45   25   26 ar
    46   25   46 1
    47   26   27 ar
    48   26   47 1
    49   27   28 ar
    50   27   48 1
    51   28   29 1
@<TRIPOS>MOLECULE
ZINC01532369
   48    51     0     0     0
SMALL
USER_CHARGES
N-[[6-(2-fluorophenyl)-2-methyl-2,5-diazabicyclo[5.4.0]undeca-5,8,10,12-tetraen-3-yl]methyl]thiophene-3-carboxamide
@<TRIPOS>ATOM
      1 C1          0.1112    6.1537   -2.9488 C.3       1 <0>         0.0191
      2 N1          0.7416    5.5385   -1.7731 N.pl3     1 <0>        -0.4961
      3 C2         -0.2053    5.2351   -0.8017 C.ar      1 <0>         0.1287
      4 C3         -1.4465    5.8523   -0.7941 C.ar      1 <0>        -0.1599
      5 C4         -2.3777    5.5111    0.1676 C.ar      1 <0>        -0.0836
      6 C5         -2.0804    4.5550    1.1252 C.ar      1 <0>        -0.1343
      7 C6         -0.8456    3.9398    1.1378 C.ar      1 <0>        -0.0774
      8 C7          0.1059    4.2816    0.1736 C.ar      1 <0>        -0.1100
      9 C8          1.4455    3.6605    0.1822 C.2       1 <0>         0.2579
     10 N2          2.4967    4.4336    0.0990 N.2       1 <0>        -0.4722
     11 C9          2.3148    5.8861    0.0961 C.3       1 <0>         0.0326
     12 C10         1.8204    6.3804   -1.2559 C.3       1 <0>         0.0786
     13 H1          1.4553    7.4020   -1.1499 H         1 <0>         0.0643
     14 C11         2.9839    6.3662   -2.2494 C.3       1 <0>         0.1304
     15 N3          3.9926    7.3440   -1.8341 N.am      1 <0>        -0.7251
     16 C12         5.0688    7.5740   -2.6122 C.2       1 <0>         0.5767
     17 O1          5.2024    6.9697   -3.6594 O.2       1 <0>        -0.5315
     18 C13         6.0823    8.5564   -2.1949 C.2       1 <0>        -0.1733
     19 C14         7.2452    8.8272   -3.0023 C.2       1 <0>        -0.1108
     20 C15         8.1157    9.7437   -2.5356 C.2       1 <0>        -0.1903
     21 S1          7.3774   10.2551   -0.9975 S.3       1 <0>         0.1285
     22 C16         5.9584    9.2629   -1.0166 C.2       1 <0>        -0.1762
     23 C17         1.5953    2.1905    0.2769 C.ar      1 <0>        -0.0910
     24 C18         0.4666    1.3753    0.3652 C.ar      1 <0>        -0.0667
     25 C19         0.6124    0.0067    0.4527 C.ar      1 <0>        -0.1374
     26 C20         1.8751   -0.5604    0.4528 C.ar      1 <0>        -0.0726
     27 C21         2.9990    0.2395    0.3662 C.ar      1 <0>        -0.1650
     28 C22         2.8676    1.6135    0.2783 C.ar      1 <0>         0.1457
     29 F1          3.9662    2.3953    0.1941 F         1 <0>        -0.1130
     30 H2          0.8279    6.1875   -3.7694 H         1 <0>         0.0821
     31 H3         -0.7552    5.5634   -3.2471 H         1 <0>         0.0812
     32 H4         -0.2068    7.1667   -2.7022 H         1 <0>         0.0414
     33 H5         -1.6849    6.5983   -1.5378 H         1 <0>         0.1307
     34 H6         -3.3441    5.9932    0.1732 H         1 <0>         0.1279
     35 H7         -2.8199    4.2895    1.8662 H         1 <0>         0.1298
     36 H8         -0.6180    3.1959    1.8869 H         1 <0>         0.1339
     37 H9          1.5880    6.1562    0.8622 H         1 <0>         0.0628
     38 H10         3.2669    6.3652    0.3246 H         1 <0>         0.0983
     39 H11         3.4296    5.3718   -2.2727 H         1 <0>         0.0852
     40 H12         2.6164    6.6230   -3.2430 H         1 <0>         0.0758
     41 H13         3.8861    7.8259   -0.9990 H         1 <0>         0.3963
     42 H14         7.4117    8.3177   -3.9399 H         1 <0>         0.1502
     43 H15         9.0368   10.0848   -2.9845 H         1 <0>         0.1924
     44 H16         5.1681    9.2089   -0.2824 H         1 <0>         0.1883
     45 H17        -0.5199    1.8150    0.3604 H         1 <0>         0.1386
     46 H18        -0.2613   -0.6245    0.5210 H         1 <0>         0.1342
     47 H19         1.9826   -1.6328    0.5213 H         1 <0>         0.1355
     48 H20         3.9814   -0.2091    0.3668 H         1 <0>         0.1393
@<TRIPOS>BOND
     1    1    2 1
     2    1   30 1
     3    1   31 1
     4    1   32 1
     5    2   12 1
     6    2    3 1
     7    3    8 ar
     8    3    4 ar
     9    4    5 ar
    10    4   33 1
    11    5    6 ar
    12    5   34 1
    13    6    7 ar
    14    6   35 1
    15    7    8 ar
    16    7   36 1
    17    8    9 1
    18    9   10 2
    19    9   23 1
    20   10   11 1
    21   11   12 1
    22   11   37 1
    23   11   38 1
    24   12   13 1
    25   12   14 1
    26   14   15 1
    27   14   39 1
    28   14   40 1
    29   15   16 am
    30   15   41 1
    31   16   17 2
    32   16   18 1
    33   18   22 2
    34   18   19 1
    35   19   20 2
    36   19   42 1
    37   20   21 1
    38   20   43 1
    39   21   22 1
    40   22   44 1
    41   23   28 ar
    42   23   24 ar
    43   24   25 ar
    44   24   45 1
    45   25   26 ar
    46   25   46 1
    47   26   27 ar
    48   26   47 1
    49   27   28 ar
    50   27   48 1
    51   28   29 1
@<TRIPOS>MOLECULE
ZINC13583880
   38    39     0     0     0
SMALL
USER_CHARGES
(3R)-3-dimethylamino-4,4-dimethyl-tetralin-6-ol
@<TRIPOS>ATOM
      1 C1          1.3168    3.6502   -0.6951 C.3       1 <0>        -0.1740
      2 C2          1.4389    2.1682   -0.3349 C.3       1 <0>        -0.0303
      3 C3          2.4167    1.5083   -1.2718 C.ar      1 <0>        -0.0631
      4 C4          3.5829    2.1968   -1.5773 C.ar      1 <0>        -0.1389
      5 C5          4.5269    1.6396   -2.4225 C.ar      1 <0>         0.1171
      6 C6          4.3040    0.3830   -2.9674 C.ar      1 <0>        -0.1314
      7 C7          3.1442   -0.2972   -2.6640 C.ar      1 <0>        -0.0954
      8 C8          2.1957    0.2633   -1.8172 C.ar      1 <0>        -0.0914
      9 C9          0.9497   -0.5352   -1.5354 C.3       1 <0>        -0.0764
     10 C10         0.2427   -0.0060   -0.2893 C.3       1 <0>        -0.1455
     11 C11         0.0651    1.5094   -0.4410 C.3       1 <0>         0.0371
     12 H1         -0.3747    1.7320   -1.4131 H         1 <0>         0.1438
     13 C12        -1.4129    3.2992    0.2479 C.3       1 <0>        -0.0600
     14 C13        -1.8427    1.0285    0.9703 C.3       1 <0>        -0.0481
     15 O1          5.6659    2.3198   -2.7176 O.3       1 <0>        -0.4960
     16 C14         1.9506    2.0395    1.1012 C.3       1 <0>        -0.1626
     17 H2          0.9111    4.1986    0.1550 H         1 <0>         0.0693
     18 H3          2.3012    4.0454   -0.9461 H         1 <0>         0.0888
     19 H4          0.6513    3.7624   -1.5510 H         1 <0>         0.0738
     20 H5          3.7548    3.1747   -1.1524 H         1 <0>         0.1345
     21 H6          5.0359   -0.0599   -3.6265 H         1 <0>         0.1370
     22 H7          2.9709   -1.2749   -3.0888 H         1 <0>         0.1336
     23 H8          1.2198   -1.5796   -1.3790 H         1 <0>         0.0977
     24 H9          0.2759   -0.4622   -2.3891 H         1 <0>         0.0887
     25 H10         0.8462   -0.2183    0.5932 H         1 <0>         0.0937
     26 H11        -0.7329   -0.4818   -0.1900 H         1 <0>         0.0989
     27 H12        -1.8796    3.2070   -0.7328 H         1 <0>         0.1238
     28 H13        -2.1669    3.5771    0.9844 H         1 <0>         0.1234
     29 H14        -0.6400    4.0669    0.2118 H         1 <0>         0.1297
     30 H15        -1.3747    0.1554    1.4250 H         1 <0>         0.1236
     31 H16        -2.5470    1.4713    1.6745 H         1 <0>         0.1234
     32 H17        -2.3730    0.7273    0.0669 H         1 <0>         0.1247
     33 H18         5.5938    2.8885   -3.4963 H         1 <0>         0.3981
     34 H19         2.1219    0.9883    1.3331 H         1 <0>         0.0811
     35 H20         2.8849    2.5913    1.2049 H         1 <0>         0.0935
     36 H21         1.2096    2.4472    1.7889 H         1 <0>         0.0529
     37 N1         -0.7933    2.0187    0.6492 N.4       1 <0>        -0.3992
     38 H22        -0.2155    2.1747    1.4835 H         1 <0>         0.4244
@<TRIPOS>BOND
     1    1    2 1
     2    1   17 1
     3    1   18 1
     4    1   19 1
     5    2   11 1
     6    2    3 1
     7    2   16 1
     8    3    8 ar
     9    3    4 ar
    10    4    5 ar
    11    4   20 1
    12    5    6 ar
    13    5   15 1
    14    6    7 ar
    15    6   21 1
    16    7    8 ar
    17    7   22 1
    18    8    9 1
    19    9   10 1
    20    9   23 1
    21    9   24 1
    22   10   11 1
    23   10   25 1
    24   10   26 1
    25   11   12 1
    26   11   37 1
    27   13   27 1
    28   13   28 1
    29   13   29 1
    30   13   37 1
    31   14   30 1
    32   14   31 1
    33   14   32 1
    34   14   37 1
    35   15   33 1
    36   16   34 1
    37   16   35 1
    38   16   36 1
    39   37   38 1
@<TRIPOS>MOLECULE
ZINC13583882
   38    39     0     0     0
SMALL
USER_CHARGES
(3S)-3-dimethylamino-4,4-dimethyl-tetralin-6-ol
@<TRIPOS>ATOM
      1 C1          4.2620    1.3766    3.1471 C.3       1 <0>        -0.1733
      2 C2          3.7800    2.7138    2.5810 C.3       1 <0>        -0.0305
      3 C3          3.0363    2.4693    1.2940 C.ar      1 <0>        -0.0632
      4 C4          1.7351    1.9931    1.3809 C.ar      1 <0>        -0.1376
      5 C5          1.0031    1.7354    0.2346 C.ar      1 <0>         0.1167
      6 C6          1.5721    1.9665   -1.0097 C.ar      1 <0>        -0.1314
      7 C7          2.8612    2.4471   -1.0927 C.ar      1 <0>        -0.0956
      8 C8          3.5976    2.7009    0.0580 C.ar      1 <0>        -0.0915
      9 C9          4.9977    3.2313   -0.1096 C.3       1 <0>        -0.0773
     10 C10         5.7995    3.0475    1.1772 C.3       1 <0>        -0.1359
     11 C11         4.9840    3.6225    2.3413 C.3       1 <0>         0.0352
     12 H1          4.6419    4.6263    2.0894 H         1 <0>         0.1423
     13 C12         6.7664    2.5522    3.5823 C.3       1 <0>        -0.0750
     14 C13         6.5145    4.9591    3.6580 C.3       1 <0>        -0.0438
     15 O1         -0.2682    1.2640    0.3275 O.3       1 <0>        -0.4960
     16 C14         2.8390    3.3782    3.5880 C.3       1 <0>        -0.1614
     17 H2          4.6572    1.5286    4.1515 H         1 <0>         0.0648
     18 H3          3.4271    0.6770    3.1873 H         1 <0>         0.0883
     19 H4          5.0449    0.9716    2.5060 H         1 <0>         0.0785
     20 H5          1.2920    1.8185    2.3502 H         1 <0>         0.1332
     21 H6          1.0072    1.7709   -1.9091 H         1 <0>         0.1369
     22 H7          3.3033    2.6279   -2.0614 H         1 <0>         0.1335
     23 H8          5.4908    2.6946   -0.9201 H         1 <0>         0.0977
     24 H9          4.9530    4.2920   -0.3567 H         1 <0>         0.0890
     25 H10         5.9835    1.9866    1.3467 H         1 <0>         0.0962
     26 H11         6.7488    3.5771    1.0971 H         1 <0>         0.0927
     27 H12         7.3609    2.5551    2.6688 H         1 <0>         0.1289
     28 H13         7.4246    2.6584    4.4446 H         1 <0>         0.1228
     29 H14         6.2191    1.6125    3.6567 H         1 <0>         0.1358
     30 H15         5.7854    5.7584    3.7909 H         1 <0>         0.1212
     31 H16         7.1890    4.9366    4.5139 H         1 <0>         0.1241
     32 H17         7.0877    5.1378    2.7483 H         1 <0>         0.1235
     33 H18        -0.3299    0.2991    0.3406 H         1 <0>         0.3982
     34 H19         2.4255    4.2882    3.1533 H         1 <0>         0.0787
     35 H20         2.0284    2.6926    3.8349 H         1 <0>         0.0877
     36 H21         3.3928    3.6271    4.4933 H         1 <0>         0.0550
     37 N1          5.7982    3.6690    3.5740 N.4       1 <0>        -0.3943
     38 H22         5.1777    3.5785    4.3871 H         1 <0>         0.4261
@<TRIPOS>BOND
     1    1    2 1
     2    1   17 1
     3    1   18 1
     4    1   19 1
     5    2   11 1
     6    2    3 1
     7    2   16 1
     8    3    8 ar
     9    3    4 ar
    10    4    5 ar
    11    4   20 1
    12    5    6 ar
    13    5   15 1
    14    6    7 ar
    15    6   21 1
    16    7    8 ar
    17    7   22 1
    18    8    9 1
    19    9   10 1
    20    9   23 1
    21    9   24 1
    22   10   11 1
    23   10   25 1
    24   10   26 1
    25   11   12 1
    26   11   37 1
    27   13   27 1
    28   13   28 1
    29   13   29 1
    30   13   37 1
    31   14   30 1
    32   14   31 1
    33   14   32 1
    34   14   37 1
    35   15   33 1
    36   16   34 1
    37   16   35 1
    38   16   36 1
    39   37   38 1
@<TRIPOS>MOLECULE
ZINC14951777
   50    54     0     0     0
SMALL
USER_CHARGES
cyclopropylmethylBLAHol
@<TRIPOS>ATOM
      1 C1         -1.2359    3.1356    0.0288 C.ar      1 <0>        -0.1361
      2 C2         -0.0465    3.8326    0.0288 C.ar      1 <0>        -0.0935
      3 C3          1.1697    3.1595    0.0228 C.ar      1 <0>        -0.1116
      4 C4          1.1798    1.7811    0.0004 C.ar      1 <0>        -0.0608
      5 C5         -0.0126    1.0758    0.0080 C.ar      1 <0>        -0.1381
      6 C6         -1.2238    1.7485    0.0174 C.ar      1 <0>         0.1245
      7 O1         -2.3920    1.0541    0.0197 O.3       1 <0>        -0.4964
      8 C7          2.4695    1.0051   -0.0534 C.3       1 <0>        -0.0153
      9 C8          2.3410   -0.3185    0.6917 C.3       1 <0>        -0.1104
     10 C9          3.6618   -1.0869    0.5915 C.3       1 <0>        -0.1271
     11 C10         4.7910   -0.2518    1.1974 C.3       1 <0>        -0.1207
     12 C11         4.9117    1.0770    0.4466 C.3       1 <0>        -0.1284
     13 C12         3.5931    1.8415    0.5643 C.3       1 <0>        -0.0898
     14 H1          3.3681    2.0400    1.6122 H         1 <0>         0.1208
     15 C13         3.6733    3.1604   -0.2017 C.3       1 <0>         0.0378
     16 H2          4.5307    3.7162    0.1778 H         1 <0>         0.1329
     17 C14         2.4262    3.9864    0.0654 C.3       1 <0>        -0.0873
     18 C15         2.8539    2.0735   -2.2257 C.3       1 <0>        -0.0108
     19 C16         2.8089    0.7278   -1.4925 C.3       1 <0>        -0.1367
     20 C17         4.0171    4.1906   -2.3552 C.3       1 <0>         0.0263
     21 C18         4.4840    3.9088   -3.7847 C.3       1 <0>        -0.2162
     22 C19         5.8505    4.4558   -4.2024 C.3       1 <0>        -0.1670
     23 C20         4.5707    5.0955   -4.7465 C.3       1 <0>        -0.1489
     24 H3         -2.1752    3.6685    0.0339 H         1 <0>         0.1367
     25 H4         -0.0598    4.9125    0.0332 H         1 <0>         0.1317
     26 H5          0.0021   -0.0041    0.0020 H         1 <0>         0.1372
     27 H6         -2.7257    0.8487    0.9037 H         1 <0>         0.4005
     28 H7          2.1111   -0.1253    1.7395 H         1 <0>         0.0765
     29 H8          1.5412   -0.9104    0.2465 H         1 <0>         0.0781
     30 H9          3.5758   -2.0284    1.1340 H         1 <0>         0.0764
     31 H10         3.8843   -1.2908   -0.4558 H         1 <0>         0.0670
     32 H11         4.5741   -0.0564    2.2476 H         1 <0>         0.0727
     33 H12         5.7301   -0.7993    1.1170 H         1 <0>         0.0754
     34 H13         5.7165    1.6695    0.8818 H         1 <0>         0.0816
     35 H14         5.1291    0.8833   -0.6038 H         1 <0>         0.0610
     36 H15         2.3565    4.7733   -0.6857 H         1 <0>         0.0950
     37 H16         2.5131    4.4458    1.0501 H         1 <0>         0.1207
     38 H17         1.8847    2.5652   -2.1426 H         1 <0>         0.1345
     39 H18         3.0879    1.9068   -3.2772 H         1 <0>         0.1265
     40 H19         2.0388    0.0939   -1.9321 H         1 <0>         0.1132
     41 H20         3.7786    0.2355   -1.5654 H         1 <0>         0.1012
     42 H21         3.0519    4.6963   -2.3813 H         1 <0>         0.1338
     43 H22         4.7468    4.8261   -1.8533 H         1 <0>         0.1287
     44 H23         4.1791    2.9473   -4.1980 H         1 <0>         0.1251
     45 H24         6.4169    5.0165   -3.4588 H         1 <0>         0.1061
     46 H25         6.4444    3.8544   -4.8907 H         1 <0>         0.1099
     47 H26         4.3232    4.9148   -5.7925 H         1 <0>         0.1117
     48 H27         4.2947    6.0770   -4.3610 H         1 <0>         0.1074
     49 N1          3.9269    2.9113   -1.6371 N.4       1 <0>        -0.3830
     50 H28         4.8203    2.4142   -1.7318 H         1 <0>         0.4270
@<TRIPOS>BOND
     1    1    6 ar
     2    1    2 ar
     3    1   24 1
     4    2    3 ar
     5    2   25 1
     6    3   17 1
     7    3    4 ar
     8    4    5 ar
     9    4    8 1
    10    5    6 ar
    11    5   26 1
    12    6    7 1
    13    7   27 1
    14    8   13 1
    15    8   19 1
    16    8    9 1
    17    9   10 1
    18    9   28 1
    19    9   29 1
    20   10   11 1
    21   10   30 1
    22   10   31 1
    23   11   12 1
    24   11   32 1
    25   11   33 1
    26   12   13 1
    27   12   34 1
    28   12   35 1
    29   13   14 1
    30   13   15 1
    31   15   16 1
    32   15   17 1
    33   15   49 1
    34   17   36 1
    35   17   37 1
    36   18   19 1
    37   18   38 1
    38   18   39 1
    39   18   49 1
    40   19   40 1
    41   19   41 1
    42   20   21 1
    43   20   42 1
    44   20   43 1
    45   20   49 1
    46   21   23 1
    47   21   22 1
    48   21   44 1
    49   22   23 1
    50   22   45 1
    51   22   46 1
    52   23   47 1
    53   23   48 1
    54   49   50 1
@<TRIPOS>MOLECULE
ZINC01699052
   48    51     0     0     0
SMALL
USER_CHARGES
8-benzyl-1-phenyl-1,3,8-triazaspiro[4.5]decan-4-one
@<TRIPOS>ATOM
      1 C1         -6.8443   -2.3610    3.7036 C.ar      1 <0>        -0.0843
      2 C2         -7.5373   -1.2678    3.2182 C.ar      1 <0>        -0.1133
      3 C3         -7.2127   -0.7360    1.9842 C.ar      1 <0>        -0.0961
      4 C4         -6.1953   -1.2975    1.2355 C.ar      1 <0>        -0.1618
      5 C5         -5.5061   -2.3941    1.7185 C.ar      1 <0>        -0.0945
      6 C6         -5.8272   -2.9228    2.9547 C.ar      1 <0>        -0.1135
      7 C7         -5.8417   -0.7179   -0.1099 C.3       1 <0>         0.0493
      8 C8         -4.2734    0.7386   -1.2411 C.3       1 <0>        -0.0007
      9 C9         -3.1013    1.6988   -1.0194 C.3       1 <0>        -0.1657
     10 C10        -3.5811    2.9033   -0.2140 C.3       1 <0>         0.0519
     11 C11        -4.2019    2.4469    1.1035 C.3       1 <0>        -0.1185
     12 C12        -5.3386    1.4626    0.8134 C.3       1 <0>        -0.0174
     13 C13        -4.5749    3.7095   -1.0134 C.2       1 <0>         0.5296
     14 O1         -5.7405    3.4254   -1.1908 O.2       1 <0>        -0.5108
     15 N1         -3.9453    4.8011   -1.4969 N.am      1 <0>        -0.7202
     16 C14        -2.5377    4.7828   -1.0787 C.3       1 <0>         0.2383
     17 N2         -2.4537    3.8224    0.0465 N.pl3     1 <0>        -0.4408
     18 C15        -1.2361    3.1382    0.0307 C.ar      1 <0>         0.0805
     19 C16        -0.2407    3.5091   -0.8644 C.ar      1 <0>        -0.1598
     20 C17         0.9597    2.8265   -0.8814 C.ar      1 <0>        -0.0848
     21 C18         1.1756    1.7821   -0.0011 C.ar      1 <0>        -0.1238
     22 C19         0.1889    1.4139    0.8951 C.ar      1 <0>        -0.0948
     23 C20        -1.0160    2.0886    0.9137 C.ar      1 <0>        -0.1412
     24 H1         -7.0977   -2.7763    4.6678 H         1 <0>         0.1355
     25 H2         -8.3322   -0.8291    3.8031 H         1 <0>         0.1361
     26 H3         -7.7541    0.1181    1.6050 H         1 <0>         0.1321
     27 H4         -4.7142   -2.8356    1.1316 H         1 <0>         0.1309
     28 H5         -5.2860   -3.7770    3.3338 H         1 <0>         0.1357
     29 H6         -6.7310   -0.2776   -0.5609 H         1 <0>         0.1388
     30 H7         -5.4595   -1.5077   -0.7566 H         1 <0>         0.1356
     31 H8         -5.0527    1.2425   -1.8128 H         1 <0>         0.1381
     32 H9         -3.9273   -0.1364   -1.7912 H         1 <0>         0.1363
     33 H10        -2.7187    2.0346   -1.9832 H         1 <0>         0.1152
     34 H11        -2.3101    1.1867   -0.4717 H         1 <0>         0.1192
     35 H12        -3.4427    1.9567    1.7129 H         1 <0>         0.1022
     36 H13        -4.5964    3.3109    1.6383 H         1 <0>         0.1230
     37 H14        -6.1106    1.9614    0.2275 H         1 <0>         0.1530
     38 H15        -5.7651    1.1128    1.7536 H         1 <0>         0.1353
     39 H16        -4.3592    5.4920   -2.0374 H         1 <0>         0.4325
     40 H17        -2.2320    5.7754   -0.7479 H         1 <0>         0.1178
     41 H18        -1.9062    4.4508   -1.9028 H         1 <0>         0.0853
     42 H19        -0.4070    4.3275   -1.5492 H         1 <0>         0.1353
     43 H20         1.7324    3.1115   -1.5801 H         1 <0>         0.1327
     44 H21         2.1171    1.2531   -0.0132 H         1 <0>         0.1309
     45 H22         0.3609    0.5981    1.5816 H         1 <0>         0.1318
     46 H23        -1.7860    1.8008    1.6141 H         1 <0>         0.1259
     47 N3         -4.7915    0.3046    0.0744 N.4       1 <0>        -0.3888
     48 H24        -4.0212   -0.1029    0.6174 H         1 <0>         0.4224
@<TRIPOS>BOND
     1    1    6 ar
     2    1    2 ar
     3    1   24 1
     4    2    3 ar
     5    2   25 1
     6    3    4 ar
     7    3   26 1
     8    4    5 ar
     9    4    7 1
    10    5    6 ar
    11    5   27 1
    12    6   28 1
    13    7   29 1
    14    7   30 1
    15    7   47 1
    16    8    9 1
    17    8   31 1
    18    8   32 1
    19    8   47 1
    20    9   10 1
    21    9   33 1
    22    9   34 1
    23   10   17 1
    24   10   11 1
    25   10   13 1
    26   11   12 1
    27   11   35 1
    28   11   36 1
    29   12   37 1
    30   12   38 1
    31   12   47 1
    32   13   14 2
    33   13   15 am
    34   15   16 1
    35   15   39 1
    36   16   17 1
    37   16   40 1
    38   16   41 1
    39   17   18 1
    40   18   23 ar
    41   18   19 ar
    42   19   20 ar
    43   19   42 1
    44   20   21 ar
    45   20   43 1
    46   21   22 ar
    47   21   44 1
    48   22   23 ar
    49   22   45 1
    50   23   46 1
    51   47   48 1
@<TRIPOS>MOLECULE
ZINC24912362
   47    50     0     0     0
SMALL
USER_CHARGES
4-phenyl-8-(3-pyridylmethyl)-2,4,8-triazaspiro[4.5]decan-1-one
@<TRIPOS>ATOM
      1 C1          1.1756    1.7821   -0.0011 C.ar      1 <0>        -0.1248
      2 C2          0.9597    2.8265   -0.8814 C.ar      1 <0>        -0.0846
      3 C3         -0.2407    3.5091   -0.8644 C.ar      1 <0>        -0.1606
      4 C4         -1.2361    3.1382    0.0307 C.ar      1 <0>         0.0823
      5 C5         -1.0160    2.0886    0.9137 C.ar      1 <0>        -0.1426
      6 C6          0.1889    1.4139    0.8951 C.ar      1 <0>        -0.0949
      7 N1         -2.4537    3.8224    0.0465 N.pl3     1 <0>        -0.4437
      8 C7         -2.5377    4.7828   -1.0787 C.3       1 <0>         0.2260
      9 N2         -3.9453    4.8011   -1.4969 N.am      1 <0>        -0.7293
     10 C8         -4.5749    3.7095   -1.0134 C.2       1 <0>         0.5364
     11 O1         -5.7405    3.4254   -1.1908 O.2       1 <0>        -0.5154
     12 C9         -3.5811    2.9033   -0.2140 C.3       1 <0>         0.0539
     13 C10        -4.2019    2.4469    1.1035 C.3       1 <0>        -0.1183
     14 C11        -5.3386    1.4626    0.8134 C.3       1 <0>        -0.0217
     15 N3         -4.8137    0.3179    0.0580 N.4       1 <0>        -0.3927
     16 C12        -4.2734    0.7386   -1.2411 C.3       1 <0>        -0.0034
     17 C13        -3.1013    1.6988   -1.0194 C.3       1 <0>        -0.1658
     18 C14        -5.8417   -0.7179   -0.1099 C.3       1 <0>         0.0523
     19 C15        -6.1953   -1.2975    1.2355 C.ar      1 <0>        -0.2152
     20 C16        -5.5097   -2.3975    1.7283 C.ar      1 <0>        -0.0473
     21 C17        -5.8660   -2.8940    2.9727 C.ar      1 <0>        -0.1657
     22 C18        -6.8923   -2.2864    3.6715 C.ar      1 <0>         0.1361
     23 N4         -7.5259   -1.2447    3.1695 N.ar      1 <0>        -0.4745
     24 C19        -7.2107   -0.7430    1.9912 C.ar      1 <0>         0.1293
     25 H1          2.1171    1.2531   -0.0132 H         1 <0>         0.1306
     26 H2          1.7324    3.1115   -1.5801 H         1 <0>         0.1324
     27 H3         -0.4070    4.3275   -1.5492 H         1 <0>         0.1355
     28 H4         -1.7860    1.8008    1.6141 H         1 <0>         0.1254
     29 H5          0.3609    0.5981    1.5816 H         1 <0>         0.1313
     30 H6         -2.2132    5.7769   -0.7373 H         1 <0>         0.1164
     31 H7         -1.8857    4.4457   -1.8980 H         1 <0>         0.0838
     32 H8         -4.3255    5.6299   -2.1122 H         1 <0>         0.4611
     33 H9         -3.4351    1.9530    1.7184 H         1 <0>         0.1023
     34 H10        -4.5990    3.3192    1.6434 H         1 <0>         0.1240
     35 H11        -5.7690    1.1096    1.7622 H         1 <0>         0.1340
     36 H12        -6.1177    1.9661    0.2221 H         1 <0>         0.1532
     37 H13        -3.9241   -0.1445   -1.7963 H         1 <0>         0.1392
     38 H14        -5.0599    1.2470   -1.8181 H         1 <0>         0.1362
     39 H15        -2.7145    2.0383   -1.9916 H         1 <0>         0.1156
     40 H16        -2.3022    1.1829   -0.4668 H         1 <0>         0.1200
     41 H17        -6.7391   -0.2734   -0.5650 H         1 <0>         0.1399
     42 H18        -5.4560   -1.5149   -0.7626 H         1 <0>         0.1410
     43 H19        -4.7143   -2.8542    1.1580 H         1 <0>         0.1448
     44 H20        -5.3511   -3.7471    3.3890 H         1 <0>         0.1504
     45 H21        -7.1788   -2.6696    4.6397 H         1 <0>         0.1703
     46 H22        -7.7523    0.1113    1.6126 H         1 <0>         0.1624
     47 H23        -3.9863   -0.1148    0.6395 H         1 <0>         0.4344
@<TRIPOS>BOND
     1    1    6 ar
     2    1    2 ar
     3    1   25 1
     4    2    3 ar
     5    2   26 1
     6    3    4 ar
     7    3   27 1
     8    4    5 ar
     9    4    7 1
    10    5    6 ar
    11    5   28 1
    12    6   29 1
    13    7   12 1
    14    7    8 1
    15    8    9 1
    16    8   30 1
    17    8   31 1
    18    9   10 am
    19    9   32 1
    20   10   11 2
    21   10   12 1
    22   12   17 1
    23   12   13 1
    24   13   14 1
    25   13   33 1
    26   13   34 1
    27   14   15 1
    28   14   35 1
    29   14   36 1
    30   15   16 1
    31   15   18 1
    32   15   47 1
    33   16   17 1
    34   16   37 1
    35   16   38 1
    36   17   39 1
    37   17   40 1
    38   18   19 1
    39   18   41 1
    40   18   42 1
    41   19   24 ar
    42   19   20 ar
    43   20   21 ar
    44   20   43 1
    45   21   22 ar
    46   21   44 1
    47   22   23 ar
    48   22   45 1
    49   23   24 ar
    50   24   46 1
@<TRIPOS>MOLECULE
ZINC22454243
   70    72     0     0     0
SMALL
USER_CHARGES

@<TRIPOS>ATOM
      1 C1         -3.2721   -1.8122   -0.8663 C.3       1 <0>        -0.1682
      2 C2         -2.5254   -0.5341   -0.4793 C.3       1 <0>         0.1080
      3 N1         -1.4693   -0.8579    0.4831 N.am      1 <0>        -0.6052
      4 C3         -0.1542   -1.2949    0.0080 C.3       1 <0>         0.0965
      5 C4          0.6666   -0.0749   -0.4147 C.3       1 <0>        -0.1790
      6 C5         -1.7077   -0.7538    1.8055 C.2       1 <0>         0.5549
      7 O1         -2.8134   -0.4399    2.2009 O.2       1 <0>        -0.5290
      8 C6         -0.6242   -1.0212    2.7753 C.ar      1 <0>        -0.1173
      9 C7          0.6436   -0.4714    2.5790 C.ar      1 <0>        -0.0954
     10 C8          1.6501   -0.7244    3.4879 C.ar      1 <0>        -0.1235
     11 C9          1.4051   -1.5217    4.5918 C.ar      1 <0>        -0.0552
     12 C10         0.1508   -2.0701    4.7921 C.ar      1 <0>        -0.0966
     13 C11        -0.8662   -1.8198    3.8940 C.ar      1 <0>        -0.0690
     14 C12         2.5096   -1.7942    5.5803 C.3       1 <0>         0.1748
     15 H1          3.2860   -1.0364    5.4756 H         1 <0>         0.0728
     16 C13         3.0975   -3.1560    5.3137 C.ar      1 <0>        -0.0809
     17 C14         2.3630   -4.2930    5.5964 C.ar      1 <0>        -0.1113
     18 C15         2.8995   -5.5436    5.3530 C.ar      1 <0>        -0.1008
     19 C16         4.1717   -5.6604    4.8269 C.ar      1 <0>        -0.1350
     20 C17         4.9105   -4.5214    4.5425 C.ar      1 <0>         0.1144
     21 C18         4.3674   -3.2672    4.7820 C.ar      1 <0>        -0.1357
     22 O2          6.1621   -4.6336    4.0249 O.3       1 <0>        -0.4985
     23 N2          1.9666   -1.7539    6.9446 N.3       1 <0>        -0.5268
     24 C19         2.8494   -2.4599    7.8840 C.3       1 <0>         0.0237
     25 C20         2.2203   -2.4462    9.2789 C.3       1 <0>         0.0324
     26 H2          1.2577   -2.9566    9.2483 H         1 <0>         0.1446
     27 N3          2.0243   -1.0571    9.7142 N.4       1 <0>        -0.3829
     28 C21         1.1211   -0.3722    8.7801 C.3       1 <0>         0.0017
     29 C22         1.7411   -0.3686    7.3810 C.3       1 <0>         0.0645
     30 H3          2.6916    0.1642    7.4058 H         1 <0>         0.0667
     31 C23         0.7911    0.3263    6.4035 C.3       1 <0>        -0.1641
     32 C24         1.4371   -1.0445   11.0607 C.3       1 <0>         0.0243
     33 C25         1.3494    0.3757   11.5572 C.2       1 <0>        -0.2351
     34 C26         0.2002    0.8593   11.9590 C.2       1 <0>        -0.1052
     35 C27         3.1467   -3.1632   10.2631 C.3       1 <0>        -0.1835
     36 H4         -4.0578   -1.5713   -1.5823 H         1 <0>         0.0705
     37 H5         -2.5744   -2.5185   -1.3164 H         1 <0>         0.0561
     38 H6         -3.7160   -2.2575    0.0241 H         1 <0>         0.0586
     39 H7         -2.0815   -0.0889   -1.3697 H         1 <0>         0.0795
     40 H8         -3.2231    0.1721   -0.0291 H         1 <0>         0.0877
     41 H9          0.3645   -1.8223    0.8086 H         1 <0>         0.0858
     42 H10        -0.2793   -1.9619   -0.8450 H         1 <0>         0.0817
     43 H11         0.3704    0.2326   -1.4175 H         1 <0>         0.0655
     44 H12         0.4881    0.7428    0.2837 H         1 <0>         0.0641
     45 H13         1.7261   -0.3309   -0.4112 H         1 <0>         0.0719
     46 H14         0.8363    0.1505    1.7173 H         1 <0>         0.1430
     47 H15         2.6316   -0.2996    3.3372 H         1 <0>         0.1275
     48 H16        -0.0338   -2.6919    5.6556 H         1 <0>         0.1342
     49 H17        -1.8462   -2.2446    4.0540 H         1 <0>         0.1312
     50 H18         1.3686   -4.2039    6.0084 H         1 <0>         0.1317
     51 H19         2.3238   -6.4301    5.5747 H         1 <0>         0.1319
     52 H20         4.5907   -6.6376    4.6376 H         1 <0>         0.1332
     53 H21         4.9388   -2.3788    4.5569 H         1 <0>         0.1284
     54 H22         6.1878   -4.6518    3.0584 H         1 <0>         0.3977
     55 H23         2.9812   -3.4905    7.5545 H         1 <0>         0.1331
     56 H24         3.8182   -1.9615    7.9170 H         1 <0>         0.0619
     57 H25         0.1642   -0.8933    8.7521 H         1 <0>         0.1367
     58 H26         0.9662    0.6546    9.1114 H         1 <0>         0.1362
     59 H27        -0.1596   -0.2064    6.3800 H         1 <0>         0.0798
     60 H28         0.6241    1.3536    6.7274 H         1 <0>         0.0701
     61 H29         1.2320    0.3268    5.4066 H         1 <0>         0.0908
     62 H30         0.4383   -1.4794   11.0256 H         1 <0>         0.1301
     63 H31         2.0637   -1.6273   11.7358 H         1 <0>         0.1386
     64 H32         2.2341    0.9948   11.5817 H         1 <0>         0.1330
     65 H33        -0.6844    0.2403   11.9344 H         1 <0>         0.1115
     66 H34         0.1374    1.8771   12.3148 H         1 <0>         0.1229
     67 H35         4.1093   -2.6528   10.2936 H         1 <0>         0.0811
     68 H36         2.6986   -3.1535   11.2567 H         1 <0>         0.0863
     69 H37         3.2921   -4.1940    9.9402 H         1 <0>         0.1080
     70 H38         2.9140   -0.5815    9.7313 H         1 <0>         0.4184
@<TRIPOS>BOND
     1    1    2 1
     2    1   36 1
     3    1   37 1
     4    1   38 1
     5    2    3 1
     6    2   39 1
     7    2   40 1
     8    3    4 1
     9    3    6 am
    10    4    5 1
    11    4   41 1
    12    4   42 1
    13    5   43 1
    14    5   44 1
    15    5   45 1
    16    6    7 2
    17    6    8 1
    18    8   13 ar
    19    8    9 ar
    20    9   10 ar
    21    9   46 1
    22   10   11 ar
    23   10   47 1
    24   11   12 ar
    25   11   14 1
    26   12   13 ar
    27   12   48 1
    28   13   49 1
    29   14   15 1
    30   14   16 1
    31   14   23 1
    32   16   21 ar
    33   16   17 ar
    34   17   18 ar
    35   17   50 1
    36   18   19 ar
    37   18   51 1
    38   19   20 ar
    39   19   52 1
    40   20   21 ar
    41   20   22 1
    42   21   53 1
    43   22   54 1
    44   23   29 1
    45   23   24 1
    46   24   25 1
    47   24   55 1
    48   24   56 1
    49   25   26 1
    50   25   27 1
    51   25   35 1
    52   27   28 1
    53   27   32 1
    54   27   70 1
    55   28   29 1
    56   28   57 1
    57   28   58 1
    58   29   30 1
    59   29   31 1
    60   31   59 1
    61   31   60 1
    62   31   61 1
    63   32   33 1
    64   32   62 1
    65   32   63 1
    66   33   34 2
    67   33   64 1
    68   34   65 1
    69   34   66 1
    70   35   67 1
    71   35   68 1
    72   35   69 1
@<TRIPOS>MOLECULE
ZINC22454243
   70    72     0     0     0
SMALL
USER_CHARGES

@<TRIPOS>ATOM
      1 C1         -3.7957   -4.5388    0.0807 C.3       1 <0>        -0.1689
      2 C2         -3.1544   -3.1498    0.0949 C.3       1 <0>         0.1073
      3 N1         -2.1636   -3.0803    1.1718 N.am      1 <0>        -0.6022
      4 C3         -0.7946   -3.5470    0.9388 C.3       1 <0>         0.0929
      5 C4         -0.0239   -2.4906    0.1444 C.3       1 <0>        -0.1805
      6 C5         -2.5115   -2.5871    2.3768 C.2       1 <0>         0.5504
      7 O1         -3.6616   -2.2559    2.5890 O.2       1 <0>        -0.5208
      8 C6         -1.4942   -2.4490    3.4407 C.ar      1 <0>        -0.0966
      9 C7         -0.2346   -1.9269    3.1425 C.ar      1 <0>        -0.0883
     10 C8          0.7100   -1.8001    4.1400 C.ar      1 <0>        -0.0995
     11 C9          0.4110   -2.1897    5.4336 C.ar      1 <0>        -0.0989
     12 C10        -0.8355   -2.7085    5.7358 C.ar      1 <0>        -0.1224
     13 C11        -1.7912   -2.8347    4.7489 C.ar      1 <0>        -0.0537
     14 C12         1.4480   -2.0489    6.5180 C.3       1 <0>         0.1307
     15 H1          2.2618   -1.4169    6.1626 H         1 <0>         0.1520
     16 C13         1.9881   -3.4094    6.8763 C.ar      1 <0>        -0.1123
     17 C14         1.2668   -4.2403    7.7140 C.ar      1 <0>        -0.1350
     18 C15         1.7596   -5.4889    8.0446 C.ar      1 <0>        -0.0827
     19 C16         2.9746   -5.9095    7.5389 C.ar      1 <0>        -0.1210
     20 C17         3.7000   -5.0779    6.6985 C.ar      1 <0>         0.1293
     21 C18         3.2004   -3.8275    6.3633 C.ar      1 <0>        -0.1150
     22 O2          4.8954   -5.4892    6.1998 O.3       1 <0>        -0.4928
     23 N2          0.8354   -1.4371    7.7048 N.4       1 <0>        -0.3820
     24 C19         1.7841   -1.4854    8.8251 C.3       1 <0>        -0.0060
     25 C20         1.1395   -0.8652   10.0667 C.3       1 <0>         0.0612
     26 H2          0.2483   -1.4324   10.3356 H         1 <0>         0.0643
     27 N3          0.7663    0.5267    9.7779 N.3       1 <0>        -0.5312
     28 C21        -0.1641    0.5928    8.6421 C.3       1 <0>         0.0331
     29 C22         0.4912   -0.0394    7.4123 C.3       1 <0>         0.0366
     30 H3          1.3965    0.5123    7.1590 H         1 <0>         0.1457
     31 C23        -0.4828    0.0100    6.2334 C.3       1 <0>        -0.1982
     32 C24         0.1946    1.1756   10.9653 C.3       1 <0>         0.0780
     33 C25         0.0528    2.6542   10.7106 C.2       1 <0>        -0.1650
     34 C26        -1.1111    3.2361   10.8611 C.2       1 <0>        -0.1713
     35 C27         2.1346   -0.8970   11.2284 C.3       1 <0>        -0.1522
     36 H4         -4.5329   -4.5905   -0.7206 H         1 <0>         0.0727
     37 H5         -3.0260   -5.2927   -0.0847 H         1 <0>         0.0568
     38 H6         -4.2850   -4.7229    1.0371 H         1 <0>         0.0589
     39 H7         -2.6651   -2.9657   -0.8615 H         1 <0>         0.0822
     40 H8         -3.9242   -2.3959    0.2602 H         1 <0>         0.0898
     41 H9         -0.3001   -3.7146    1.8955 H         1 <0>         0.0848
     42 H10        -0.8196   -4.4793    0.3745 H         1 <0>         0.0844
     43 H11        -0.3677   -2.4914   -0.8899 H         1 <0>         0.0688
     44 H12        -0.1964   -1.5081    0.5839 H         1 <0>         0.0633
     45 H13         1.0413   -2.7197    0.1735 H         1 <0>         0.0748
     46 H14         0.0002   -1.6231    2.1331 H         1 <0>         0.1542
     47 H15         1.6850   -1.3963    3.9106 H         1 <0>         0.1422
     48 H16        -1.0624   -3.0110    6.7474 H         1 <0>         0.1241
     49 H17        -2.7655   -3.2352    4.9870 H         1 <0>         0.1431
     50 H18         0.3172   -3.9131    8.1109 H         1 <0>         0.1180
     51 H19         1.1944   -6.1360    8.6990 H         1 <0>         0.1410
     52 H20         3.3595   -6.8847    7.7981 H         1 <0>         0.1426
     53 H21         3.7610   -3.1801    5.7053 H         1 <0>         0.1404
     54 H22         4.8296   -5.9564    5.3556 H         1 <0>         0.4032
     55 H23         2.0487   -2.5223    9.0326 H         1 <0>         0.1399
     56 H24         2.6827   -0.9263    8.5646 H         1 <0>         0.1403
     57 H25        -1.0768    0.0497    8.8876 H         1 <0>         0.0587
     58 H26        -0.4061    1.6343    8.4304 H         1 <0>         0.1264
     59 H27        -1.2578   -0.7441    6.3705 H         1 <0>         0.0839
     60 H28        -0.9415    0.9974    6.1823 H         1 <0>         0.1010
     61 H29         0.0572   -0.1881    5.3075 H         1 <0>         0.0991
     62 H30        -0.7854    0.7478   11.1768 H         1 <0>         0.0491
     63 H31         0.8528    1.0156   11.8193 H         1 <0>         0.1015
     64 H32         0.9108    3.2339   10.4038 H         1 <0>         0.1193
     65 H33        -1.9691    2.6564   11.1679 H         1 <0>         0.0969
     66 H34        -1.2127    4.2957   10.6785 H         1 <0>         0.1068
     67 H35         3.0253   -0.3291   10.9595 H         1 <0>         0.0790
     68 H36         1.6752   -0.4552   12.1126 H         1 <0>         0.0800
     69 H37         2.4124   -1.9294   11.4407 H         1 <0>         0.0756
     70 H38        -0.0012   -1.9448    7.9508 H         1 <0>         0.4126
@<TRIPOS>BOND
     1    1    2 1
     2    1   36 1
     3    1   37 1
     4    1   38 1
     5    2    3 1
     6    2   39 1
     7    2   40 1
     8    3    4 1
     9    3    6 am
    10    4    5 1
    11    4   41 1
    12    4   42 1
    13    5   43 1
    14    5   44 1
    15    5   45 1
    16    6    7 2
    17    6    8 1
    18    8   13 ar
    19    8    9 ar
    20    9   10 ar
    21    9   46 1
    22   10   11 ar
    23   10   47 1
    24   11   12 ar
    25   11   14 1
    26   12   13 ar
    27   12   48 1
    28   13   49 1
    29   14   15 1
    30   14   16 1
    31   14   23 1
    32   16   21 ar
    33   16   17 ar
    34   17   18 ar
    35   17   50 1
    36   18   19 ar
    37   18   51 1
    38   19   20 ar
    39   19   52 1
    40   20   21 ar
    41   20   22 1
    42   21   53 1
    43   22   54 1
    44   23   29 1
    45   23   24 1
    46   23   70 1
    47   24   25 1
    48   24   55 1
    49   24   56 1
    50   25   26 1
    51   25   27 1
    52   25   35 1
    53   27   28 1
    54   27   32 1
    55   28   29 1
    56   28   57 1
    57   28   58 1
    58   29   30 1
    59   29   31 1
    60   31   59 1
    61   31   60 1
    62   31   61 1
    63   32   33 1
    64   32   62 1
    65   32   63 1
    66   33   34 2
    67   33   64 1
    68   34   65 1
    69   34   66 1
    70   35   67 1
    71   35   68 1
    72   35   69 1
@<TRIPOS>MOLECULE
ZINC22454243
   69    71     0     0     0
SMALL
USER_CHARGES

@<TRIPOS>ATOM
      1 C1         -1.6361    0.7400   -0.4048 C.3       1 <0>        -0.1678
      2 C2         -0.4795   -0.2224   -0.1279 C.3       1 <0>         0.1108
      3 N1          0.4432   -0.2172   -1.2658 N.am      1 <0>        -0.6082
      4 C3          1.5612    0.7290   -1.2981 C.3       1 <0>         0.0925
      5 C4          2.6581    0.2551   -0.3424 C.3       1 <0>        -0.1780
      6 C5          0.2635   -1.0829   -2.2831 C.2       1 <0>         0.5592
      7 O1         -0.6961   -1.8290   -2.2839 O.2       1 <0>        -0.5319
      8 C6          1.2336   -1.1251   -3.3980 C.ar      1 <0>        -0.1322
      9 C7          2.6016   -1.0221   -3.1410 C.ar      1 <0>        -0.0992
     10 C8          3.5016   -1.0626   -4.1859 C.ar      1 <0>        -0.1277
     11 C9          3.0506   -1.2045   -5.4862 C.ar      1 <0>        -0.0354
     12 C10         1.6958   -1.3067   -5.7478 C.ar      1 <0>        -0.0943
     13 C11         0.7857   -1.2739   -4.7115 C.ar      1 <0>        -0.0670
     14 C12         4.0394   -1.2475   -6.6226 C.3       1 <0>         0.1636
     15 H1          5.0218   -1.5231   -6.2392 H         1 <0>         0.0640
     16 C13         4.1166    0.1097   -7.2730 C.ar      1 <0>        -0.0647
     17 C14         3.0645    0.5664   -8.0456 C.ar      1 <0>        -0.1032
     18 C15         3.1322    1.8110   -8.6435 C.ar      1 <0>        -0.1050
     19 C16         4.2520    2.6017   -8.4708 C.ar      1 <0>        -0.1414
     20 C17         5.3087    2.1459   -7.6963 C.ar      1 <0>         0.1062
     21 C18         5.2357    0.8989   -7.0922 C.ar      1 <0>        -0.1362
     22 O2          6.4112    2.9218   -7.5248 O.3       1 <0>        -0.4990
     23 N2          3.6040   -2.2411   -7.6132 N.3       1 <0>        -0.5248
     24 C19         4.2086   -1.9758   -8.9261 C.3       1 <0>         0.0559
     25 C20         3.6696   -2.9819   -9.9457 C.3       1 <0>         0.0851
     26 H2          2.5899   -2.8638  -10.0373 H         1 <0>         0.0496
     27 N3          3.9770   -4.3460   -9.4936 N.3       1 <0>        -0.5331
     28 C21         3.3724   -4.6113   -8.1807 C.3       1 <0>         0.0659
     29 C22         3.9114   -3.6052   -7.1611 C.3       1 <0>         0.0883
     30 H3          4.9911   -3.7233   -7.0695 H         1 <0>         0.0512
     31 C23         3.2532   -3.8531   -5.8023 C.3       1 <0>        -0.1582
     32 C24         3.5416   -5.3396  -10.4841 C.3       1 <0>         0.0755
     33 C25         4.0858   -6.6941  -10.1097 C.2       1 <0>        -0.1452
     34 C26         3.2716   -7.7102   -9.9662 C.2       1 <0>        -0.1906
     35 C27         4.3274   -2.7337  -11.3046 C.3       1 <0>        -0.1494
     36 H4         -1.2443    1.7467   -0.5503 H         1 <0>         0.0550
     37 H5         -2.1655    0.4229   -1.3033 H         1 <0>         0.0597
     38 H6         -2.3226    0.7362    0.4418 H         1 <0>         0.0673
     39 H7          0.0500    0.0947    0.7706 H         1 <0>         0.0779
     40 H8         -0.8713   -1.2291    0.0175 H         1 <0>         0.0839
     41 H9          1.9608    0.7849   -2.3106 H         1 <0>         0.0934
     42 H10         1.2120    1.7146   -0.9903 H         1 <0>         0.0765
     43 H11         3.5738    0.8143   -0.5345 H         1 <0>         0.0720
     44 H12         2.3400    0.4212    0.6868 H         1 <0>         0.0627
     45 H13         2.8419   -0.8078   -0.4988 H         1 <0>         0.0643
     46 H14         2.9549   -0.9105   -2.1265 H         1 <0>         0.1392
     47 H15         4.5604   -0.9830   -3.9885 H         1 <0>         0.1255
     48 H16         1.3503   -1.4170   -6.7651 H         1 <0>         0.1358
     49 H17        -0.2713   -1.3586   -4.9166 H         1 <0>         0.1287
     50 H18         2.1886   -0.0505   -8.1824 H         1 <0>         0.1318
     51 H19         2.3093    2.1654   -9.2465 H         1 <0>         0.1283
     52 H20         4.3048    3.5736   -8.9387 H         1 <0>         0.1282
     53 H21         6.0550    0.5437   -6.4848 H         1 <0>         0.1265
     54 H22         6.3626    3.5105   -6.7593 H         1 <0>         0.3911
     55 H23         3.9564   -0.9644   -9.2449 H         1 <0>         0.0923
     56 H24         5.2917   -2.0754   -8.8545 H         1 <0>         0.0436
     57 H25         2.2893   -4.5117   -8.2523 H         1 <0>         0.0425
     58 H26         3.6246   -5.6227   -7.8619 H         1 <0>         0.0817
     59 H27         2.1735   -3.7358   -5.8948 H         1 <0>         0.0666
     60 H28         3.4814   -4.8649   -5.4672 H         1 <0>         0.0579
     61 H29         3.6359   -3.1351   -5.0769 H         1 <0>         0.0704
     62 H30         2.4525   -5.3787  -10.5051 H         1 <0>         0.0381
     63 H31         3.9140   -5.0580  -11.4691 H         1 <0>         0.0894
     64 H32         5.1470   -6.8270   -9.9596 H         1 <0>         0.1132
     65 H33         2.2104   -7.5773  -10.1162 H         1 <0>         0.0940
     66 H34         3.6616   -8.6809   -9.6978 H         1 <0>         0.0995
     67 H35         5.4070   -2.8526  -11.2128 H         1 <0>         0.0645
     68 H36         3.9433   -3.4504  -12.0305 H         1 <0>         0.0608
     69 H37         4.1005   -1.7212  -11.6386 H         1 <0>         0.0625
@<TRIPOS>BOND
     1    1    2 1
     2    1   36 1
     3    1   37 1
     4    1   38 1
     5    2    3 1
     6    2   39 1
     7    2   40 1
     8    3    4 1
     9    3    6 am
    10    4    5 1
    11    4   41 1
    12    4   42 1
    13    5   43 1
    14    5   44 1
    15    5   45 1
    16    6    7 2
    17    6    8 1
    18    8   13 ar
    19    8    9 ar
    20    9   10 ar
    21    9   46 1
    22   10   11 ar
    23   10   47 1
    24   11   12 ar
    25   11   14 1
    26   12   13 ar
    27   12   48 1
    28   13   49 1
    29   14   15 1
    30   14   16 1
    31   14   23 1
    32   16   21 ar
    33   16   17 ar
    34   17   18 ar
    35   17   50 1
    36   18   19 ar
    37   18   51 1
    38   19   20 ar
    39   19   52 1
    40   20   21 ar
    41   20   22 1
    42   21   53 1
    43   22   54 1
    44   23   29 1
    45   23   24 1
    46   24   25 1
    47   24   55 1
    48   24   56 1
    49   25   26 1
    50   25   27 1
    51   25   35 1
    52   27   28 1
    53   27   32 1
    54   28   29 1
    55   28   57 1
    56   28   58 1
    57   29   30 1
    58   29   31 1
    59   31   59 1
    60   31   60 1
    61   31   61 1
    62   32   33 1
    63   32   62 1
    64   32   63 1
    65   33   34 2
    66   33   64 1
    67   34   65 1
    68   34   66 1
    69   35   67 1
    70   35   68 1
    71   35   69 1
@<TRIPOS>MOLECULE
ZINC03802417
   63    65     0     0     0
SMALL
USER_CHARGES
2-[2-benzyl-3-[4-(3-hydroxyphenyl)-3,4-dimethyl-1-piperidyl]-propanoyl]aminoacetic acid
@<TRIPOS>ATOM
      1 C1          7.1065    1.2095    0.1366 C.3       1 <0>        -0.1689
      2 C2          6.3271    1.1352    1.4511 C.3       1 <0>        -0.1017
      3 H1          6.9196    0.6040    2.1959 H         1 <0>         0.1196
      4 C3          6.0292    2.5513    1.9491 C.3       1 <0>        -0.0012
      5 C4          3.9221    2.5906    0.7528 C.3       1 <0>        -0.0116
      6 C5          4.1572    1.1757    0.2190 C.3       1 <0>        -0.1423
      7 C6          5.0082    0.3919    1.2220 C.3       1 <0>        -0.0202
      8 C7          4.2528    0.2681    2.5468 C.3       1 <0>        -0.1541
      9 C8          5.2934   -0.9829    0.6746 C.ar      1 <0>        -0.0614
     10 C9          4.8705   -1.3212   -0.5978 C.ar      1 <0>        -0.1314
     11 C10         5.1347   -2.5799   -1.1047 C.ar      1 <0>        -0.0948
     12 C11         5.8132   -3.5067   -0.3368 C.ar      1 <0>        -0.1422
     13 C12         6.2338   -3.1716    0.9418 C.ar      1 <0>         0.1145
     14 C13         5.9720   -1.9058    1.4463 C.ar      1 <0>        -0.1396
     15 O1          6.9017   -4.0813    1.6989 O.3       1 <0>        -0.4989
     16 C14         5.0241    4.6661    1.3345 C.3       1 <0>         0.0123
     17 C15         4.5861    5.4709    0.1092 C.3       1 <0>        -0.1348
     18 H2          3.6841    5.0278   -0.3131 H         1 <0>         0.1117
     19 C16         5.7014    5.4532   -0.9379 C.3       1 <0>        -0.0713
     20 C17         5.2321    6.1595   -2.1837 C.ar      1 <0>        -0.1129
     21 C18         4.4933    5.4742   -3.1300 C.ar      1 <0>        -0.1181
     22 C19         4.0587    6.1233   -4.2704 C.ar      1 <0>        -0.1143
     23 C20         4.3718    7.4550   -4.4696 C.ar      1 <0>        -0.0989
     24 C21         5.1150    8.1388   -3.5258 C.ar      1 <0>        -0.1021
     25 C22         5.5452    7.4911   -2.3828 C.ar      1 <0>        -0.0948
     26 C23         4.3030    6.8936    0.5177 C.2       1 <0>         0.5139
     27 O2          4.8728    7.3748    1.4741 O.2       1 <0>        -0.5506
     28 N1          3.4166    7.6313   -0.1799 N.am      1 <0>        -0.6791
     29 C24         3.2179    9.0444    0.1517 C.3       1 <0>         0.0730
     30 C25         2.0965    9.6039   -0.6853 C.2       1 <0>         0.4575
     31 O3          1.5843    8.9230   -1.5419 O.co2     1 <0>        -0.6322
     32 H3          6.5528    1.8157   -0.5804 H         1 <0>         0.0492
     33 H4          8.0819    1.6611    0.3175 H         1 <0>         0.0760
     34 H5          7.2401    0.2046   -0.2639 H         1 <0>         0.0866
     35 H6          6.9659    3.0880    2.0995 H         1 <0>         0.1326
     36 H7          5.4860    2.4977    2.8926 H         1 <0>         0.1353
     37 H8          3.3888    2.5368    1.7019 H         1 <0>         0.1358
     38 H9          3.3285    3.1558    0.0343 H         1 <0>         0.1324
     39 H10         3.1991    0.6738    0.0842 H         1 <0>         0.1169
     40 H11         4.6777    1.2293   -0.7371 H         1 <0>         0.0944
     41 H12         3.3120   -0.2567    2.3809 H         1 <0>         0.0735
     42 H13         4.8593   -0.2899    3.2601 H         1 <0>         0.0719
     43 H14         4.0490    1.2629    2.9431 H         1 <0>         0.0606
     44 H15         4.3364   -0.5995   -1.1981 H         1 <0>         0.1285
     45 H16         4.8070   -2.8404   -2.1003 H         1 <0>         0.1309
     46 H17         6.0155   -4.4914   -0.7316 H         1 <0>         0.1315
     47 H18         6.2982   -1.6426    2.4416 H         1 <0>         0.1286
     48 H19         6.3279   -4.6342    2.2467 H         1 <0>         0.3957
     49 H20         5.9619    5.0686    1.7173 H         1 <0>         0.1440
     50 H21         4.2576    4.7337    2.1066 H         1 <0>         0.1394
     51 H22         6.5803    5.9616   -0.5413 H         1 <0>         0.0951
     52 H23         5.9566    4.4214   -1.1795 H         1 <0>         0.0687
     53 H24         4.2524    4.4326   -2.9765 H         1 <0>         0.1146
     54 H25         3.4783    5.5889   -5.0080 H         1 <0>         0.1235
     55 H26         4.0360    7.9609   -5.3627 H         1 <0>         0.1252
     56 H27         5.3600    9.1791   -3.6815 H         1 <0>         0.1254
     57 H28         6.1262    8.0253   -1.6456 H         1 <0>         0.1187
     58 H29         2.9103    7.2267   -0.9016 H         1 <0>         0.4101
     59 H30         4.1345    9.5979   -0.0523 H         1 <0>         0.0745
     60 H31         2.9645    9.1376    1.2077 H         1 <0>         0.0792
     61 N2          5.2283    3.2603    0.9284 N.4       1 <0>        -0.3969
     62 H32         5.7348    3.2414    0.0355 H         1 <0>         0.4206
     63 O4          1.6667   10.8587   -0.4791 O.co2     1 <0>        -0.7473
@<TRIPOS>BOND
     1    1    2 1
     2    1   32 1
     3    1   33 1
     4    1   34 1
     5    2    3 1
     6    2    7 1
     7    2    4 1
     8    4   35 1
     9    4   36 1
    10    4   61 1
    11    5    6 1
    12    5   37 1
    13    5   38 1
    14    5   61 1
    15    6    7 1
    16    6   39 1
    17    6   40 1
    18    7    8 1
    19    7    9 1
    20    8   41 1
    21    8   42 1
    22    8   43 1
    23    9   14 ar
    24    9   10 ar
    25   10   11 ar
    26   10   44 1
    27   11   12 ar
    28   11   45 1
    29   12   13 ar
    30   12   46 1
    31   13   14 ar
    32   13   15 1
    33   14   47 1
    34   15   48 1
    35   16   17 1
    36   16   49 1
    37   16   50 1
    38   16   61 1
    39   17   18 1
    40   17   19 1
    41   17   26 1
    42   19   20 1
    43   19   51 1
    44   19   52 1
    45   20   25 ar
    46   20   21 ar
    47   21   22 ar
    48   21   53 1
    49   22   23 ar
    50   22   54 1
    51   23   24 ar
    52   23   55 1
    53   24   25 ar
    54   24   56 1
    55   25   57 1
    56   26   27 2
    57   26   28 am
    58   28   29 1
    59   28   58 1
    60   29   30 1
    61   29   59 1
    62   29   60 1
    63   30   31 2
    64   30   63 1
    65   61   62 1
@<TRIPOS>MOLECULE
ZINC22779605
   43    44     0     0     0
SMALL
USER_CHARGES
[(2S,4R)-1,2-dimethyl-4-phenyl-4-piperidyl] propanoate
@<TRIPOS>ATOM
      1 C1         -1.7088    6.1073   -3.0587 C.3       1 <0>        -0.1492
      2 C2         -0.8714    5.4079   -1.9861 C.3       1 <0>        -0.1197
      3 C3         -1.1624    3.9294   -2.0064 C.2       1 <0>         0.4546
      4 O1         -1.9580    3.4810   -2.7975 O.2       1 <0>        -0.4766
      5 O2         -0.5377    3.1105   -1.1455 O.3       1 <0>        -0.3530
      6 C4         -0.9518    1.7188   -1.1410 C.3       1 <0>         0.1666
      7 C5         -2.4434    1.6284   -0.8070 C.3       1 <0>        -0.1782
      8 C6         -2.6815    2.1877    0.5975 C.3       1 <0>        -0.0011
      9 N1         -1.8960    1.4190    1.5714 N.4       1 <0>        -0.4006
     10 C7         -0.4564    1.5293    1.2993 C.3       1 <0>         0.0349
     11 H1         -0.1983    2.5979    1.3367 H         1 <0>         0.1387
     12 C8         -0.1528    0.9507   -0.0846 C.3       1 <0>        -0.1240
     13 C9          0.3254    0.7514    2.3598 C.3       1 <0>        -0.1848
     14 C10        -2.2054    1.8377    2.9451 C.3       1 <0>        -0.0517
     15 C11        -0.7022    1.1148   -2.4989 C.ar      1 <0>        -0.1118
     16 C12        -1.3217   -0.0692   -2.8531 C.ar      1 <0>        -0.1096
     17 C13        -1.0966   -0.6207   -4.1005 C.ar      1 <0>        -0.1121
     18 C14        -0.2438    0.0061   -4.9897 C.ar      1 <0>        -0.1040
     19 C15         0.3798    1.1873   -4.6335 C.ar      1 <0>        -0.1094
     20 C16         0.1505    1.7416   -3.3881 C.ar      1 <0>        -0.0969
     21 H2         -1.4964    7.1865   -3.0438 H         1 <0>         0.0773
     22 H3         -2.7771    5.9410   -2.8560 H         1 <0>         0.0654
     23 H4         -1.4549    5.6972   -4.0473 H         1 <0>         0.0682
     24 H5          0.1969    5.5742   -2.1888 H         1 <0>         0.1105
     25 H6         -1.1252    5.8180   -0.9975 H         1 <0>         0.1063
     26 H7         -3.0192    2.2136   -1.5391 H         1 <0>         0.1367
     27 H8         -2.7644    0.5769   -0.8442 H         1 <0>         0.1087
     28 H9         -2.3727    3.2430    0.6291 H         1 <0>         0.1250
     29 H10        -3.7502    2.1108    0.8465 H         1 <0>         0.1381
     30 H11        -0.4376   -0.1115   -0.1101 H         1 <0>         0.1126
     31 H12         0.9223    1.0472   -0.2962 H         1 <0>         0.1253
     32 H13         1.4030    0.8345    2.1553 H         1 <0>         0.1076
     33 H14         0.0275   -0.3071    2.3320 H         1 <0>         0.0835
     34 H15         0.1077    1.1676    3.3545 H         1 <0>         0.0862
     35 H16        -1.6046    1.2473    3.6525 H         1 <0>         0.1292
     36 H17        -3.2744    1.6741    3.1463 H         1 <0>         0.1254
     37 H18        -1.9689    2.9053    3.0651 H         1 <0>         0.1194
     38 H19        -1.9845   -0.5612   -2.1567 H         1 <0>         0.1201
     39 H20        -1.5835   -1.5438   -4.3787 H         1 <0>         0.1293
     40 H21        -0.0645   -0.4271   -5.9626 H         1 <0>         0.1295
     41 H22         1.0463    1.6768   -5.3281 H         1 <0>         0.1282
     42 H23         0.6380    2.6642   -3.1097 H         1 <0>         0.1168
     43 H24        -2.1771    0.3606    1.4673 H         1 <0>         0.4385
@<TRIPOS>BOND
     1    1    2 1
     2    1   21 1
     3    1   22 1
     4    1   23 1
     5    2    3 1
     6    2   24 1
     7    2   25 1
     8    3    4 2
     9    3    5 1
    10    5    6 1
    11    6   12 1
    12    6    7 1
    13    6   15 1
    14    7    8 1
    15    7   26 1
    16    7   27 1
    17    8    9 1
    18    8   28 1
    19    8   29 1
    20    9   10 1
    21    9   14 1
    22    9   43 1
    23   10   11 1
    24   10   12 1
    25   10   13 1
    26   12   30 1
    27   12   31 1
    28   13   32 1
    29   13   33 1
    30   13   34 1
    31   14   35 1
    32   14   36 1
    33   14   37 1
    34   15   20 ar
    35   15   16 ar
    36   16   17 ar
    37   16   38 1
    38   17   18 ar
    39   17   39 1
    40   18   19 ar
    41   18   40 1
    42   19   20 ar
    43   19   41 1
    44   20   42 1
@<TRIPOS>MOLECULE
ZINC04102215
   67    73     0     0     0
SMALL
USER_CHARGES
cyclopropylmethyl-(1-hydroxy-1-methyl-ethyl)-methoxy-BLAHol
@<TRIPOS>ATOM
      1 C1          4.8147    3.3558   -3.7256 C.3       1 <0>        -0.1825
      2 C2          4.1110    2.0584   -3.3227 C.3       1 <0>         0.1398
      3 C3          5.0338    0.8701   -3.6006 C.3       1 <0>        -0.1376
      4 C4          3.7728    2.1036   -1.8312 C.3       1 <0>        -0.0918
      5 H1          4.6803    2.3107   -1.2641 H         1 <0>         0.0965
      6 C5          2.7528    3.2207   -1.5780 C.3       1 <0>        -0.1171
      7 C6          1.4952    2.6165   -0.9739 C.3       1 <0>        -0.0644
      8 C7          0.9098    1.5865   -1.9500 C.3       1 <0>        -0.1040
      9 C8          1.9235    0.4606   -2.1808 C.3       1 <0>        -0.1586
     10 C9          3.2070    0.7456   -1.4003 C.3       1 <0>         0.1278
     11 C10         2.9012    0.7796    0.0986 C.3       1 <0>         0.0764
     12 H2          3.8088    0.9608    0.6743 H         1 <0>         0.1199
     13 C11         1.8726    1.8879    0.3382 C.3       1 <0>        -0.0466
     14 C12         2.2694    2.8303    1.4276 C.3       1 <0>        -0.1242
     15 C13         1.2487    3.9550    1.6061 C.3       1 <0>        -0.0081
     16 C14         0.4230    3.6437   -0.6278 C.3       1 <0>         0.0608
     17 H3          0.1085    4.1596   -1.5350 H         1 <0>         0.1482
     18 C15        -0.8036    3.0570    0.0762 C.3       1 <0>        -0.0929
     19 C16        -0.6531    1.6424    0.5260 C.ar      1 <0>        -0.0526
     20 C17         0.6191    1.1116    0.6169 C.ar      1 <0>        -0.1786
     21 C18         0.9426   -0.2158    0.7980 C.ar      1 <0>         0.1122
     22 C19        -0.1034   -1.0923    1.1209 C.ar      1 <0>         0.1042
     23 C20        -1.3898   -0.5569    1.1355 C.ar      1 <0>        -0.1008
     24 C21        -1.6762    0.7643    0.8258 C.ar      1 <0>        -0.1169
     25 O1          0.1266   -2.4020    1.4058 O.3       1 <0>        -0.4800
     26 O2          2.2482   -0.4247    0.5392 O.3       1 <0>        -0.2689
     27 C22         0.1607    5.7985    0.4683 C.3       1 <0>         0.0271
     28 C23         0.6803    6.6611    1.6202 C.3       1 <0>        -0.2111
     29 C24        -0.2281    6.8332    2.8393 C.3       1 <0>        -0.1678
     30 C25        -0.0172    7.9997    1.8708 C.3       1 <0>        -0.1481
     31 O3          4.1667   -0.2786   -1.6689 O.3       1 <0>        -0.3556
     32 C26         3.7369   -1.5897   -1.2971 C.3       1 <0>         0.0156
     33 O4          2.9076    1.9143   -4.0798 O.3       1 <0>        -0.5436
     34 H4          5.7326    3.4657   -3.1481 H         1 <0>         0.0698
     35 H5          5.0556    3.3236   -4.7882 H         1 <0>         0.0729
     36 H6          4.1573    4.2024   -3.5276 H         1 <0>         0.0539
     37 H7          4.4576   -0.0543   -3.5616 H         1 <0>         0.0876
     38 H8          5.4790    0.9793   -4.5895 H         1 <0>         0.0553
     39 H9          5.8223    0.8387   -2.8487 H         1 <0>         0.0733
     40 H10         3.1750    3.9503   -0.8870 H         1 <0>         0.0689
     41 H11         2.5059    3.7096   -2.5205 H         1 <0>         0.0909
     42 H12        -0.0052    1.1682   -1.5306 H         1 <0>         0.0845
     43 H13         0.6848    2.0730   -2.8991 H         1 <0>         0.0793
     44 H14         2.1543    0.3957   -3.2441 H         1 <0>         0.1226
     45 H15         1.5004   -0.4868   -1.8467 H         1 <0>         0.0690
     46 H16         3.2396    3.2651    1.1876 H         1 <0>         0.0961
     47 H17         2.3507    2.2722    2.3604 H         1 <0>         0.1157
     48 H18         1.6287    4.6800    2.3260 H         1 <0>         0.1397
     49 H19         0.3090    3.5394    1.9700 H         1 <0>         0.1364
     50 H20        -1.0140    3.6580    0.9609 H         1 <0>         0.0999
     51 H21        -1.6562    3.1289   -0.5990 H         1 <0>         0.1183
     52 H22        -2.2097   -1.2072    1.4025 H         1 <0>         0.1407
     53 H23        -2.7005    1.1067    0.8187 H         1 <0>         0.1367
     54 H24         0.2874   -2.5783    2.3429 H         1 <0>         0.3974
     55 H25         0.1692    6.3801   -0.4536 H         1 <0>         0.1342
     56 H26        -0.8578    5.4771    0.6858 H         1 <0>         0.1305
     57 H27         1.7549    6.6129    1.7961 H         1 <0>         0.1245
     58 H28        -1.1958    6.3319    2.8207 H         1 <0>         0.1056
     59 H29         0.2490    6.8986    3.8172 H         1 <0>         0.1102
     60 H30         0.5985    8.8319    2.2119 H         1 <0>         0.1125
     61 H31        -0.8459    8.2659    1.2147 H         1 <0>         0.1079
     62 H32         4.5207   -2.3095   -1.5330 H         1 <0>         0.0888
     63 H33         3.5307   -1.6147   -0.2271 H         1 <0>         0.0644
     64 H34         2.8314   -1.8450   -1.8477 H         1 <0>         0.0457
     65 H35         2.2743    2.6338   -3.9525 H         1 <0>         0.3630
     66 N1          1.0397    4.6104    0.3036 N.4       1 <0>        -0.3972
     67 H36         1.9455    4.9130   -0.0734 H         1 <0>         0.4243
@<TRIPOS>BOND
     1    1    2 1
     2    1   34 1
     3    1   35 1
     4    1   36 1
     5    2    3 1
     6    2    4 1
     7    2   33 1
     8    3   37 1
     9    3   38 1
    10    3   39 1
    11    4    5 1
    12    4   10 1
    13    4    6 1
    14    6    7 1
    15    6   40 1
    16    6   41 1
    17    7   13 1
    18    7   16 1
    19    7    8 1
    20    8    9 1
    21    8   42 1
    22    8   43 1
    23    9   10 1
    24    9   44 1
    25    9   45 1
    26   10   11 1
    27   10   31 1
    28   11   12 1
    29   11   26 1
    30   11   13 1
    31   13   20 1
    32   13   14 1
    33   14   15 1
    34   14   46 1
    35   14   47 1
    36   15   48 1
    37   15   49 1
    38   15   66 1
    39   16   17 1
    40   16   18 1
    41   16   66 1
    42   18   19 1
    43   18   50 1
    44   18   51 1
    45   19   24 ar
    46   19   20 ar
    47   20   21 ar
    48   21   22 ar
    49   21   26 1
    50   22   23 ar
    51   22   25 1
    52   23   24 ar
    53   23   52 1
    54   24   53 1
    55   25   54 1
    56   27   28 1
    57   27   55 1
    58   27   56 1
    59   27   66 1
    60   28   30 1
    61   28   29 1
    62   28   57 1
    63   29   30 1
    64   29   58 1
    65   29   59 1
    66   30   60 1
    67   30   61 1
    68   31   32 1
    69   32   62 1
    70   32   63 1
    71   32   64 1
    72   33   65 1
    73   66   67 1
@<TRIPOS>MOLECULE
ZINC05561290
   64    69     0     0     0
SMALL
USER_CHARGES
(1-hydroxy-1-methyl-butyl)-methoxy-methyl-BLAHol
@<TRIPOS>ATOM
      1 C1         -1.8728   -0.2831   -1.2025 C.3       1 <0>        -0.1541
      2 C2         -0.6848    0.6793   -1.2582 C.3       1 <0>        -0.1239
      3 C3          0.0983    0.5993    0.0538 C.3       1 <0>        -0.1541
      4 C4          1.2864    1.5618   -0.0018 C.3       1 <0>         0.1447
      5 C5          2.1134    1.2790   -1.2576 C.3       1 <0>        -0.1484
      6 C6          2.1599    1.3660    1.2390 C.3       1 <0>        -0.0878
      7 H1          2.4452    0.3170    1.3175 H         1 <0>         0.0972
      8 C7          3.4237    2.2284    1.1121 C.3       1 <0>        -0.1123
      9 C8          3.4807    3.1961    2.2845 C.3       1 <0>        -0.0357
     10 C9          2.1982    4.0134    2.2942 C.2       1 <0>        -0.1301
     11 C10         1.1012    3.2642    2.4075 C.2       1 <0>        -0.1567
     12 C11         1.3632    1.7683    2.4908 C.3       1 <0>         0.1410
     13 C12         2.2435    1.5017    3.7211 C.3       1 <0>         0.0813
     14 H2          2.5135    0.4485    3.7978 H         1 <0>         0.1268
     15 C13         3.4897    2.3807    3.5902 C.3       1 <0>        -0.0503
     16 C14         4.7776    1.6202    3.7697 C.3       1 <0>        -0.1227
     17 C15         5.9891    2.5376    3.5870 C.3       1 <0>        -0.0073
     18 C16         4.6958    4.1035    2.2915 C.3       1 <0>         0.0694
     19 H3          4.6973    4.7136    1.3882 H         1 <0>         0.1496
     20 C17         4.8114    5.0106    3.5172 C.3       1 <0>        -0.0920
     21 C18         3.8736    4.6793    4.6284 C.ar      1 <0>        -0.0484
     22 C19         3.2489    3.4471    4.6166 C.ar      1 <0>        -0.1771
     23 C20         2.1629    3.0874    5.3910 C.ar      1 <0>         0.1137
     24 C21         1.8394    3.9224    6.4701 C.ar      1 <0>         0.1018
     25 C22         2.5576    5.1103    6.5859 C.ar      1 <0>        -0.0988
     26 C23         3.5306    5.5060    5.6806 C.ar      1 <0>        -0.1176
     27 O1          0.8695    3.5877    7.3627 O.3       1 <0>        -0.4810
     28 O2          1.5991    1.9577    4.9246 O.3       1 <0>        -0.2691
     29 C24         7.1136    4.0140    2.0286 C.3       1 <0>        -0.0474
     30 O3          0.1420    1.0307    2.5727 O.3       1 <0>        -0.3502
     31 C25        -0.6552    1.3514    3.7145 C.3       1 <0>         0.0146
     32 O4          0.8077    2.9077   -0.0399 O.3       1 <0>        -0.5497
     33 H4         -1.5097   -1.3006   -1.0576 H         1 <0>         0.0530
     34 H5         -2.5245   -0.0084   -0.3731 H         1 <0>         0.0534
     35 H6         -2.4307   -0.2261   -2.1372 H         1 <0>         0.0550
     36 H7         -1.0479    1.6968   -1.4031 H         1 <0>         0.0635
     37 H8         -0.0331    0.4046   -2.0876 H         1 <0>         0.0618
     38 H9          0.4615   -0.4182    0.1987 H         1 <0>         0.0685
     39 H10        -0.5533    0.8741    0.8832 H         1 <0>         0.1007
     40 H11         2.9775    1.9430   -1.2807 H         1 <0>         0.0589
     41 H12         2.4517    0.2429   -1.2441 H         1 <0>         0.0705
     42 H13         1.5003    1.4495   -2.1425 H         1 <0>         0.0753
     43 H14         4.3054    1.5877    1.1245 H         1 <0>         0.0664
     44 H15         3.3917    2.7872    0.1767 H         1 <0>         0.1068
     45 H16         2.1782    5.0905    2.2173 H         1 <0>         0.1389
     46 H17         0.1072    3.6854    2.4380 H         1 <0>         0.1380
     47 H18         4.8025    1.1901    4.7710 H         1 <0>         0.1173
     48 H19         4.8237    0.8164    3.0350 H         1 <0>         0.0982
     49 H20         6.9018    1.9423    3.6146 H         1 <0>         0.1375
     50 H21         6.0122    3.2718    4.3923 H         1 <0>         0.1357
     51 H22         4.6259    6.0381    3.2044 H         1 <0>         0.1187
     52 H23         5.8312    4.9487    3.8969 H         1 <0>         0.1007
     53 H24         2.3451    5.7572    7.4241 H         1 <0>         0.1406
     54 H25         4.0209    6.4610    5.7984 H         1 <0>         0.1366
     55 H26         1.1904    3.0790    8.1199 H         1 <0>         0.3971
     56 H27         7.2319    4.7750    2.8000 H         1 <0>         0.1241
     57 H28         7.9794    3.3519    2.0356 H         1 <0>         0.1266
     58 H29         7.0316    4.4946    1.0537 H         1 <0>         0.1267
     59 H30        -0.9191    2.4087    3.6880 H         1 <0>         0.0452
     60 H31        -1.5640    0.7497    3.7037 H         1 <0>         0.0918
     61 H32        -0.0906    1.1406    4.6227 H         1 <0>         0.0692
     62 H33         0.0862    3.0861    0.5788 H         1 <0>         0.3749
     63 N1          5.8894    3.2182    2.2849 N.4       1 <0>        -0.4038
     64 H34         5.7858    2.5158    1.5432 H         1 <0>         0.4271
@<TRIPOS>BOND
     1    1    2 1
     2    1   33 1
     3    1   34 1
     4    1   35 1
     5    2    3 1
     6    2   36 1
     7    2   37 1
     8    3    4 1
     9    3   38 1
    10    3   39 1
    11    4    5 1
    12    4    6 1
    13    4   32 1
    14    5   40 1
    15    5   41 1
    16    5   42 1
    17    6    7 1
    18    6   12 1
    19    6    8 1
    20    8    9 1
    21    8   43 1
    22    8   44 1
    23    9   15 1
    24    9   18 1
    25    9   10 1
    26   10   11 2
    27   10   45 1
    28   11   12 1
    29   11   46 1
    30   12   13 1
    31   12   30 1
    32   13   14 1
    33   13   28 1
    34   13   15 1
    35   15   22 1
    36   15   16 1
    37   16   17 1
    38   16   47 1
    39   16   48 1
    40   17   49 1
    41   17   50 1
    42   17   63 1
    43   18   19 1
    44   18   20 1
    45   18   63 1
    46   20   21 1
    47   20   51 1
    48   20   52 1
    49   21   26 ar
    50   21   22 ar
    51   22   23 ar
    52   23   24 ar
    53   23   28 1
    54   24   25 ar
    55   24   27 1
    56   25   26 ar
    57   25   53 1
    58   26   54 1
    59   27   55 1
    60   29   56 1
    61   29   57 1
    62   29   58 1
    63   29   63 1
    64   30   31 1
    65   31   59 1
    66   31   60 1
    67   31   61 1
    68   32   62 1
    69   63   64 1
@<TRIPOS>MOLECULE
ZINC04215196
   60    62     0     0     0
SMALL
USER_CHARGES
methyl 1-phenethyl-4-(phenyl-propanoyl-amino)-piperidine-4-carboxylate
@<TRIPOS>ATOM
      1 C1          2.1074   -3.0605    2.2980 C.3       1 <0>        -0.1434
      2 C2          2.1109   -2.2022    1.0314 C.3       1 <0>        -0.1389
      3 C3          3.4150   -1.4529    0.9360 C.2       1 <0>         0.5226
      4 O1          4.2964   -1.6647    1.7419 O.2       1 <0>        -0.5046
      5 N1          3.6019   -0.5476   -0.0447 N.am      1 <0>        -0.5682
      6 C4          2.5467   -0.2174   -0.9023 C.ar      1 <0>         0.1148
      7 C5          2.0167   -1.1769   -1.7549 C.ar      1 <0>        -0.1448
      8 C6          0.9749   -0.8479   -2.5999 C.ar      1 <0>        -0.0980
      9 C7          0.4600    0.4354   -2.5979 C.ar      1 <0>        -0.1055
     10 C8          0.9856    1.3932   -1.7502 C.ar      1 <0>        -0.0939
     11 C9          2.0271    1.0704   -0.9024 C.ar      1 <0>        -0.1190
     12 C10         4.9097    0.0908   -0.2128 C.3       1 <0>         0.1859
     13 C11         4.9230    0.8946   -1.5160 C.3       1 <0>        -0.1516
     14 C12         4.7150   -0.0577   -2.6976 C.3       1 <0>        -0.0235
     15 C13         5.7598   -1.8797   -1.4888 C.3       1 <0>         0.0051
     16 C14         5.9995   -0.9831   -0.2720 C.3       1 <0>        -0.1564
     17 C15         5.6944   -1.9110   -3.9086 C.3       1 <0>        -0.0013
     18 C16         5.9705   -1.0638   -5.1524 C.3       1 <0>        -0.1005
     19 C17         5.8796   -1.9313   -6.3813 C.ar      1 <0>        -0.1078
     20 C18         7.0066   -2.5737   -6.8588 C.ar      1 <0>        -0.1096
     21 C19         6.9222   -3.3733   -7.9833 C.ar      1 <0>        -0.1136
     22 C20         5.7129   -3.5223   -8.6361 C.ar      1 <0>        -0.1041
     23 C21         4.5871   -2.8753   -8.1620 C.ar      1 <0>        -0.1141
     24 C22         4.6704   -2.0800   -7.0344 C.ar      1 <0>        -0.1097
     25 C23         5.1734    1.0124    0.9500 C.2       1 <0>         0.4618
     26 O2          6.2934    1.1259    1.3890 O.2       1 <0>        -0.4813
     27 O3          4.1642    1.7073    1.4980 O.3       1 <0>        -0.3490
     28 C24         4.4916    2.5755    2.6148 C.3       1 <0>         0.0336
     29 H1          1.1641   -3.6024    2.3670 H         1 <0>         0.0705
     30 H2          2.9327   -3.7714    2.2575 H         1 <0>         0.0649
     31 H3          2.2227   -2.4192    3.1718 H         1 <0>         0.0639
     32 H4          1.2856   -1.4913    1.0720 H         1 <0>         0.0999
     33 H5          1.9956   -2.8434    0.1576 H         1 <0>         0.0990
     34 H6          2.4189   -2.1792   -1.7574 H         1 <0>         0.1274
     35 H7          0.5622   -1.5937   -3.2632 H         1 <0>         0.1362
     36 H8         -0.3515    0.6915   -3.2630 H         1 <0>         0.1350
     37 H9          0.5815    2.3947   -1.7513 H         1 <0>         0.1368
     38 H10         2.4369    1.8188   -0.2403 H         1 <0>         0.1392
     39 H11         4.1215    1.6330   -1.4964 H         1 <0>         0.1319
     40 H12         5.8825    1.4008   -1.6215 H         1 <0>         0.1148
     41 H13         4.7386    0.5086   -3.6286 H         1 <0>         0.1407
     42 H14         3.7493   -0.5533   -2.5983 H         1 <0>         0.1496
     43 H15         6.5422   -2.6367   -1.5419 H         1 <0>         0.1417
     44 H16         4.7891   -2.3667   -1.3955 H         1 <0>         0.1274
     45 H17         6.9759   -0.5064   -0.3580 H         1 <0>         0.1164
     46 H18         5.9671   -1.5849    0.6362 H         1 <0>         0.1468
     47 H19         6.4312   -2.7117   -3.8435 H         1 <0>         0.1337
     48 H20         4.6953   -2.3413   -3.9765 H         1 <0>         0.1325
     49 H21         5.2338   -0.2631   -5.2175 H         1 <0>         0.0942
     50 H22         6.9697   -0.6336   -5.0844 H         1 <0>         0.0957
     51 H23         7.9523   -2.4540   -6.3511 H         1 <0>         0.1242
     52 H24         7.8019   -3.8785   -8.3539 H         1 <0>         0.1293
     53 H25         5.6477   -4.1440   -9.5168 H         1 <0>         0.1294
     54 H26         3.6423   -2.9915   -8.6722 H         1 <0>         0.1291
     55 H27         3.7908   -1.5745   -6.6640 H         1 <0>         0.1234
     56 H28         5.2201    3.3203    2.2946 H         1 <0>         0.0693
     57 H29         3.5882    3.0767    2.9624 H         1 <0>         0.1100
     58 H30         4.9122    1.9811    3.4259 H         1 <0>         0.0695
     59 N2          5.8095   -1.0513   -2.7125 N.4       1 <0>        -0.3947
     60 H31         6.7084   -0.5561   -2.7431 H         1 <0>         0.4273
@<TRIPOS>BOND
     1    1    2 1
     2    1   29 1
     3    1   30 1
     4    1   31 1
     5    2    3 1
     6    2   32 1
     7    2   33 1
     8    3    4 2
     9    3    5 am
    10    5    6 1
    11    5   12 1
    12    6   11 ar
    13    6    7 ar
    14    7    8 ar
    15    7   34 1
    16    8    9 ar
    17    8   35 1
    18    9   10 ar
    19    9   36 1
    20   10   11 ar
    21   10   37 1
    22   11   38 1
    23   12   16 1
    24   12   13 1
    25   12   25 1
    26   13   14 1
    27   13   39 1
    28   13   40 1
    29   14   41 1
    30   14   42 1
    31   14   59 1
    32   15   16 1
    33   15   43 1
    34   15   44 1
    35   15   59 1
    36   16   45 1
    37   16   46 1
    38   17   18 1
    39   17   47 1
    40   17   48 1
    41   17   59 1
    42   18   19 1
    43   18   49 1
    44   18   50 1
    45   19   24 ar
    46   19   20 ar
    47   20   21 ar
    48   20   51 1
    49   21   22 ar
    50   21   52 1
    51   22   23 ar
    52   22   53 1
    53   23   24 ar
    54   23   54 1
    55   24   55 1
    56   25   26 2
    57   25   27 1
    58   27   28 1
    59   28   56 1
    60   28   57 1
    61   28   58 1
    62   59   60 1
@<TRIPOS>MOLECULE
ZINC03783617
   61    63     0     0     0
SMALL
USER_CHARGES
3-[1-(3-cyclohexyl-3-hydroxy-propyl)-3,4-dimethyl-4-piperidyl]phenol
@<TRIPOS>ATOM
      1 C1          1.2753   -5.9874    6.3433 C.3       1 <0>        -0.1675
      2 C2          2.1716   -6.6399    5.2888 C.3       1 <0>        -0.1036
      3 H1          2.0043   -7.7169    5.2850 H         1 <0>         0.1202
      4 C3          1.8388   -6.0662    3.9097 C.3       1 <0>        -0.0004
      5 C4          3.4972   -4.3189    4.1726 C.3       1 <0>        -0.0076
      6 C5          3.8795   -4.8404    5.5597 C.3       1 <0>        -0.1427
      7 C6          3.6396   -6.3517    5.6154 C.3       1 <0>        -0.0184
      8 C7          4.5376   -7.0513    4.5932 C.3       1 <0>        -0.1534
      9 C8          3.9575   -6.8615    6.9974 C.ar      1 <0>        -0.0653
     10 C9          4.4861   -6.0044    7.9453 C.ar      1 <0>        -0.1325
     11 C10         4.7744   -6.4679    9.2154 C.ar      1 <0>        -0.0937
     12 C11         4.5446   -7.7916    9.5377 C.ar      1 <0>        -0.1405
     13 C12         4.0194   -8.6546    8.5872 C.ar      1 <0>         0.1174
     14 C13         3.7260   -8.1857    7.3147 C.ar      1 <0>        -0.1410
     15 O1          3.7921   -9.9569    8.9019 O.3       1 <0>        -0.4983
     16 C14         1.6449   -4.0113    2.6446 C.3       1 <0>        -0.0030
     17 C15         1.6822   -2.4870    2.7710 C.3       1 <0>        -0.1869
     18 C16         1.2248   -1.8548    1.4549 C.3       1 <0>         0.1168
     19 H2          0.2430   -2.2447    1.1864 H         1 <0>         0.1096
     20 C17         1.1426   -0.3360    1.6202 C.3       1 <0>        -0.1184
     21 C18         0.5670    0.2853    0.3460 C.3       1 <0>        -0.1114
     22 C19         0.4848    1.8041    0.5113 C.3       1 <0>        -0.1228
     23 C20         1.8850    2.3661    0.7652 C.3       1 <0>        -0.1238
     24 C21         2.4606    1.7448    2.0394 C.3       1 <0>        -0.1194
     25 C22         2.5428    0.2260    1.8741 C.3       1 <0>        -0.1204
     26 O2          2.1615   -2.1716    0.4233 O.3       1 <0>        -0.5536
     27 H3          0.2355   -6.2510    6.1498 H         1 <0>         0.0750
     28 H4          1.5618   -6.3421    7.3334 H         1 <0>         0.0875
     29 H5          1.3901   -4.9045    6.2980 H         1 <0>         0.0489
     30 H6          0.7904   -6.2572    3.6802 H         1 <0>         0.1310
     31 H7          2.4677   -6.5419    3.1572 H         1 <0>         0.1341
     32 H8          4.1182   -4.8028    3.4188 H         1 <0>         0.1338
     33 H9          3.6533   -3.2409    4.1342 H         1 <0>         0.1291
     34 H10         3.2683   -4.3468    6.3152 H         1 <0>         0.0944
     35 H11         4.9323   -4.6319    5.7500 H         1 <0>         0.1165
     36 H12         4.3085   -6.6804    3.5942 H         1 <0>         0.0581
     37 H13         5.5823   -6.8457    4.8264 H         1 <0>         0.0740
     38 H14         4.3618   -8.1264    4.6307 H         1 <0>         0.0729
     39 H15         4.6703   -4.9703    7.6940 H         1 <0>         0.1268
     40 H16         5.1833   -5.7956    9.9552 H         1 <0>         0.1317
     41 H17         4.7742   -8.1543   10.5288 H         1 <0>         0.1334
     42 H18         3.3173   -8.8557    6.5727 H         1 <0>         0.1279
     43 H19         4.5435  -10.5404    8.7285 H         1 <0>         0.3976
     44 H20         0.6275   -4.3326    2.4214 H         1 <0>         0.1295
     45 H21         2.3098   -4.3256    1.8401 H         1 <0>         0.1373
     46 H22         2.6996   -2.1657    2.9941 H         1 <0>         0.0921
     47 H23         1.0173   -2.1728    3.5754 H         1 <0>         0.0960
     48 H24         0.4965   -0.0969    2.4649 H         1 <0>         0.0817
     49 H25        -0.4306   -0.1150    0.1652 H         1 <0>         0.0633
     50 H26         1.2131    0.0462   -0.4987 H         1 <0>         0.0715
     51 H27         0.0747    2.2467   -0.3964 H         1 <0>         0.0668
     52 H28        -0.1613    2.0432    1.3560 H         1 <0>         0.0617
     53 H29         2.5311    2.1270   -0.0795 H         1 <0>         0.0635
     54 H30         1.8264    3.4481    0.8829 H         1 <0>         0.0655
     55 H31         1.8145    1.9839    2.8841 H         1 <0>         0.0629
     56 H32         3.4582    2.1451    2.2202 H         1 <0>         0.0653
     57 H33         2.9529   -0.2166    2.7818 H         1 <0>         0.0582
     58 H34         3.1889   -0.0131    1.0294 H         1 <0>         0.0667
     59 H35         3.0586   -1.8544    0.5957 H         1 <0>         0.3776
     60 N1          2.0675   -4.6056    3.9296 N.4       1 <0>        -0.3948
     61 H36         1.5114   -4.1918    4.6871 H         1 <0>         0.4232
@<TRIPOS>BOND
     1    1    2 1
     2    1   27 1
     3    1   28 1
     4    1   29 1
     5    2    3 1
     6    2    7 1
     7    2    4 1
     8    4   30 1
     9    4   31 1
    10    4   60 1
    11    5    6 1
    12    5   32 1
    13    5   33 1
    14    5   60 1
    15    6    7 1
    16    6   34 1
    17    6   35 1
    18    7    8 1
    19    7    9 1
    20    8   36 1
    21    8   37 1
    22    8   38 1
    23    9   14 ar
    24    9   10 ar
    25   10   11 ar
    26   10   39 1
    27   11   12 ar
    28   11   40 1
    29   12   13 ar
    30   12   41 1
    31   13   14 ar
    32   13   15 1
    33   14   42 1
    34   15   43 1
    35   16   17 1
    36   16   44 1
    37   16   45 1
    38   16   60 1
    39   17   18 1
    40   17   46 1
    41   17   47 1
    42   18   19 1
    43   18   20 1
    44   18   26 1
    45   20   25 1
    46   20   21 1
    47   20   48 1
    48   21   22 1
    49   21   49 1
    50   21   50 1
    51   22   23 1
    52   22   51 1
    53   22   52 1
    54   23   24 1
    55   23   53 1
    56   23   54 1
    57   24   25 1
    58   24   55 1
    59   24   56 1
    60   25   57 1
    61   25   58 1
    62   26   59 1
    63   60   61 1
@<TRIPOS>MOLECULE
ZINC03982790
   53    57     0     0     0
SMALL
USER_CHARGES

@<TRIPOS>ATOM
      1 C1          0.1986    1.6622   -0.5094 C.ar      1 <0>        -0.1375
      2 C2          1.4169    2.2968   -0.3935 C.ar      1 <0>        -0.0938
      3 C3          2.5906    1.5612   -0.2788 C.ar      1 <0>        -0.1132
      4 C4          2.5300    0.1847   -0.2721 C.ar      1 <0>        -0.0517
      5 C5          1.3090   -0.4582   -0.3998 C.ar      1 <0>        -0.1391
      6 C6          0.1400    0.2762   -0.5169 C.ar      1 <0>         0.1246
      7 O1         -1.0562   -0.3571   -0.6387 O.3       1 <0>        -0.4965
      8 C7          3.7662   -0.6615   -0.1029 C.3       1 <0>        -0.0200
      9 C8          3.6321   -1.9631   -0.8827 C.3       1 <0>        -0.1091
     10 C9          3.4978   -1.6555   -2.3764 C.3       1 <0>        -0.1245
     11 C10         4.7327   -0.8872   -2.8514 C.3       1 <0>        -0.1196
     12 C11         4.8509    0.4246   -2.0725 C.3       1 <0>        -0.1142
     13 C12         4.9930    0.1195   -0.5802 C.3       1 <0>        -0.0850
     14 H1          5.8939   -0.4698   -0.4093 H         1 <0>         0.1023
     15 C13         5.0497    1.4273    0.2098 C.3       1 <0>         0.0287
     16 H2          5.9691    1.9420   -0.0693 H         1 <0>         0.1352
     17 C14         3.8858    2.3206   -0.1787 C.3       1 <0>        -0.0939
     18 N1          5.0969    1.1839    1.6446 N.4       1 <0>        -0.3688
     19 C15         3.9465    0.4061    2.1109 C.3       1 <0>        -0.0194
     20 C16         3.9387   -0.9522    1.3951 C.3       1 <0>        -0.1338
     21 C17         5.1166    2.4740    2.3468 C.3       1 <0>        -0.0071
     22 C18         5.3354    2.2373    3.8424 C.3       1 <0>        -0.1435
     23 C19         4.0334    1.9990    4.6253 C.3       1 <0>        -0.1476
     24 C20         4.6402    2.8628    5.7436 C.3       1 <0>        -0.1419
     25 C21         5.4940    3.5336    4.6545 C.3       1 <0>        -0.1253
     26 H3         -0.7086    2.2427   -0.5897 H         1 <0>         0.1361
     27 H4          1.4598    3.3759   -0.3921 H         1 <0>         0.1310
     28 H5          1.2685   -1.5374   -0.4084 H         1 <0>         0.1370
     29 H6         -1.3134   -0.5394   -1.5529 H         1 <0>         0.4003
     30 H7          4.5165   -2.5783   -0.7169 H         1 <0>         0.0759
     31 H8          2.7474   -2.5008   -0.5419 H         1 <0>         0.0770
     32 H9          3.4139   -2.5886   -2.9334 H         1 <0>         0.0725
     33 H10         2.6067   -1.0506   -2.5441 H         1 <0>         0.0674
     34 H11         5.6238   -1.4916   -2.6820 H         1 <0>         0.0673
     35 H12         4.6383   -0.6703   -3.9155 H         1 <0>         0.0734
     36 H13         5.7274    0.9737   -2.4163 H         1 <0>         0.0743
     37 H14         3.9572    1.0266   -2.2369 H         1 <0>         0.0788
     38 H15         4.1005    2.7813   -1.1429 H         1 <0>         0.1198
     39 H16         3.7779    3.1057    0.5697 H         1 <0>         0.0954
     40 H17         4.0353    0.2352    3.1838 H         1 <0>         0.1334
     41 H18         3.0290    0.9582    1.9071 H         1 <0>         0.1340
     42 H19         3.0970   -1.5428    1.7569 H         1 <0>         0.1121
     43 H20         4.8703   -1.4928    1.5624 H         1 <0>         0.0976
     44 H21         5.9263    3.0891    1.9540 H         1 <0>         0.1321
     45 H22         4.1658    2.9849    2.1950 H         1 <0>         0.1314
     46 H23         6.1099    1.4976    4.0451 H         1 <0>         0.1117
     47 H24         3.1551    2.4441    4.1578 H         1 <0>         0.0910
     48 H25         3.8803    0.9585    4.9117 H         1 <0>         0.0789
     49 H26         3.9232    3.5364    6.2129 H         1 <0>         0.0808
     50 H27         5.2239    2.2935    6.4671 H         1 <0>         0.0897
     51 H28         6.5200    3.7319    4.9645 H         1 <0>         0.0829
     52 H29         5.0150    4.3981    4.1950 H         1 <0>         0.0917
     53 H30         5.9433    0.6804    1.8638 H         1 <0>         0.4210
@<TRIPOS>BOND
     1    1    6 ar
     2    1    2 ar
     3    1   26 1
     4    2    3 ar
     5    2   27 1
     6    3   17 1
     7    3    4 ar
     8    4    5 ar
     9    4    8 1
    10    5    6 ar
    11    5   28 1
    12    6    7 1
    13    7   29 1
    14    8   13 1
    15    8   20 1
    16    8    9 1
    17    9   10 1
    18    9   30 1
    19    9   31 1
    20   10   11 1
    21   10   32 1
    22   10   33 1
    23   11   12 1
    24   11   34 1
    25   11   35 1
    26   12   13 1
    27   12   36 1
    28   12   37 1
    29   13   14 1
    30   13   15 1
    31   15   16 1
    32   15   17 1
    33   15   18 1
    34   17   38 1
    35   17   39 1
    36   18   19 1
    37   18   21 1
    38   18   53 1
    39   19   20 1
    40   19   40 1
    41   19   41 1
    42   20   42 1
    43   20   43 1
    44   21   22 1
    45   21   44 1
    46   21   45 1
    47   22   25 1
    48   22   23 1
    49   22   46 1
    50   23   24 1
    51   23   47 1
    52   23   48 1
    53   24   25 1
    54   24   49 1
    55   24   50 1
    56   25   51 1
    57   25   52 1
@<TRIPOS>MOLECULE
ZINC29206920
   82    84     0     0     0
SMALL
USER_CHARGES

@<TRIPOS>ATOM
      1 C1         -0.7841    0.4745   -0.5040 C.3       1 <0>        -0.1226
      2 C2         -0.2225   -0.9084   -0.1678 C.3       1 <0>        -0.0076
      3 C3         -1.3753   -1.8659    0.1403 C.3       1 <0>         0.1496
      4 H1         -1.6891   -1.7355    1.1760 H         1 <0>         0.1196
      5 C4         -0.9190   -3.2865   -0.0712 C.2       1 <0>         0.4915
      6 O1          0.2447   -3.5316   -0.3093 O.2       1 <0>        -0.4665
      7 N1         -1.8375   -4.2924    0.0103 N.am      1 <0>        -0.7176
      8 C5         -1.3144   -5.6594   -0.2050 C.3       1 <0>         0.0987
      9 C6         -0.2871   -5.9549    0.8574 C.2       1 <0>         0.5172
     10 O2         -0.5433   -5.7922    2.0316 O.2       1 <0>        -0.5347
     11 N2          0.9450   -6.4130    0.4638 N.am      1 <0>        -0.6975
     12 C7          1.8822   -6.6651    1.5890 C.3       1 <0>         0.1263
     13 H2          1.3601   -6.5380    2.5373 H         1 <0>         0.1123
     14 C8          3.0135   -5.6738    1.4955 C.2       1 <0>         0.5124
     15 O3          4.0661   -5.9862    0.9804 O.2       1 <0>        -0.4909
     16 N3          2.8333   -4.4187    1.9997 N.am      1 <0>        -0.7103
     17 C9          3.9880   -3.5028    1.8719 C.3       1 <0>         0.0915
     18 H3          4.7405   -3.7568    2.6185 H         1 <0>         0.0675
     19 C10         3.5044   -2.0690    2.0980 C.3       1 <0>        -0.0197
     20 S1          2.6735   -1.4683    0.6015 S.3       1 <0>        -0.0694
     21 S2          0.8638   -0.7844    1.2797 S.3       1 <0>        -0.2223
     22 C11         2.5238   -2.0406    3.2721 C.3       1 <0>        -0.1519
     23 C12         4.7021   -1.1702    2.4120 C.3       1 <0>        -0.1277
     24 C13         4.5821   -3.6278    0.4926 C.2       1 <0>         0.5124
     25 O4          3.9951   -4.2599   -0.3690 O.co2     1 <0>        -0.6433
     26 O5          5.6497   -3.0967    0.2383 O.co2     1 <0>        -0.7052
     27 C14         2.4340   -8.0888    1.4911 C.3       1 <0>        -0.0780
     28 C15         1.3119   -9.0766    1.6814 C.ar      1 <0>        -0.0675
     29 C16         0.9960   -9.5280    2.9492 C.ar      1 <0>        -0.1140
     30 C17        -0.0332  -10.4341    3.1237 C.ar      1 <0>        -0.1189
     31 C18        -0.7469  -10.8884    2.0305 C.ar      1 <0>        -0.1291
     32 C19        -0.4316  -10.4363    0.7628 C.ar      1 <0>        -0.1213
     33 C20         0.5949   -9.5270    0.5888 C.ar      1 <0>        -0.1100
     34 N4         -2.5015   -1.5771   -0.7511 N.am      1 <0>        -0.7141
     35 C21        -3.7559   -1.8993   -0.3782 C.2       1 <0>         0.5207
     36 O6         -3.9525   -2.4283    0.6952 O.2       1 <0>        -0.5198
     37 C22        -4.9144   -1.6021   -1.2952 C.3       1 <0>         0.0849
     38 H4         -4.6276   -1.8177   -2.3245 H         1 <0>         0.1056
     39 C23        -5.2975   -0.1260   -1.1711 C.3       1 <0>        -0.1126
     40 C24        -6.3727    0.2000   -2.1753 C.ar      1 <0>        -0.0933
     41 C25        -6.0259    0.6295   -3.4429 C.ar      1 <0>        -0.0957
     42 C26        -7.0097    0.9295   -4.3652 C.ar      1 <0>        -0.1401
     43 C27        -8.3467    0.7990   -4.0186 C.ar      1 <0>         0.1035
     44 C28        -8.6921    0.3674   -2.7462 C.ar      1 <0>        -0.1400
     45 C29        -7.7045    0.0637   -1.8293 C.ar      1 <0>        -0.1027
     46 O7         -9.3164    1.0939   -4.9239 O.3       1 <0>        -0.5004
     47 N5         -6.0622   -2.4390   -0.9211 N.3       1 <0>        -0.8245
     48 C30         0.5758   -1.4385   -1.3606 C.3       1 <0>        -0.1756
     49 H5          0.0373    1.1566   -0.7235 H         1 <0>         0.0747
     50 H6         -1.4368    0.3999   -1.3738 H         1 <0>         0.0625
     51 H7         -1.3527    0.8521    0.3457 H         1 <0>         0.0638
     52 H8         -2.7738   -4.1219    0.1977 H         1 <0>         0.4151
     53 H9         -2.1305   -6.3786   -0.1348 H         1 <0>         0.1071
     54 H10        -0.8512   -5.7230   -1.1896 H         1 <0>         0.0876
     55 H11         1.1828   -6.5589   -0.4652 H         1 <0>         0.4153
     56 H12         2.0009   -4.1443    2.4152 H         1 <0>         0.3910
     57 H13         2.9807   -2.5184    4.1387 H         1 <0>         0.0714
     58 H14         2.2774   -1.0070    3.5148 H         1 <0>         0.0652
     59 H15         1.6146   -2.5764    2.9992 H         1 <0>         0.0689
     60 H16         5.4007   -1.1904    1.5755 H         1 <0>         0.0899
     61 H17         4.3575   -0.1488    2.5730 H         1 <0>         0.0556
     62 H18         5.2015   -1.5313    3.3111 H         1 <0>         0.0613
     63 H19         2.8859   -8.2367    0.5103 H         1 <0>         0.0885
     64 H20         3.1868   -8.2406    2.2646 H         1 <0>         0.0855
     65 H21         1.5536   -9.1730    3.8033 H         1 <0>         0.1196
     66 H22        -0.2796  -10.7873    4.1142 H         1 <0>         0.1177
     67 H23        -1.5506  -11.5969    2.1668 H         1 <0>         0.1161
     68 H24        -0.9889  -10.7916   -0.0913 H         1 <0>         0.1177
     69 H25         0.8388   -9.1709   -0.4013 H         1 <0>         0.1196
     70 H26        -2.3443   -1.1539   -1.6097 H         1 <0>         0.4056
     71 H27        -5.6685    0.0697   -0.1650 H         1 <0>         0.0833
     72 H28        -4.4216    0.4940   -1.3623 H         1 <0>         0.0860
     73 H29        -4.9849    0.7309   -3.7122 H         1 <0>         0.1293
     74 H30        -6.7383    1.2656   -5.3550 H         1 <0>         0.1301
     75 H31        -9.7322    0.2651   -2.4740 H         1 <0>         0.1296
     76 H32        -7.9728   -0.2765   -0.8400 H         1 <0>         0.1260
     77 H33        -9.5884    0.3421   -5.4679 H         1 <0>         0.3917
     78 H34        -6.3473   -2.2576    0.0297 H         1 <0>         0.3525
     79 H35        -6.8309   -2.3055   -1.5609 H         1 <0>         0.3494
     80 H36         1.1317   -0.6202   -1.8182 H         1 <0>         0.0570
     81 H37         1.2720   -2.2050   -1.0201 H         1 <0>         0.1395
     82 H38        -0.1076   -1.8679   -2.0932 H         1 <0>         0.0573
@<TRIPOS>BOND
     1    1    2 1
     2    1   49 1
     3    1   50 1
     4    1   51 1
     5    2   21 1
     6    2    3 1
     7    2   48 1
     8    3    4 1
     9    3    5 1
    10    3   34 1
    11    5    6 2
    12    5    7 am
    13    7    8 1
    14    7   52 1
    15    8    9 1
    16    8   53 1
    17    8   54 1
    18    9   10 2
    19    9   11 am
    20   11   12 1
    21   11   55 1
    22   12   13 1
    23   12   14 1
    24   12   27 1
    25   14   15 2
    26   14   16 am
    27   16   17 1
    28   16   56 1
    29   17   18 1
    30   17   19 1
    31   17   24 1
    32   19   20 1
    33   19   22 1
    34   19   23 1
    35   20   21 1
    36   22   57 1
    37   22   58 1
    38   22   59 1
    39   23   60 1
    40   23   61 1
    41   23   62 1
    42   24   25 2
    43   24   26 1
    44   27   28 1
    45   27   63 1
    46   27   64 1
    47   28   33 ar
    48   28   29 ar
    49   29   30 ar
    50   29   65 1
    51   30   31 ar
    52   30   66 1
    53   31   32 ar
    54   31   67 1
    55   32   33 ar
    56   32   68 1
    57   33   69 1
    58   34   35 am
    59   34   70 1
    60   35   36 2
    61   35   37 1
    62   37   38 1
    63   37   39 1
    64   37   47 1
    65   39   40 1
    66   39   71 1
    67   39   72 1
    68   40   45 ar
    69   40   41 ar
    70   41   42 ar
    71   41   73 1
    72   42   43 ar
    73   42   74 1
    74   43   44 ar
    75   43   46 1
    76   44   45 ar
    77   44   75 1
    78   45   76 1
    79   46   77 1
    80   47   78 1
    81   47   79 1
    82   48   80 1
    83   48   81 1
    84   48   82 1
@<TRIPOS>MOLECULE
ZINC29206920
   83    85     0     0     0
SMALL
USER_CHARGES

@<TRIPOS>ATOM
      1 C1         -0.7841    0.4745   -0.5040 C.3       1 <0>        -0.1249
      2 C2         -0.2225   -0.9084   -0.1678 C.3       1 <0>        -0.0153
      3 C3         -1.3753   -1.8659    0.1403 C.3       1 <0>         0.1472
      4 H1         -1.6891   -1.7355    1.1760 H         1 <0>         0.1302
      5 C4         -0.9190   -3.2865   -0.0712 C.2       1 <0>         0.4869
      6 O1          0.2447   -3.5316   -0.3093 O.2       1 <0>        -0.4431
      7 N1         -1.8375   -4.2924    0.0103 N.am      1 <0>        -0.7233
      8 C5         -1.3144   -5.6594   -0.2050 C.3       1 <0>         0.0971
      9 C6         -0.2871   -5.9549    0.8574 C.2       1 <0>         0.5130
     10 O2         -0.5433   -5.7922    2.0316 O.2       1 <0>        -0.5343
     11 N2          0.9450   -6.4130    0.4638 N.am      1 <0>        -0.6942
     12 C7          1.8822   -6.6651    1.5890 C.3       1 <0>         0.1272
     13 H2          1.3601   -6.5380    2.5373 H         1 <0>         0.1133
     14 C8          3.0135   -5.6738    1.4955 C.2       1 <0>         0.5104
     15 O3          4.0661   -5.9862    0.9804 O.2       1 <0>        -0.4844
     16 N3          2.8333   -4.4187    1.9997 N.am      1 <0>        -0.7118
     17 C9          3.9880   -3.5028    1.8719 C.3       1 <0>         0.0899
     18 H3          4.7405   -3.7568    2.6185 H         1 <0>         0.0714
     19 C10         3.5044   -2.0690    2.0980 C.3       1 <0>        -0.0182
     20 S1          2.6735   -1.4683    0.6015 S.3       1 <0>        -0.0615
     21 S2          0.8638   -0.7844    1.2797 S.3       1 <0>        -0.2170
     22 C11         2.5238   -2.0406    3.2721 C.3       1 <0>        -0.1519
     23 C12         4.7021   -1.1702    2.4120 C.3       1 <0>        -0.1304
     24 C13         4.5821   -3.6278    0.4926 C.2       1 <0>         0.5112
     25 O4          3.9951   -4.2599   -0.3690 O.co2     1 <0>        -0.6461
     26 O5          5.6497   -3.0967    0.2383 O.co2     1 <0>        -0.6994
     27 C14         2.4340   -8.0888    1.4911 C.3       1 <0>        -0.0798
     28 C15         1.3119   -9.0766    1.6814 C.ar      1 <0>        -0.0684
     29 C16         0.9960   -9.5280    2.9492 C.ar      1 <0>        -0.1131
     30 C17        -0.0332  -10.4341    3.1237 C.ar      1 <0>        -0.1175
     31 C18        -0.7469  -10.8884    2.0305 C.ar      1 <0>        -0.1285
     32 C19        -0.4316  -10.4363    0.7628 C.ar      1 <0>        -0.1225
     33 C20         0.5949   -9.5270    0.5888 C.ar      1 <0>        -0.1118
     34 N4         -2.5015   -1.5771   -0.7511 N.am      1 <0>        -0.6826
     35 C21        -3.7559   -1.8993   -0.3782 C.2       1 <0>         0.4981
     36 O6         -3.9525   -2.4283    0.6952 O.2       1 <0>        -0.5157
     37 C22        -4.9144   -1.6021   -1.2952 C.3       1 <0>         0.0138
     38 H4         -4.6276   -1.8177   -2.3245 H         1 <0>         0.1684
     39 C23        -5.2975   -0.1260   -1.1711 C.3       1 <0>        -0.0924
     40 C24        -6.3727    0.2000   -2.1753 C.ar      1 <0>        -0.1404
     41 C25        -6.0259    0.6295   -3.4429 C.ar      1 <0>        -0.0825
     42 C26        -7.0097    0.9295   -4.3652 C.ar      1 <0>        -0.1346
     43 C27        -8.3467    0.7990   -4.0186 C.ar      1 <0>         0.1296
     44 C28        -8.6921    0.3674   -2.7462 C.ar      1 <0>        -0.1368
     45 C29        -7.7045    0.0637   -1.8293 C.ar      1 <0>        -0.1192
     46 O7         -9.3164    1.0939   -4.9239 O.3       1 <0>        -0.4951
     47 N5         -6.0622   -2.4390   -0.9211 N.4       1 <0>        -0.6214
     48 C30         0.5758   -1.4385   -1.3606 C.3       1 <0>        -0.1794
     49 H5          0.0373    1.1566   -0.7235 H         1 <0>         0.0819
     50 H6         -1.4368    0.3999   -1.3738 H         1 <0>         0.0574
     51 H7         -1.3527    0.8521    0.3457 H         1 <0>         0.0658
     52 H8         -2.7738   -4.1219    0.1977 H         1 <0>         0.4032
     53 H9         -2.1305   -6.3786   -0.1348 H         1 <0>         0.1082
     54 H10        -0.8512   -5.7230   -1.1896 H         1 <0>         0.0919
     55 H11         1.1828   -6.5589   -0.4652 H         1 <0>         0.4163
     56 H12         2.0009   -4.1443    2.4152 H         1 <0>         0.3893
     57 H13         2.9807   -2.5184    4.1387 H         1 <0>         0.0751
     58 H14         2.2774   -1.0070    3.5148 H         1 <0>         0.0657
     59 H15         1.6146   -2.5764    2.9992 H         1 <0>         0.0668
     60 H16         5.4007   -1.1904    1.5755 H         1 <0>         0.0916
     61 H17         4.3575   -0.1488    2.5730 H         1 <0>         0.0570
     62 H18         5.2015   -1.5313    3.3111 H         1 <0>         0.0651
     63 H19         2.8859   -8.2367    0.5103 H         1 <0>         0.0898
     64 H20         3.1868   -8.2406    2.2646 H         1 <0>         0.0881
     65 H21         1.5536   -9.1730    3.8033 H         1 <0>         0.1207
     66 H22        -0.2796  -10.7873    4.1142 H         1 <0>         0.1192
     67 H23        -1.5506  -11.5969    2.1668 H         1 <0>         0.1169
     68 H24        -0.9889  -10.7916   -0.0913 H         1 <0>         0.1174
     69 H25         0.8388   -9.1709   -0.4013 H         1 <0>         0.1187
     70 H26        -2.3443   -1.1539   -1.6097 H         1 <0>         0.4159
     71 H27        -5.6685    0.0697   -0.1650 H         1 <0>         0.1107
     72 H28        -4.4216    0.4940   -1.3623 H         1 <0>         0.1281
     73 H29        -4.9849    0.7309   -3.7122 H         1 <0>         0.1373
     74 H30        -6.7383    1.2656   -5.3550 H         1 <0>         0.1400
     75 H31        -9.7322    0.2651   -2.4740 H         1 <0>         0.1388
     76 H32        -7.9728   -0.2765   -0.8400 H         1 <0>         0.1293
     77 H33        -9.5884    0.3421   -5.4679 H         1 <0>         0.4007
     78 H34        -6.8378   -2.2401   -1.5350 H         1 <0>         0.4396
     79 H35        -5.8096   -3.4125   -1.0029 H         1 <0>         0.4410
     80 H36         1.1317   -0.6202   -1.8182 H         1 <0>         0.0640
     81 H37         1.2720   -2.2050   -1.0201 H         1 <0>         0.1406
     82 H38        -0.1076   -1.8679   -2.0932 H         1 <0>         0.0552
     83 H39        -6.3276   -2.2394    0.0317 H         1 <0>         0.4425
@<TRIPOS>BOND
     1    1    2 1
     2    1   49 1
     3    1   50 1
     4    1   51 1
     5    2   21 1
     6    2    3 1
     7    2   48 1
     8    3    4 1
     9    3    5 1
    10    3   34 1
    11    5    6 2
    12    5    7 am
    13    7    8 1
    14    7   52 1
    15    8    9 1
    16    8   53 1
    17    8   54 1
    18    9   10 2
    19    9   11 am
    20   11   12 1
    21   11   55 1
    22   12   13 1
    23   12   14 1
    24   12   27 1
    25   14   15 2
    26   14   16 am
    27   16   17 1
    28   16   56 1
    29   17   18 1
    30   17   19 1
    31   17   24 1
    32   19   20 1
    33   19   22 1
    34   19   23 1
    35   20   21 1
    36   22   57 1
    37   22   58 1
    38   22   59 1
    39   23   60 1
    40   23   61 1
    41   23   62 1
    42   24   25 2
    43   24   26 1
    44   27   28 1
    45   27   63 1
    46   27   64 1
    47   28   33 ar
    48   28   29 ar
    49   29   30 ar
    50   29   65 1
    51   30   31 ar
    52   30   66 1
    53   31   32 ar
    54   31   67 1
    55   32   33 ar
    56   32   68 1
    57   33   69 1
    58   34   35 am
    59   34   70 1
    60   35   36 2
    61   35   37 1
    62   37   38 1
    63   37   39 1
    64   37   47 1
    65   39   40 1
    66   39   71 1
    67   39   72 1
    68   40   45 ar
    69   40   41 ar
    70   41   42 ar
    71   41   73 1
    72   42   43 ar
    73   42   74 1
    74   43   44 ar
    75   43   46 1
    76   44   45 ar
    77   44   75 1
    78   45   76 1
    79   46   77 1
    80   47   78 1
    81   47   79 1
    82   47   83 1
    83   48   80 1
    84   48   81 1
    85   48   82 1
@<TRIPOS>MOLECULE
ZINC00607289
   51    53     0     0     0
SMALL
USER_CHARGES

@<TRIPOS>ATOM
      1 C1         -0.5664    1.5629    0.4635 C.3       1 <0>         0.0474
      2 N1         -0.1670    0.1850    0.1670 N.am      1 <0>        -0.6317
      3 C2          0.1346   -0.7418    1.2608 C.3       1 <0>         0.1670
      4 H1          0.3080   -1.7385    0.8551 H         1 <0>         0.1306
      5 C3         -1.0461   -0.7851    2.2328 C.3       1 <0>        -0.0144
      6 N2         -2.2724   -1.1246    1.4987 N.4       1 <0>        -0.3941
      7 C4         -2.2123   -2.5306    1.0236 C.3       1 <0>        -0.0119
      8 C5         -3.7022   -2.8948    0.8044 C.3       1 <0>        -0.1435
      9 C6         -4.4102   -2.1731    1.9740 C.3       1 <0>        -0.1441
     10 C7         -3.4428   -1.0534    2.4003 C.3       1 <0>        -0.0096
     11 C8          1.3682   -0.2744    1.9894 C.ar      1 <0>        -0.1208
     12 C9          2.4253   -1.1431    2.1866 C.ar      1 <0>        -0.0945
     13 C10         3.5568   -0.7144    2.8549 C.ar      1 <0>        -0.1121
     14 C11         3.6315    0.5831    3.3257 C.ar      1 <0>        -0.0981
     15 C12         2.5748    1.4521    3.1278 C.ar      1 <0>        -0.1150
     16 C13         1.4450    1.0247    2.4556 C.ar      1 <0>        -0.1155
     17 C14        -0.0770   -0.2301   -1.1121 C.2       1 <0>         0.5159
     18 O1          0.2537   -1.3709   -1.3576 O.2       1 <0>        -0.5053
     19 C15        -0.3872    0.7232   -2.2373 C.3       1 <0>        -0.0992
     20 C16        -0.2122    0.0167   -3.5569 C.ar      1 <0>        -0.0669
     21 C17         1.0177    0.0272   -4.1884 C.ar      1 <0>        -0.0850
     22 C18         1.1794   -0.6199   -5.3989 C.ar      1 <0>        -0.0926
     23 C19         0.1104   -1.2790   -5.9791 C.ar      1 <0>        -0.0255
     24 C20        -1.1210   -1.2899   -5.3465 C.ar      1 <0>        -0.0302
     25 C21        -1.2798   -0.6460   -4.1324 C.ar      1 <0>        -0.0867
     26 Cl1        -2.4636   -2.1160   -6.0736 Cl        1 <0>        -0.0403
     27 Cl2         0.3128   -2.0915   -7.4998 Cl        1 <0>        -0.0362
     28 H2          0.3232    2.1757    0.6094 H         1 <0>         0.0828
     29 H3         -1.1484    1.9595   -0.3684 H         1 <0>         0.0929
     30 H4         -1.1712    1.5788    1.3702 H         1 <0>         0.0716
     31 H5         -0.8598   -1.5392    2.9974 H         1 <0>         0.1466
     32 H6         -1.1637    0.1902    2.7052 H         1 <0>         0.1350
     33 H7         -1.6583   -2.5969    0.0872 H         1 <0>         0.1371
     34 H8         -1.7665   -3.1742    1.7819 H         1 <0>         0.1363
     35 H9         -4.0553   -2.5142   -0.1540 H         1 <0>         0.0971
     36 H10        -3.8495   -3.9728    0.8705 H         1 <0>         0.1186
     37 H11        -5.3565   -1.7483    1.6391 H         1 <0>         0.1058
     38 H12        -4.5762   -2.8645    2.8001 H         1 <0>         0.1055
     39 H13        -3.1268   -1.2085    3.4319 H         1 <0>         0.1328
     40 H14        -3.9301   -0.0836    2.3002 H         1 <0>         0.1316
     41 H15         2.3669   -2.1569    1.8188 H         1 <0>         0.1266
     42 H16         4.3823   -1.3934    3.0096 H         1 <0>         0.1316
     43 H17         4.5152    0.9179    3.8485 H         1 <0>         0.1308
     44 H18         2.6330    2.4658    3.4959 H         1 <0>         0.1300
     45 H19         0.6210    1.7047    2.2977 H         1 <0>         0.1272
     46 H20        -1.4160    1.0714   -2.1452 H         1 <0>         0.1115
     47 H21         0.2905    1.5754   -2.1887 H         1 <0>         0.1174
     48 H22         1.8525    0.5417   -3.7357 H         1 <0>         0.1373
     49 H23         2.1402   -0.6107   -5.8920 H         1 <0>         0.1475
     50 H24        -2.2391   -0.6575   -3.6364 H         1 <0>         0.1369
     51 H25        -2.3960   -0.4975    0.7180 H         1 <0>         0.4215
@<TRIPOS>BOND
     1    1    2 1
     2    1   28 1
     3    1   29 1
     4    1   30 1
     5    2    3 1
     6    2   17 am
     7    3    4 1
     8    3    5 1
     9    3   11 1
    10    5    6 1
    11    5   31 1
    12    5   32 1
    13    6   10 1
    14    6    7 1
    15    6   51 1
    16    7    8 1
    17    7   33 1
    18    7   34 1
    19    8    9 1
    20    8   35 1
    21    8   36 1
    22    9   10 1
    23    9   37 1
    24    9   38 1
    25   10   39 1
    26   10   40 1
    27   11   16 ar
    28   11   12 ar
    29   12   13 ar
    30   12   41 1
    31   13   14 ar
    32   13   42 1
    33   14   15 ar
    34   14   43 1
    35   15   16 ar
    36   15   44 1
    37   16   45 1
    38   17   18 2
    39   17   19 1
    40   19   20 1
    41   19   46 1
    42   19   47 1
    43   20   25 ar
    44   20   21 ar
    45   21   22 ar
    46   21   48 1
    47   22   23 ar
    48   22   49 1
    49   23   24 ar
    50   23   27 1
    51   24   25 ar
    52   24   26 1
    53   25   50 1
@<TRIPOS>MOLECULE
ZINC03995703
   51    53     0     0     0
SMALL
USER_CHARGES
2-(3,4-dichlorophenyl)-N-methyl-N-(1-phenyl-2-pyrrolidin-1-yl-ethyl)-acetamide
@<TRIPOS>ATOM
      1 C1         -0.7699    1.9220    2.2946 C.3       1 <0>         0.0602
      2 N1         -0.2696    2.1358    0.9344 N.am      1 <0>        -0.6301
      3 C2         -0.0194    0.9894    0.0573 C.3       1 <0>         0.1846
      4 H1         -0.4763    0.0974    0.4860 H         1 <0>         0.1171
      5 C3         -0.6251    1.2602   -1.3214 C.3       1 <0>        -0.0303
      6 C4         -2.5642    2.3126   -0.2916 C.3       1 <0>        -0.0148
      7 C5         -4.0441    2.5116   -0.7050 C.3       1 <0>        -0.1482
      8 C6         -3.9970    2.3598   -2.2427 C.3       1 <0>        -0.1461
      9 C7         -2.7118    1.5612   -2.5288 C.3       1 <0>        -0.0101
     10 C8          1.4662    0.7765   -0.0798 C.ar      1 <0>        -0.1238
     11 C9          2.3404    1.8139    0.1853 C.ar      1 <0>        -0.0855
     12 C10         3.7033    1.6174    0.0638 C.ar      1 <0>        -0.1184
     13 C11         4.1915    0.3862   -0.3320 C.ar      1 <0>        -0.0988
     14 C12         3.3170   -0.6499   -0.6016 C.ar      1 <0>        -0.1171
     15 C13         1.9543   -0.4546   -0.4760 C.ar      1 <0>        -0.1078
     16 C14        -0.0395    3.3872    0.4899 C.2       1 <0>         0.5092
     17 O1          0.4957    3.5603   -0.5846 O.2       1 <0>        -0.5028
     18 C15        -0.4471    4.5714    1.3281 C.3       1 <0>        -0.1042
     19 C16        -0.0809    5.8448    0.6103 C.ar      1 <0>        -0.0668
     20 C17         1.1573    6.4237    0.8183 C.ar      1 <0>        -0.0849
     21 C18         1.4965    7.5885    0.1563 C.ar      1 <0>        -0.0911
     22 C19         0.5925    8.1820   -0.7066 C.ar      1 <0>        -0.0252
     23 C20        -0.6495    7.6054   -0.9106 C.ar      1 <0>        -0.0296
     24 C21        -0.9852    6.4364   -0.2514 C.ar      1 <0>        -0.0887
     25 Cl1        -1.7848    8.3486   -1.9935 Cl        1 <0>        -0.0399
     26 Cl2         1.0155    9.6487   -1.5335 Cl        1 <0>        -0.0350
     27 H2          0.0680    1.9053    2.9915 H         1 <0>         0.0776
     28 H3         -1.4496    2.7307    2.5630 H         1 <0>         0.0858
     29 H4         -1.3004    0.9709    2.3413 H         1 <0>         0.0839
     30 H5         -0.2884    2.2323   -1.6815 H         1 <0>         0.1641
     31 H6         -0.3059    0.4844   -2.0173 H         1 <0>         0.1414
     32 H7         -2.4957    1.9741    0.7422 H         1 <0>         0.1377
     33 H8         -1.9978    3.2329   -0.4346 H         1 <0>         0.1251
     34 H9         -4.3922    3.5062   -0.4260 H         1 <0>         0.1147
     35 H10        -4.6780    1.7441   -0.2609 H         1 <0>         0.0997
     36 H11        -3.9474    3.3394   -2.7182 H         1 <0>         0.1032
     37 H12        -4.8700    1.8108   -2.5957 H         1 <0>         0.1061
     38 H13        -2.0298    2.1592   -3.1333 H         1 <0>         0.1309
     39 H14        -2.9579    0.6352   -3.0484 H         1 <0>         0.1348
     40 H15         1.9588    2.7770    0.4906 H         1 <0>         0.1277
     41 H16         4.3866    2.4267    0.2748 H         1 <0>         0.1264
     42 H17         5.2562    0.2336   -0.4301 H         1 <0>         0.1289
     43 H18         3.6985   -1.6118   -0.9109 H         1 <0>         0.1297
     44 H19         1.2711   -1.2640   -0.6870 H         1 <0>         0.1232
     45 H20        -1.5239    4.5450    1.4949 H         1 <0>         0.1121
     46 H21         0.0701    4.5332    2.2869 H         1 <0>         0.1195
     47 H22         1.8614    5.9632    1.4955 H         1 <0>         0.1379
     48 H23         2.4654    8.0380    0.3161 H         1 <0>         0.1479
     49 H24        -1.9541    5.9862   -0.4098 H         1 <0>         0.1350
     50 N2         -2.1158    1.2671   -1.2248 N.4       1 <0>        -0.3907
     51 H25        -2.4361    0.3485   -0.8964 H         1 <0>         0.4253
@<TRIPOS>BOND
     1    1    2 1
     2    1   27 1
     3    1   28 1
     4    1   29 1
     5    2    3 1
     6    2   16 am
     7    3    4 1
     8    3    5 1
     9    3   10 1
    10    5   30 1
    11    5   31 1
    12    5   50 1
    13    6    7 1
    14    6   32 1
    15    6   33 1
    16    6   50 1
    17    7    8 1
    18    7   34 1
    19    7   35 1
    20    8    9 1
    21    8   36 1
    22    8   37 1
    23    9   38 1
    24    9   39 1
    25    9   50 1
    26   10   15 ar
    27   10   11 ar
    28   11   12 ar
    29   11   40 1
    30   12   13 ar
    31   12   41 1
    32   13   14 ar
    33   13   42 1
    34   14   15 ar
    35   14   43 1
    36   15   44 1
    37   16   17 2
    38   16   18 1
    39   18   19 1
    40   18   45 1
    41   18   46 1
    42   19   24 ar
    43   19   20 ar
    44   20   21 ar
    45   20   47 1
    46   21   22 ar
    47   21   48 1
    48   22   23 ar
    49   22   26 1
    50   23   24 ar
    51   23   25 1
    52   24   49 1
    53   50   51 1
@<TRIPOS>MOLECULE
ZINC02534402
   36    38     0     0     0
SMALL
USER_CHARGES
dimethylBLAHol
@<TRIPOS>ATOM
      1 C1          6.1563   -0.6291   -0.4333 C.3       1 <0>        -0.1716
      2 C2          4.8238    0.1115   -0.5636 C.3       1 <0>        -0.0921
      3 H1          4.6192    0.3179   -1.6141 H         1 <0>         0.1201
      4 C3          4.8849    1.4239    0.2174 C.3       1 <0>         0.0355
      5 H2          5.7463    1.9866   -0.1423 H         1 <0>         0.1362
      6 C4          3.6406    2.2495   -0.0602 C.3       1 <0>        -0.0884
      7 C5          2.3882    1.4161   -0.0133 C.ar      1 <0>        -0.1156
      8 C6          1.1692    2.0853    0.0021 C.ar      1 <0>        -0.0930
      9 C7         -0.0167    1.3834    0.0096 C.ar      1 <0>        -0.1363
     10 C8          0.0021   -0.0041    0.0020 C.ar      1 <0>         0.1250
     11 C9          1.2159   -0.6711   -0.0054 C.ar      1 <0>        -0.1396
     12 C10         2.4062    0.0401   -0.0051 C.ar      1 <0>        -0.0646
     13 C11         3.6972   -0.7442    0.0250 C.3       1 <0>        -0.0192
     14 C12         4.0348   -1.0184    1.5012 C.3       1 <0>        -0.1372
     15 C13         4.0585    0.3280    2.2333 C.3       1 <0>        -0.0094
     16 C14         3.5505   -2.0508   -0.7573 C.3       1 <0>        -0.1472
     17 O1         -1.1629   -0.7039    0.0022 O.3       1 <0>        -0.4965
     18 H3          6.3519   -0.8429    0.6175 H         1 <0>         0.0568
     19 H4          6.1084   -1.5641   -0.9915 H         1 <0>         0.0873
     20 H5          6.9578   -0.0079   -0.8330 H         1 <0>         0.0751
     21 H6          3.7285    2.7016   -1.0481 H         1 <0>         0.1215
     22 H7          3.5679    3.0406    0.6861 H         1 <0>         0.0960
     23 H8          1.1517    3.1651    0.0082 H         1 <0>         0.1326
     24 H9         -0.9585    1.9119    0.0170 H         1 <0>         0.1372
     25 H10         1.2353   -1.7509   -0.0110 H         1 <0>         0.1378
     26 H11         3.2742   -1.6641    1.9402 H         1 <0>         0.1132
     27 H12         5.0117   -1.4966    1.5740 H         1 <0>         0.0986
     28 H13         3.0850    0.8093    2.1402 H         1 <0>         0.1334
     29 H14         4.2837    0.1646    3.2872 H         1 <0>         0.1316
     30 H15         3.2967   -1.8273   -1.7935 H         1 <0>         0.0709
     31 H16         4.4904   -2.6017   -0.7241 H         1 <0>         0.0721
     32 H17         2.7597   -2.6543   -0.3116 H         1 <0>         0.0716
     33 H18        -1.5031   -0.9016   -0.8811 H         1 <0>         0.4011
     34 N1          5.1069    1.1981    1.6544 N.4       1 <0>        -0.5096
     35 H19         5.0960    2.1026    2.1402 H         1 <0>         0.4346
     36 H20         6.0218    0.7507    1.7847 H         1 <0>         0.4318
@<TRIPOS>BOND
     1    1    2 1
     2    1   18 1
     3    1   19 1
     4    1   20 1
     5    2    3 1
     6    2   13 1
     7    2    4 1
     8    4    5 1
     9    4    6 1
    10    4   34 1
    11    6    7 1
    12    6   21 1
    13    6   22 1
    14    7   12 ar
    15    7    8 ar
    16    8    9 ar
    17    8   23 1
    18    9   10 ar
    19    9   24 1
    20   10   11 ar
    21   10   17 1
    22   11   12 ar
    23   11   25 1
    24   12   13 1
    25   13   14 1
    26   13   16 1
    27   14   15 1
    28   14   26 1
    29   14   27 1
    30   15   28 1
    31   15   29 1
    32   15   34 1
    33   16   30 1
    34   16   31 1
    35   16   32 1
    36   17   33 1
    37   34   35 1
    38   34   36 1
@<TRIPOS>MOLECULE
ZINC14951634
   79    82     0     0     0
SMALL
USER_CHARGES

@<TRIPOS>ATOM
      1 C1          1.9517   -1.5464   -0.2337 C.ar      1 <0>        -0.1169
      2 C2          2.3865   -0.2352   -0.2842 C.ar      1 <0>        -0.1137
      3 C3          3.7298    0.0539   -0.1328 C.ar      1 <0>        -0.1108
      4 C4          4.6382   -0.9682    0.0695 C.ar      1 <0>        -0.0879
      5 C5          4.2033   -2.2793    0.1209 C.ar      1 <0>        -0.1137
      6 C6          2.8602   -2.5685   -0.0319 C.ar      1 <0>        -0.1154
      7 C7          6.1028   -0.6531    0.2336 C.3       1 <0>        -0.0836
      8 C8          6.4134   -0.4287    1.7148 C.3       1 <0>         0.1354
      9 H1          6.0883   -1.2959    2.2896 H         1 <0>         0.1175
     10 C9          7.8972   -0.2352    1.8932 C.2       1 <0>         0.5074
     11 O1          8.3214    0.7970    2.3681 O.2       1 <0>        -0.5284
     12 N1          8.7529   -1.2093    1.5251 N.am      1 <0>        -0.8529
     13 N2          5.7052    0.7636    2.1871 N.am      1 <0>        -0.7039
     14 C10         5.4004    0.8931    3.4935 C.2       1 <0>         0.5162
     15 O2          5.7125    0.0226    4.2782 O.2       1 <0>        -0.5249
     16 C11         4.6719    2.1196    3.9794 C.3       1 <0>         0.1415
     17 H2          3.7081    2.1931    3.4756 H         1 <0>         0.1171
     18 C12         5.5057    3.3644    3.6691 C.3       1 <0>        -0.0819
     19 C13         4.7418    4.5963    4.0814 C.ar      1 <0>        -0.0827
     20 C14         3.8040    5.1461    3.2276 C.ar      1 <0>        -0.1123
     21 C15         3.1033    6.2760    3.6058 C.ar      1 <0>        -0.1140
     22 C16         3.3401    6.8560    4.8381 C.ar      1 <0>        -0.1172
     23 C17         4.2773    6.3057    5.6923 C.ar      1 <0>        -0.1138
     24 C18         4.9750    5.1732    5.3158 C.ar      1 <0>        -0.1107
     25 N3          4.4608    2.0213    5.4257 N.am      1 <0>        -0.7019
     26 C19         3.3749    1.3840    5.9064 C.2       1 <0>         0.5262
     27 O3          2.5258    0.9733    5.1440 O.2       1 <0>        -0.5234
     28 C20         3.2157    1.1818    7.3913 C.3       1 <0>         0.1205
     29 H3          3.6102    2.0451    7.9272 H         1 <0>         0.0932
     30 C21         3.9632   -0.0950    7.8302 C.3       1 <0>        -0.1185
     31 C22         3.0148   -0.7036    8.8968 C.3       1 <0>        -0.1312
     32 C23         1.6238   -0.3464    8.3162 C.3       1 <0>         0.0966
     33 N4          1.7951    0.9949    7.7210 N.am      1 <0>        -0.5969
     34 C24         0.8155    1.8972    7.5142 C.2       1 <0>         0.5010
     35 O4          1.0615    2.9397    6.9455 O.2       1 <0>        -0.5303
     36 C25        -0.5855    1.6105    7.9897 C.3       1 <0>         0.0897
     37 H4         -0.5463    1.1302    8.9674 H         1 <0>         0.1032
     38 C26        -1.2824    0.6822    6.9930 C.3       1 <0>        -0.0652
     39 C27        -2.6375    0.2971    7.5281 C.ar      1 <0>        -0.0769
     40 C28        -2.7719   -0.8261    8.3232 C.ar      1 <0>        -0.1026
     41 C29        -4.0131   -1.1815    8.8146 C.ar      1 <0>        -0.1458
     42 C30        -5.1252   -0.4102    8.5100 C.ar      1 <0>         0.1003
     43 C31        -4.9877    0.7165    7.7124 C.ar      1 <0>        -0.1452
     44 C32        -3.7435    1.0706    7.2278 C.ar      1 <0>        -0.0732
     45 O5         -6.3474   -0.7580    8.9919 O.3       1 <0>        -0.5017
     46 N5         -1.3350    2.8698    8.0926 N.3       1 <0>        -0.8131
     47 H5          0.9017   -1.7719   -0.3475 H         1 <0>         0.1222
     48 H6          1.6768    0.5634   -0.4423 H         1 <0>         0.1228
     49 H7          4.0696    1.0783   -0.1730 H         1 <0>         0.1183
     50 H8          4.9131   -3.0779    0.2787 H         1 <0>         0.1220
     51 H9          2.5205   -3.5929    0.0079 H         1 <0>         0.1230
     52 H10         6.6978   -1.4864   -0.1402 H         1 <0>         0.0950
     53 H11         6.3458    0.2481   -0.3292 H         1 <0>         0.0875
     54 H12         8.4136   -2.0348    1.1453 H         1 <0>         0.4014
     55 H13         9.7080   -1.0847    1.6399 H         1 <0>         0.4043
     56 H14         5.4555    1.4598    1.5595 H         1 <0>         0.4029
     57 H15         6.4456    3.3186    4.2193 H         1 <0>         0.0879
     58 H16         5.7124    3.4060    2.5997 H         1 <0>         0.0933
     59 H17         3.6190    4.6930    2.2649 H         1 <0>         0.1200
     60 H18         2.3711    6.7060    2.9384 H         1 <0>         0.1215
     61 H19         2.7932    7.7392    5.1333 H         1 <0>         0.1205
     62 H20         4.4626    6.7589    6.6549 H         1 <0>         0.1207
     63 H21         5.7045    4.7411    5.9847 H         1 <0>         0.1176
     64 H22         5.1025    2.4149    6.0374 H         1 <0>         0.4024
     65 H23         4.0868   -0.7777    6.9896 H         1 <0>         0.0868
     66 H24         4.9285    0.1553    8.2703 H         1 <0>         0.0923
     67 H25         3.1445   -1.7837    8.9641 H         1 <0>         0.0919
     68 H26         3.1655   -0.2323    9.8680 H         1 <0>         0.0818
     69 H27         1.3352   -1.0679    7.5517 H         1 <0>         0.0763
     70 H28         0.8779   -0.3151    9.1104 H         1 <0>         0.0835
     71 H29        -1.4011    1.1965    6.0393 H         1 <0>         0.0795
     72 H30        -0.6801   -0.2148    6.8495 H         1 <0>         0.0816
     73 H31        -1.9057   -1.4262    8.5600 H         1 <0>         0.1232
     74 H32        -4.1176   -2.0594    9.4350 H         1 <0>         0.1264
     75 H33        -5.8521    1.3186    7.4739 H         1 <0>         0.1265
     76 H34        -3.6352    1.9502    6.6104 H         1 <0>         0.1254
     77 H35        -6.5573   -0.3671    9.8511 H         1 <0>         0.3899
     78 H36        -0.9315    3.4746    8.7922 H         1 <0>         0.3457
     79 H37        -1.3855    3.3345    7.1984 H         1 <0>         0.3507
@<TRIPOS>BOND
     1    1    6 ar
     2    1    2 ar
     3    1   47 1
     4    2    3 ar
     5    2   48 1
     6    3    4 ar
     7    3   49 1
     8    4    5 ar
     9    4    7 1
    10    5    6 ar
    11    5   50 1
    12    6   51 1
    13    7    8 1
    14    7   52 1
    15    7   53 1
    16    8    9 1
    17    8   10 1
    18    8   13 1
    19   10   11 2
    20   10   12 am
    21   12   54 1
    22   12   55 1
    23   13   14 am
    24   13   56 1
    25   14   15 2
    26   14   16 1
    27   16   17 1
    28   16   18 1
    29   16   25 1
    30   18   19 1
    31   18   57 1
    32   18   58 1
    33   19   24 ar
    34   19   20 ar
    35   20   21 ar
    36   20   59 1
    37   21   22 ar
    38   21   60 1
    39   22   23 ar
    40   22   61 1
    41   23   24 ar
    42   23   62 1
    43   24   63 1
    44   25   26 am
    45   25   64 1
    46   26   27 2
    47   26   28 1
    48   28   29 1
    49   28   33 1
    50   28   30 1
    51   30   31 1
    52   30   65 1
    53   30   66 1
    54   31   32 1
    55   31   67 1
    56   31   68 1
    57   32   33 1
    58   32   69 1
    59   32   70 1
    60   33   34 am
    61   34   35 2
    62   34   36 1
    63   36   37 1
    64   36   38 1
    65   36   46 1
    66   38   39 1
    67   38   71 1
    68   38   72 1
    69   39   44 ar
    70   39   40 ar
    71   40   41 ar
    72   40   73 1
    73   41   42 ar
    74   41   74 1
    75   42   43 ar
    76   42   45 1
    77   43   44 ar
    78   43   75 1
    79   44   76 1
    80   45   77 1
    81   46   78 1
    82   46   79 1
@<TRIPOS>MOLECULE
ZINC03812988
   54    58     0     0     0
SMALL
USER_CHARGES
cyclobutylmethylBLAHdiol
@<TRIPOS>ATOM
      1 C1         -2.2708   -3.2020   -1.3721 C.ar      1 <0>        -0.1359
      2 C2         -1.1832   -2.5207   -1.8752 C.ar      1 <0>        -0.0914
      3 C3         -1.1316   -1.1326   -1.8243 C.ar      1 <0>        -0.1161
      4 C4         -2.1853   -0.4346   -1.2759 C.ar      1 <0>        -0.0559
      5 C5         -3.2791   -1.1152   -0.7651 C.ar      1 <0>        -0.1359
      6 C6         -3.3263   -2.4991   -0.8099 C.ar      1 <0>         0.1271
      7 O1         -4.3995   -3.1637   -0.3064 O.3       1 <0>        -0.4955
      8 C7         -2.1916    1.0717   -1.2120 C.3       1 <0>        -0.0017
      9 C8         -2.9081    1.5466    0.0462 C.3       1 <0>        -0.1067
     10 C9         -2.1613    1.0425    1.2838 C.3       1 <0>        -0.1243
     11 C10        -0.7286    1.5791    1.2669 C.3       1 <0>        -0.1155
     12 C11        -0.0127    1.0858    0.0080 C.3       1 <0>        -0.1427
     13 C12        -0.7526    1.5926   -1.2317 C.3       1 <0>         0.1424
     14 C13        -0.0756    1.0457   -2.4899 C.3       1 <0>         0.0040
     15 H1          0.9172    1.4912   -2.5541 H         1 <0>         0.1314
     16 C14         0.0970   -0.4581   -2.3720 C.3       1 <0>        -0.0874
     17 C15        -2.2084    0.9773   -3.6776 C.3       1 <0>        -0.0122
     18 C16        -2.9175    1.5639   -2.4507 C.3       1 <0>        -0.1318
     19 C17        -0.1208    0.9389   -4.8985 C.3       1 <0>        -0.0006
     20 C18        -0.7762    1.5527   -6.1372 C.3       1 <0>        -0.1458
     21 C19        -1.9649    0.7374   -6.6731 C.3       1 <0>        -0.1470
     22 C20        -1.4435    1.0528   -8.0850 C.3       1 <0>        -0.1416
     23 C21        -0.0519    1.2118   -7.4502 C.3       1 <0>        -0.1255
     24 O2         -0.7413    3.0214   -1.2549 O.3       1 <0>        -0.5420
     25 H2         -2.3012   -4.2807   -1.4158 H         1 <0>         0.1375
     26 H3         -0.3632   -3.0707   -2.3129 H         1 <0>         0.1324
     27 H4         -4.0993   -0.5638   -0.3295 H         1 <0>         0.1389
     28 H5         -4.3156   -3.3950    0.6287 H         1 <0>         0.4010
     29 H6         -2.9366    2.6361    0.0583 H         1 <0>         0.0845
     30 H7         -3.9261    1.1572    0.0530 H         1 <0>         0.0763
     31 H8         -2.6698    1.3918    2.1824 H         1 <0>         0.0742
     32 H9         -2.1416   -0.0473    1.2776 H         1 <0>         0.0660
     33 H10        -0.1973    1.2236    2.1498 H         1 <0>         0.0731
     34 H11        -0.7489    2.6689    1.2697 H         1 <0>         0.0744
     35 H12         0.0021   -0.0041    0.0020 H         1 <0>         0.0878
     36 H13         1.0099    1.4630    0.0003 H         1 <0>         0.0767
     37 H14         0.3144   -0.8673   -3.3586 H         1 <0>         0.0976
     38 H15         0.9388   -0.6666   -1.7116 H         1 <0>         0.1217
     39 H16        -2.7066    1.3212   -4.5840 H         1 <0>         0.1319
     40 H17        -2.2466   -0.1111   -3.6332 H         1 <0>         0.1327
     41 H18        -2.8761    2.6526   -2.4853 H         1 <0>         0.1020
     42 H19        -3.9562    1.2342   -2.4315 H         1 <0>         0.1139
     43 H20         0.9278    1.2336   -4.8585 H         1 <0>         0.1285
     44 H21        -0.1911   -0.1476   -4.9509 H         1 <0>         0.1324
     45 H22        -0.9910    2.6149   -6.0201 H         1 <0>         0.1115
     46 H23        -1.9192   -0.3212   -6.4171 H         1 <0>         0.0912
     47 H24        -2.9348    1.1849   -6.4557 H         1 <0>         0.0791
     48 H25        -1.8420    1.9782   -8.5010 H         1 <0>         0.0898
     49 H26        -1.5148    0.2129   -8.7760 H         1 <0>         0.0809
     50 H27         0.5227    2.0424   -7.8602 H         1 <0>         0.0826
     51 H28         0.5181    0.2838   -7.4063 H         1 <0>         0.0916
     52 H29         0.1450    3.4073   -1.2788 H         1 <0>         0.3899
     53 N1         -0.8045    1.4602   -3.7072 N.4       1 <0>        -0.3792
     54 H30        -0.8119    2.4860   -3.7516 H         1 <0>         0.4295
@<TRIPOS>BOND
     1    1    6 ar
     2    1    2 ar
     3    1   25 1
     4    2    3 ar
     5    2   26 1
     6    3   16 1
     7    3    4 ar
     8    4    5 ar
     9    4    8 1
    10    5    6 ar
    11    5   27 1
    12    6    7 1
    13    7   28 1
    14    8   13 1
    15    8   18 1
    16    8    9 1
    17    9   10 1
    18    9   29 1
    19    9   30 1
    20   10   11 1
    21   10   31 1
    22   10   32 1
    23   11   12 1
    24   11   33 1
    25   11   34 1
    26   12   13 1
    27   12   35 1
    28   12   36 1
    29   13   14 1
    30   13   24 1
    31   14   15 1
    32   14   16 1
    33   14   53 1
    34   16   37 1
    35   16   38 1
    36   17   18 1
    37   17   39 1
    38   17   40 1
    39   17   53 1
    40   18   41 1
    41   18   42 1
    42   19   20 1
    43   19   43 1
    44   19   44 1
    45   19   53 1
    46   20   23 1
    47   20   21 1
    48   20   45 1
    49   21   22 1
    50   21   46 1
    51   21   47 1
    52   22   23 1
    53   22   48 1
    54   22   49 1
    55   23   50 1
    56   23   51 1
    57   24   52 1
    58   53   54 1
@<TRIPOS>MOLECULE
ZINC03870315
   53    56     0     0     0
SMALL
USER_CHARGES
ethyl-[(1-hydroxycyclopropyl)methyl]-dimethyl-BLAHol
@<TRIPOS>ATOM
      1 C1         -2.5286    1.7344    2.0183 C.3       1 <0>        -0.1723
      2 C2         -1.1631    2.4222    2.0758 C.3       1 <0>        -0.1153
      3 C3         -0.2802    1.8987    0.9412 C.3       1 <0>        -0.0106
      4 C4         -0.2512    0.3599    0.9440 C.3       1 <0>        -0.1406
      5 C5          0.7262   -0.0909   -0.1473 C.3       1 <0>        -0.0045
      6 C6          0.1214    1.8433   -1.5047 C.3       1 <0>         0.0364
      7 H1         -0.3118    2.1017   -2.4710 H         1 <0>         0.1313
      8 C7         -0.8222    2.3559   -0.4171 C.3       1 <0>        -0.0554
      9 C8         -0.8799    3.8842   -0.4620 C.3       1 <0>        -0.1495
     10 C9         -2.2228    1.7799   -0.6354 C.3       1 <0>        -0.1819
     11 C10         1.4584    2.5573   -1.4081 C.3       1 <0>        -0.0883
     12 C11         1.9444    2.6561    0.0129 C.ar      1 <0>        -0.1115
     13 C12         1.1444    2.3768    1.0978 C.ar      1 <0>        -0.0571
     14 C13         1.6392    2.5288    2.3838 C.ar      1 <0>        -0.1401
     15 C14         2.9435    2.9492    2.5872 C.ar      1 <0>         0.1246
     16 C15         3.7549    3.2161    1.4942 C.ar      1 <0>        -0.1370
     17 C16         3.2561    3.0692    0.2175 C.ar      1 <0>        -0.0939
     18 O1          3.4250    3.0987    3.8493 O.3       1 <0>        -0.4948
     19 C17         1.1272   -0.0926   -2.5328 C.3       1 <0>         0.0496
     20 C18         1.0004   -1.6133   -2.6434 C.3       1 <0>         0.0205
     21 C19         2.1705   -2.4585   -2.1364 C.3       1 <0>        -0.2001
     22 C20         1.9159   -2.3280   -3.6394 C.3       1 <0>        -0.1787
     23 O2         -0.3176   -2.1363   -2.4660 O.3       1 <0>        -0.5374
     24 H2         -2.4089    0.7205    1.6367 H         1 <0>         0.0621
     25 H3         -2.9593    1.6976    3.0189 H         1 <0>         0.0620
     26 H4         -3.1904    2.2953    1.3583 H         1 <0>         0.0682
     27 H5         -0.6887    2.2085    3.0336 H         1 <0>         0.0772
     28 H6         -1.2938    3.4989    1.9673 H         1 <0>         0.0808
     29 H7         -1.2471   -0.0286    0.7313 H         1 <0>         0.1033
     30 H8          0.0873   -0.0013    1.9151 H         1 <0>         0.1131
     31 H9          0.7778   -1.1796   -0.1617 H         1 <0>         0.1266
     32 H10         1.7155    0.3170    0.0600 H         1 <0>         0.1313
     33 H11        -1.2449    4.2055   -1.4375 H         1 <0>         0.0691
     34 H12        -1.5537    4.2453    0.3150 H         1 <0>         0.0805
     35 H13         0.1177    4.2905   -0.2954 H         1 <0>         0.0721
     36 H14        -2.2816    0.7880   -0.1874 H         1 <0>         0.0722
     37 H15        -2.9609    2.4331   -0.1699 H         1 <0>         0.0959
     38 H16        -2.4237    1.7083   -1.7043 H         1 <0>         0.0647
     39 H17         2.1951    2.0112   -1.9974 H         1 <0>         0.0924
     40 H18         1.3539    3.5621   -1.8174 H         1 <0>         0.1230
     41 H19         1.0043    2.3185    3.2318 H         1 <0>         0.1380
     42 H20         4.7750    3.5379    1.6431 H         1 <0>         0.1363
     43 H21         3.8902    3.2767   -0.6317 H         1 <0>         0.1316
     44 H22         3.8359    2.3014    4.2105 H         1 <0>         0.3984
     45 H23         0.8252    0.3667   -3.4741 H         1 <0>         0.1381
     46 H24         2.1624    0.1708   -2.3157 H         1 <0>         0.1437
     47 H25         3.0308   -1.9313   -1.7240 H         1 <0>         0.1123
     48 H26         1.9352   -3.4138   -1.6672 H         1 <0>         0.1141
     49 H27         1.5130   -3.1974   -4.1590 H         1 <0>         0.1168
     50 H28         2.6083   -1.7147   -4.2161 H         1 <0>         0.1148
     51 H29        -0.3721   -3.0989   -2.5403 H         1 <0>         0.4105
     52 N1          0.2275    0.3689   -1.4661 N.4       1 <0>        -0.3792
     53 H30        -0.7047   -0.0320   -1.6222 H         1 <0>         0.4368
@<TRIPOS>BOND
     1    1    2 1
     2    1   24 1
     3    1   25 1
     4    1   26 1
     5    2    3 1
     6    2   27 1
     7    2   28 1
     8    3    8 1
     9    3   13 1
    10    3    4 1
    11    4    5 1
    12    4   29 1
    13    4   30 1
    14    5   31 1
    15    5   32 1
    16    5   52 1
    17    6    7 1
    18    6    8 1
    19    6   11 1
    20    6   52 1
    21    8    9 1
    22    8   10 1
    23    9   33 1
    24    9   34 1
    25    9   35 1
    26   10   36 1
    27   10   37 1
    28   10   38 1
    29   11   12 1
    30   11   39 1
    31   11   40 1
    32   12   17 ar
    33   12   13 ar
    34   13   14 ar
    35   14   15 ar
    36   14   41 1
    37   15   16 ar
    38   15   18 1
    39   16   17 ar
    40   16   42 1
    41   17   43 1
    42   18   44 1
    43   19   20 1
    44   19   45 1
    45   19   46 1
    46   19   52 1
    47   20   22 1
    48   20   21 1
    49   20   23 1
    50   21   22 1
    51   21   47 1
    52   21   48 1
    53   22   49 1
    54   22   50 1
    55   23   51 1
    56   52   53 1
@<TRIPOS>MOLECULE
ZINC03932773
   60    66     0     0     0
SMALL
USER_CHARGES
benzylidene-(cyclopropylmethyl)-dihydroxy-BLAHone
@<TRIPOS>ATOM
      1 C1          2.5390    5.3757    6.6475 C.ar      1 <0>        -0.0935
      2 C2          1.4574    6.1604    7.0087 C.ar      1 <0>        -0.1186
      3 C3          0.3732    6.2769    6.1651 C.ar      1 <0>        -0.0832
      4 C4          0.3680    5.5988    4.9410 C.ar      1 <0>        -0.1007
      5 C5          1.4629    4.8030    4.5861 C.ar      1 <0>        -0.1021
      6 C6          2.5419    4.7020    5.4383 C.ar      1 <0>        -0.1255
      7 C7         -0.7843    5.7170    4.0355 C.2       1 <0>         0.0388
      8 C8         -0.5968    5.6943    2.6952 C.2       1 <0>        -0.2241
      9 C9          0.8043    5.7173    2.1502 C.3       1 <0>        -0.0982
     10 C10         0.8154    6.4513    0.8054 C.3       1 <0>         0.1459
     11 C11         2.2021    6.3140    0.1619 C.3       1 <0>         0.0153
     12 H1          2.9223    6.8165    0.8076 H         1 <0>         0.1419
     13 C12         2.6705    4.8774   -0.0032 C.3       1 <0>        -0.0882
     14 C13         1.5599    3.9062   -0.2397 C.ar      1 <0>        -0.0599
     15 C14         1.7218    2.5400   -0.3890 C.ar      1 <0>        -0.1113
     16 C15         0.6145    1.7125   -0.4772 C.ar      1 <0>        -0.0964
     17 C16        -0.6968    2.1796   -0.4152 C.ar      1 <0>         0.1145
     18 C17        -0.8733    3.5605   -0.2700 C.ar      1 <0>         0.1013
     19 C18         0.2603    4.3581   -0.2379 C.ar      1 <0>        -0.1831
     20 C19        -0.1859    5.7959   -0.1372 C.3       1 <0>        -0.0348
     21 C20        -0.1530    6.4616   -1.5082 C.3       1 <0>        -0.1272
     22 C21         1.2674    6.3767   -2.0761 C.3       1 <0>        -0.0016
     23 C22         3.5625    7.0487   -1.7001 C.3       1 <0>         0.0260
     24 C23         3.5755    7.9773   -2.9160 C.3       1 <0>        -0.2120
     25 C24         3.9028    7.3565   -4.2756 C.3       1 <0>        -0.1674
     26 C25         4.9264    8.2550   -3.5785 C.3       1 <0>        -0.1481
     27 C26        -1.6127    5.6291    0.3666 C.3       1 <0>         0.0858
     28 H2         -2.1789    6.3757    0.0173 H         1 <0>         0.1346
     29 C27        -1.6959    5.6107    1.8598 C.2       1 <0>         0.3801
     30 O1         -2.7947    5.5520    2.3736 O.2       1 <0>        -0.4279
     31 O2         -1.9832    4.3182   -0.1435 O.3       1 <0>        -0.2571
     32 O3         -1.7574    1.3315   -0.4881 O.3       1 <0>        -0.4782
     33 O4          0.4904    7.8303    0.9918 O.3       1 <0>        -0.5379
     34 H3          3.3854    5.2888    7.3127 H         1 <0>         0.1303
     35 H4          1.4630    6.6831    7.9537 H         1 <0>         0.1328
     36 H5         -0.4696    6.8901    6.4480 H         1 <0>         0.1320
     37 H6          1.4646    4.2729    3.6451 H         1 <0>         0.1285
     38 H7          3.3898    4.0920    5.1637 H         1 <0>         0.1293
     39 H8         -1.7802    5.8220    4.4397 H         1 <0>         0.1469
     40 H9          1.1565    4.6954    2.0095 H         1 <0>         0.1023
     41 H10         1.4591    6.2341    2.8519 H         1 <0>         0.1031
     42 H11         3.2069    4.5802    0.8980 H         1 <0>         0.1268
     43 H12         3.3596    4.8305   -0.8464 H         1 <0>         0.1058
     44 H13         2.7146    2.1177   -0.4365 H         1 <0>         0.1415
     45 H14         0.7757    0.6522   -0.6048 H         1 <0>         0.1454
     46 H15        -0.8441    5.9500   -2.1780 H         1 <0>         0.1199
     47 H16        -0.4448    7.5075   -1.4122 H         1 <0>         0.1080
     48 H17         1.3087    6.8997   -3.0315 H         1 <0>         0.1377
     49 H18         1.5388    5.3312   -2.2219 H         1 <0>         0.1341
     50 H19         4.2561    7.4249   -0.9482 H         1 <0>         0.1328
     51 H20         3.8653    6.0469   -2.0048 H         1 <0>         0.1323
     52 H21         2.8488    8.7895   -2.8951 H         1 <0>         0.1253
     53 H22         4.1089    6.2866   -4.3038 H         1 <0>         0.1060
     54 H23         3.3914    7.7602   -5.1494 H         1 <0>         0.1105
     55 H24         5.0884    9.2497   -3.9937 H         1 <0>         0.1124
     56 H25         5.8060    7.7764   -3.1478 H         1 <0>         0.1076
     57 H26        -2.0540    0.9980    0.3697 H         1 <0>         0.4003
     58 H27         1.0941    8.3002    1.5833 H         1 <0>         0.3947
     59 N1          2.1996    7.0306   -1.1316 N.4       1 <0>        -0.3861
     60 H28         1.8908    7.9973   -0.9755 H         1 <0>         0.4328
@<TRIPOS>BOND
     1    1    6 ar
     2    1    2 ar
     3    1   34 1
     4    2    3 ar
     5    2   35 1
     6    3    4 ar
     7    3   36 1
     8    4    5 ar
     9    4    7 1
    10    5    6 ar
    11    5   37 1
    12    6   38 1
    13    7    8 2
    14    7   39 1
    15    8   29 1
    16    8    9 1
    17    9   10 1
    18    9   40 1
    19    9   41 1
    20   10   20 1
    21   10   11 1
    22   10   33 1
    23   11   12 1
    24   11   13 1
    25   11   59 1
    26   13   14 1
    27   13   42 1
    28   13   43 1
    29   14   19 ar
    30   14   15 ar
    31   15   16 ar
    32   15   44 1
    33   16   17 ar
    34   16   45 1
    35   17   18 ar
    36   17   32 1
    37   18   31 1
    38   18   19 ar
    39   19   20 1
    40   20   21 1
    41   20   27 1
    42   21   22 1
    43   21   46 1
    44   21   47 1
    45   22   48 1
    46   22   49 1
    47   22   59 1
    48   23   24 1
    49   23   50 1
    50   23   51 1
    51   23   59 1
    52   24   26 1
    53   24   25 1
    54   24   52 1
    55   25   26 1
    56   25   53 1
    57   25   54 1
    58   26   55 1
    59   26   56 1
    60   27   28 1
    61   27   29 1
    62   27   31 1
    63   29   30 2
    64   32   57 1
    65   33   58 1
    66   59   60 1
@<TRIPOS>MOLECULE
ZINC27987349
   45    48     0     0     0
SMALL
USER_CHARGES
cyclopropylmethyl-hydroxy-dimethyl-BLAHone
@<TRIPOS>ATOM
      1 C1          1.5088   -2.4912   -0.5887 C.3       1 <0>        -0.1723
      2 C2          0.8911   -2.1319    0.7641 C.3       1 <0>        -0.0878
      3 H1          1.5151   -2.5801    1.5514 H         1 <0>         0.1245
      4 C3          0.8279   -0.5968    0.9415 C.3       1 <0>        -0.0129
      5 H2          1.8122   -0.1213    0.8190 H         1 <0>         0.1601
      6 C4          0.2810   -0.2993    2.3176 C.2       1 <0>         0.3986
      7 O1          0.7194    0.6210    2.9750 O.2       1 <0>        -0.4051
      8 C5         -0.7973   -1.1543    2.8416 C.ar      1 <0>        -0.2387
      9 C6         -1.4289   -0.8158    4.0445 C.ar      1 <0>        -0.0026
     10 C7         -2.4233   -1.6110    4.5396 C.ar      1 <0>        -0.1719
     11 C8         -2.8088   -2.7566    3.8517 C.ar      1 <0>         0.2216
     12 C9         -2.1902   -3.0976    2.6544 C.ar      1 <0>        -0.2271
     13 C10        -1.1879   -2.3001    2.1435 C.ar      1 <0>         0.0129
     14 C11        -0.5364   -2.6806    0.8380 C.3       1 <0>        -0.0280
     15 C12        -1.3511   -2.0449   -0.3005 C.3       1 <0>        -0.1366
     16 C13        -1.3840   -0.5300   -0.0749 C.3       1 <0>        -0.0180
     17 N1         -0.0165   -0.0007   -0.0919 N.4       1 <0>        -0.3826
     18 C14        -0.0178    1.4648    0.0101 C.3       1 <0>        -0.0082
     19 C15         1.4240    1.9731    0.0707 C.3       1 <0>        -0.2793
     20 C16         1.8645    2.6982    1.3439 C.3       1 <0>        -0.1032
     21 C17         1.6404    3.4877    0.0526 C.3       1 <0>        -0.0930
     22 C18        -0.5208   -4.2028    0.6846 C.3       1 <0>        -0.1503
     23 O2         -3.7934   -3.5448    4.3512 O.3       1 <0>        -0.4932
     24 H3          2.5342   -2.0963   -0.6400 H         1 <0>         0.0804
     25 H4          0.9053   -2.0506   -1.3959 H         1 <0>         0.0573
     26 H5          1.5310   -3.5851   -0.7027 H         1 <0>         0.0962
     27 H6         -1.1299    0.0727    4.5807 H         1 <0>         0.1457
     28 H7         -2.9109   -1.3496    5.4671 H         1 <0>         0.1451
     29 H8         -2.4945   -3.9879    2.1242 H         1 <0>         0.1448
     30 H9         -0.8741   -2.2739   -1.2649 H         1 <0>         0.1046
     31 H10        -2.3732   -2.4514   -0.2913 H         1 <0>         0.1193
     32 H11        -1.9707   -0.0530   -0.8738 H         1 <0>         0.1389
     33 H12        -1.8475   -0.3143    0.8991 H         1 <0>         0.1291
     34 H13        -0.5209    1.8931   -0.8693 H         1 <0>         0.1353
     35 H14        -0.5523    1.7684    0.9223 H         1 <0>         0.1176
     36 H15         1.8086    1.1248   -0.5145 H         1 <0>         0.1081
     37 H16         1.1115    2.5467    2.1313 H         1 <0>         0.1188
     38 H17         2.8317    2.2956    1.6792 H         1 <0>         0.1120
     39 H18         2.4223    3.7376   -0.6796 H         1 <0>         0.1158
     40 H19         0.7021    3.9888   -0.2275 H         1 <0>         0.1088
     41 H20        -1.5500   -4.5873    0.7390 H         1 <0>         0.0743
     42 H21         0.0796   -4.6466    1.4924 H         1 <0>         0.0743
     43 H22        -0.0809   -4.4688   -0.2879 H         1 <0>         0.0772
     44 H23        -4.1003   -4.4515    3.8092 H         1 <0>         0.4492
     45 H24         0.4235   -0.2861   -1.0588 H         1 <0>         0.4403
@<TRIPOS>BOND
     1    1    2 1
     2    1   24 1
     3    1   25 1
     4    1   26 1
     5    2    3 1
     6    2   14 1
     7    2    4 1
     8    4    5 1
     9    4   17 1
    10    4    6 1
    11    6    7 2
    12    6    8 1
    13    8   13 ar
    14    8    9 ar
    15    9   10 ar
    16    9   27 1
    17   10   11 ar
    18   10   28 1
    19   11   12 ar
    20   11   23 1
    21   12   13 ar
    22   12   29 1
    23   13   14 1
    24   14   15 1
    25   14   22 1
    26   15   16 1
    27   15   30 1
    28   15   31 1
    29   16   17 1
    30   16   32 1
    31   16   33 1
    32   17   18 1
    33   17   45 1
    34   18   19 1
    35   18   34 1
    36   18   35 1
    37   19   21 1
    38   19   20 1
    39   19   36 1
    40   20   21 1
    41   20   37 1
    42   20   38 1
    43   21   39 1
    44   21   40 1
    45   22   41 1
    46   22   42 1
    47   22   43 1
    48   23   44 1
@<TRIPOS>MOLECULE
ZINC01553549
   42    43     0     0     0
SMALL
USER_CHARGES

@<TRIPOS>ATOM
      1 C1          3.7304    2.7228   -2.5053 C.3       1 <0>        -0.1071
      2 C2          3.1937    2.2004   -1.1975 C.ar      1 <0>        -0.0940
      3 C3          2.0511    1.4240   -1.1806 C.ar      1 <0>        -0.1103
      4 C4          1.5575    0.9429    0.0228 C.ar      1 <0>         0.0861
      5 C5          2.2078    1.2460    1.2100 C.ar      1 <0>        -0.1117
      6 C6          3.3532    2.0174    1.1925 C.ar      1 <0>        -0.1797
      7 C7          3.8470    2.4987   -0.0112 C.ar      1 <0>         0.1088
      8 O1          4.9714    3.2633   -0.0279 O.3       1 <0>        -0.3056
      9 C8          5.5260    3.6290    1.2373 C.3       1 <0>         0.1376
     10 H1          4.7205    3.7981    1.9519 H         1 <0>         0.0902
     11 C9          6.3478    4.9103    1.0827 C.3       1 <0>        -0.1403
     12 C10         5.4226    6.0662    0.6969 C.3       1 <0>        -0.0094
     13 C11         5.3543    8.4301    0.1775 C.3       1 <0>        -0.0434
     14 C12         6.4151    2.5191    1.7358 C.ar      1 <0>        -0.1358
     15 C13         7.2338    1.8400    0.8530 C.ar      1 <0>        -0.0908
     16 C14         8.0526    0.8247    1.3111 C.ar      1 <0>        -0.1177
     17 C15         8.0459    0.4825    2.6504 C.ar      1 <0>        -0.1026
     18 C16         7.2233    1.1581    3.5323 C.ar      1 <0>        -0.1162
     19 C17         6.4077    2.1762    3.0750 C.ar      1 <0>        -0.1079
     20 O2          0.4329    0.1786    0.0395 O.3       1 <0>        -0.4966
     21 H2          3.2861    3.6952   -2.7178 H         1 <0>         0.0686
     22 H3          4.8135    2.8249   -2.4386 H         1 <0>         0.0701
     23 H4          3.4796    2.0261   -3.3052 H         1 <0>         0.0706
     24 H5          1.5425    1.1914   -2.1045 H         1 <0>         0.1390
     25 H6          1.8206    0.8753    2.1476 H         1 <0>         0.1338
     26 H7          3.8618    2.2500    2.1164 H         1 <0>         0.1315
     27 H8          6.8428    5.1405    2.0261 H         1 <0>         0.1084
     28 H9          7.0973    4.7694    0.3039 H         1 <0>         0.1025
     29 H10         4.9275    5.8360   -0.2465 H         1 <0>         0.1389
     30 H11         4.6730    6.2071    1.4757 H         1 <0>         0.1317
     31 H12         5.9638    9.3279    0.0741 H         1 <0>         0.1264
     32 H13         4.8588    8.2163   -0.7695 H         1 <0>         0.1233
     33 H14         4.6043    8.5874    0.9526 H         1 <0>         0.1227
     34 H15         7.2363    2.1049   -0.1940 H         1 <0>         0.1255
     35 H16         8.6955    0.2971    0.6221 H         1 <0>         0.1278
     36 H17         8.6836   -0.3124    3.0078 H         1 <0>         0.1285
     37 H18         7.2181    0.8907    4.5786 H         1 <0>         0.1288
     38 H19         5.7650    2.7041    3.7640 H         1 <0>         0.1228
     39 H20         0.6007   -0.7700   -0.0443 H         1 <0>         0.3945
     40 N1          6.2222    7.2970    0.5498 N.4       1 <0>        -0.5191
     41 H21         6.9285    7.1566   -0.1821 H         1 <0>         0.4358
     42 H22         6.6889    7.5061    1.4402 H         1 <0>         0.4343
@<TRIPOS>BOND
     1    1    2 1
     2    1   21 1
     3    1   22 1
     4    1   23 1
     5    2    7 ar
     6    2    3 ar
     7    3    4 ar
     8    3   24 1
     9    4    5 ar
    10    4   20 1
    11    5    6 ar
    12    5   25 1
    13    6    7 ar
    14    6   26 1
    15    7    8 1
    16    8    9 1
    17    9   10 1
    18    9   11 1
    19    9   14 1
    20   11   12 1
    21   11   27 1
    22   11   28 1
    23   12   29 1
    24   12   30 1
    25   12   40 1
    26   13   31 1
    27   13   32 1
    28   13   33 1
    29   13   40 1
    30   14   19 ar
    31   14   15 ar
    32   15   16 ar
    33   15   34 1
    34   16   17 ar
    35   16   35 1
    36   17   18 ar
    37   17   36 1
    38   18   19 ar
    39   18   37 1
    40   19   38 1
    41   20   39 1
    42   40   41 1
    43   40   42 1
@<TRIPOS>MOLECULE
ZINC06092279
   48    53     0     0     0
SMALL
USER_CHARGES
cyclopropylmethyl-dihydroxy-BLAHdione
@<TRIPOS>ATOM
      1 C1          6.1193    3.8432    2.0206 C.ar      1 <0>        -0.0346
      2 C2          7.3136    4.2441    1.4495 C.ar      1 <0>        -0.1189
      3 C3          8.1789    3.3756    0.7800 C.ar      1 <0>         0.1676
      4 C4          7.7970    2.0291    0.6754 C.ar      1 <0>         0.0886
      5 C5          6.5770    1.6680    1.2086 C.ar      1 <0>        -0.1538
      6 C6          5.7251    2.5110    1.9258 C.ar      1 <0>        -0.1489
      7 C7          4.5388    1.8865    2.5057 C.2       1 <0>         0.4030
      8 O1          3.7500    2.5502    3.1449 O.2       1 <0>        -0.3833
      9 C8          4.3064    0.4043    2.3075 C.3       1 <0>        -0.0116
     10 H1          3.8332    0.0314    3.1057 H         1 <0>         0.1480
     11 C9          5.6230   -0.3665    2.1249 C.3       1 <0>         0.1452
     12 C10         6.3431    0.2043    0.9151 C.3       1 <0>        -0.0401
     13 C11         5.4749    0.0503   -0.3318 C.3       1 <0>        -0.1247
     14 C12         4.1380    0.7605   -0.0917 C.3       1 <0>        -0.0102
     15 C13         2.1445    0.7830    1.2803 C.3       1 <0>         0.0196
     16 C14         1.3967    0.0032    2.3635 C.3       1 <0>        -0.2175
     17 C15        -0.0613    0.3838    2.6288 C.3       1 <0>        -0.1449
     18 C16         1.0227    0.7536    3.6433 C.3       1 <0>        -0.1650
     19 C17         7.7760   -0.2577    0.6678 C.3       1 <0>         0.0828
     20 H2          7.7705   -1.0466    0.0533 H         1 <0>         0.1491
     21 O2          8.3996    0.9499    0.1322 O.3       1 <0>        -0.2524
     22 C18         8.4838   -0.5943    1.9475 C.2       1 <0>         0.3315
     23 O3          9.6878   -0.5059    1.9795 O.2       1 <0>        -0.4004
     24 C19         7.7669   -1.0348    3.1880 C.3       1 <0>        -0.1451
     25 C20         6.4877   -0.2167    3.3755 C.3       1 <0>        -0.1485
     26 O4          5.3397   -1.7495    1.9033 O.3       1 <0>        -0.5354
     27 O5          9.3473    3.8183    0.2491 O.3       1 <0>        -0.4729
     28 H3          5.4966    4.5587    2.5370 H         1 <0>         0.1551
     29 H4          7.5921    5.2848    1.5254 H         1 <0>         0.1572
     30 H5          5.9796    0.5006   -1.1865 H         1 <0>         0.1268
     31 H6          5.2994   -1.0077   -0.5267 H         1 <0>         0.1189
     32 H7          3.4909    0.6160   -0.9569 H         1 <0>         0.1476
     33 H8          4.3151    1.8264    0.0518 H         1 <0>         0.1319
     34 H9          1.5944    0.7193    0.3414 H         1 <0>         0.1417
     35 H10         2.2325    1.8274    1.5797 H         1 <0>         0.1327
     36 H11         1.6673   -1.0485    2.4576 H         1 <0>         0.1253
     37 H12        -0.7498   -0.4174    2.8974 H         1 <0>         0.1137
     38 H13        -0.4877    1.1899    2.0316 H         1 <0>         0.1078
     39 H14         1.3094    1.8028    3.7136 H         1 <0>         0.1118
     40 H15         1.0471    0.1959    4.5795 H         1 <0>         0.1096
     41 H16         8.3602   -0.8997    3.9816 H         1 <0>         0.1009
     42 H17         7.5111   -2.0909    3.1018 H         1 <0>         0.1217
     43 H18         6.7429    0.8331    3.5201 H         1 <0>         0.0947
     44 H19         5.9407   -0.5830    4.2443 H         1 <0>         0.1057
     45 H20         4.8593   -2.1735    2.6275 H         1 <0>         0.3997
     46 H21         9.2732    4.1226   -0.6658 H         1 <0>         0.4086
     47 N1          3.4794    0.1780    1.0975 N.4       1 <0>        -0.3770
     48 H22         3.3703   -0.8329    0.9545 H         1 <0>         0.4386
@<TRIPOS>BOND
     1    1    6 ar
     2    1    2 ar
     3    1   28 1
     4    2    3 ar
     5    2   29 1
     6    3    4 ar
     7    3   27 1
     8    4   21 1
     9    4    5 ar
    10    5   12 1
    11    5    6 ar
    12    6    7 1
    13    7    8 2
    14    7    9 1
    15    9   10 1
    16    9   11 1
    17    9   47 1
    18   11   25 1
    19   11   12 1
    20   11   26 1
    21   12   13 1
    22   12   19 1
    23   13   14 1
    24   13   30 1
    25   13   31 1
    26   14   32 1
    27   14   33 1
    28   14   47 1
    29   15   16 1
    30   15   34 1
    31   15   35 1
    32   15   47 1
    33   16   18 1
    34   16   17 1
    35   16   36 1
    36   17   18 1
    37   17   37 1
    38   17   38 1
    39   18   39 1
    40   18   40 1
    41   19   20 1
    42   19   21 1
    43   19   22 1
    44   22   23 2
    45   22   24 1
    46   24   25 1
    47   24   41 1
    48   24   42 1
    49   25   43 1
    50   25   44 1
    51   26   45 1
    52   27   46 1
    53   47   48 1
@<TRIPOS>MOLECULE
ZINC03874473
   61    66     0     0     0
SMALL
USER_CHARGES
N-(allyl-dihydroxy-BLAHylidene)aminobenzamide
@<TRIPOS>ATOM
      1 C1          7.6295   13.1139   -2.4643 C.2       1 <0>        -0.1035
      2 C2          6.7173   12.6014   -1.6762 C.2       1 <0>        -0.2364
      3 C3          5.7296   11.6003   -2.2179 C.3       1 <0>         0.0280
      4 C4          7.0851    9.7195   -1.5245 C.3       1 <0>        -0.0016
      5 C5          7.1485    8.5125   -0.5807 C.3       1 <0>        -0.1242
      6 C6          5.9986    7.5660   -0.9181 C.3       1 <0>        -0.0285
      7 C7          6.0945    7.1560   -2.3667 C.ar      1 <0>        -0.1894
      8 C8          5.5777    7.8323   -3.4483 C.ar      1 <0>        -0.0603
      9 C9          5.8200    7.2650   -4.6867 C.ar      1 <0>        -0.1154
     10 C10         6.4859    6.0537   -4.7810 C.ar      1 <0>        -0.0977
     11 C11         6.9277    5.3373   -3.6711 C.ar      1 <0>         0.1121
     12 C12         6.7023    5.9098   -2.4138 C.ar      1 <0>         0.1096
     13 O1          6.9613    5.4684   -1.1643 O.3       1 <0>        -0.2580
     14 C13         6.1447    6.2195   -0.2290 C.3       1 <0>         0.1762
     15 H1          6.6258    6.3216    0.7438 H         1 <0>         0.1519
     16 C14         4.8344    5.4983   -0.1143 C.2       1 <0>         0.0499
     17 N1          4.8473    4.2214   -0.0243 N.2       1 <0>        -0.1787
     18 N2          3.6572    3.5245    0.2221 N.am      1 <0>        -0.5837
     19 C15         3.6503    2.1769    0.2089 C.2       1 <0>         0.5780
     20 O2          4.6769    1.5659   -0.0169 O.2       1 <0>        -0.4859
     21 C16         2.3948    1.4417    0.4688 C.ar      1 <0>        -0.1401
     22 C17         1.2142    2.1401    0.7284 C.ar      1 <0>        -0.0895
     23 C18         0.0456    1.4477    0.9693 C.ar      1 <0>        -0.1246
     24 C19         0.0420    0.0642    0.9546 C.ar      1 <0>        -0.0840
     25 C20         1.2087   -0.6342    0.6989 C.ar      1 <0>        -0.1213
     26 C21         2.3842    0.0458    0.4559 C.ar      1 <0>        -0.0523
     27 C22         3.5109    6.2020   -0.0941 C.3       1 <0>        -0.1129
     28 C23         3.5142    7.3472   -1.1088 C.3       1 <0>        -0.1345
     29 C24         4.6695    8.2904   -0.7782 C.3       1 <0>         0.1482
     30 C25         4.6733    9.4727   -1.7514 C.3       1 <0>         0.0183
     31 H2          3.7407   10.0204   -1.6161 H         1 <0>         0.1411
     32 C26         4.7733    9.0751   -3.2146 C.3       1 <0>        -0.0886
     33 O3          4.5258    8.7723    0.5594 O.3       1 <0>        -0.5415
     34 O4          7.5506    4.1357   -3.8032 O.3       1 <0>        -0.4783
     35 H3          7.6738   12.8191   -3.5024 H         1 <0>         0.1114
     36 H4          8.3373   13.8314   -2.0761 H         1 <0>         0.1239
     37 H5          6.6731   12.8963   -0.6381 H         1 <0>         0.1352
     38 H6          5.9832   11.3622   -3.2509 H         1 <0>         0.1326
     39 H7          4.7255   12.0226   -2.1783 H         1 <0>         0.1350
     40 H8          7.2309    9.3843   -2.5514 H         1 <0>         0.1332
     41 H9          7.8710   10.4267   -1.2595 H         1 <0>         0.1351
     42 H10         8.0992    7.9953   -0.7107 H         1 <0>         0.1203
     43 H11         7.0529    8.8492    0.4516 H         1 <0>         0.1091
     44 H12         5.4883    7.7678   -5.5831 H         1 <0>         0.1392
     45 H13         6.6718    5.6450   -5.7633 H         1 <0>         0.1433
     46 H14         2.8381    4.0120    0.4023 H         1 <0>         0.3880
     47 H15         1.2157    3.2200    0.7399 H         1 <0>         0.1189
     48 H16        -0.8694    1.9869    1.1655 H         1 <0>         0.1330
     49 H17        -0.8756   -0.4730    1.1438 H         1 <0>         0.1337
     50 H18         1.1991   -1.7141    0.6891 H         1 <0>         0.1372
     51 H19         3.2940   -0.5005    0.2557 H         1 <0>         0.1407
     52 H20         2.7212    5.4951   -0.3485 H         1 <0>         0.0848
     53 H21         3.3291    6.6025    0.9032 H         1 <0>         0.1050
     54 H22         3.6463    6.9453   -2.1133 H         1 <0>         0.0947
     55 H23         2.5697    7.8883   -1.0526 H         1 <0>         0.0949
     56 H24         3.7689    8.8916   -3.5962 H         1 <0>         0.1241
     57 H25         5.2101    9.9033   -3.7725 H         1 <0>         0.1060
     58 H26         3.7060    9.2608    0.7156 H         1 <0>         0.3931
     59 H27         6.9497    3.3781   -3.7947 H         1 <0>         0.4005
     60 N3          5.7734   10.3907   -1.3743 N.4       1 <0>        -0.3873
     61 H28         5.6529   10.6652   -0.3923 H         1 <0>         0.4322
@<TRIPOS>BOND
     1    1    2 2
     2    1   35 1
     3    1   36 1
     4    2    3 1
     5    2   37 1
     6    3   38 1
     7    3   39 1
     8    3   60 1
     9    4    5 1
    10    4   40 1
    11    4   41 1
    12    4   60 1
    13    5    6 1
    14    5   42 1
    15    5   43 1
    16    6   14 1
    17    6   29 1
    18    6    7 1
    19    7   12 ar
    20    7    8 ar
    21    8   32 1
    22    8    9 ar
    23    9   10 ar
    24    9   44 1
    25   10   11 ar
    26   10   45 1
    27   11   12 ar
    28   11   34 1
    29   12   13 1
    30   13   14 1
    31   14   15 1
    32   14   16 1
    33   16   17 2
    34   16   27 1
    35   17   18 1
    36   18   19 am
    37   18   46 1
    38   19   20 2
    39   19   21 1
    40   21   26 ar
    41   21   22 ar
    42   22   23 ar
    43   22   47 1
    44   23   24 ar
    45   23   48 1
    46   24   25 ar
    47   24   49 1
    48   25   26 ar
    49   25   50 1
    50   26   51 1
    51   27   28 1
    52   27   52 1
    53   27   53 1
    54   28   29 1
    55   28   54 1
    56   28   55 1
    57   29   30 1
    58   29   33 1
    59   30   31 1
    60   30   32 1
    61   30   60 1
    62   32   56 1
    63   32   57 1
    64   33   58 1
    65   34   59 1
    66   60   61 1
@<TRIPOS>MOLECULE
ZINC13479194
   52    57     0     0     0
SMALL
USER_CHARGES

@<TRIPOS>ATOM
      1 C1          0.8108    1.4939   -0.0984 C.3       1 <0>         0.0217
      2 O1          0.6735    0.0715   -0.0915 O.3       1 <0>        -0.2984
      3 C2          1.1937   -0.5938    0.9745 C.ar      1 <0>         0.1383
      4 C3          1.8268    0.0816    2.0161 C.ar      1 <0>        -0.1634
      5 C4          2.3970   -0.5607    3.1026 C.ar      1 <0>        -0.0842
      6 C5          2.3408   -1.9396    3.2059 C.ar      1 <0>        -0.0905
      7 C6          1.6513   -2.5864    2.2065 C.ar      1 <0>        -0.1644
      8 C7          1.1123   -1.9868    1.0777 C.ar      1 <0>         0.0933
      9 O2          0.6282   -2.9260    0.2365 O.3       1 <0>        -0.2592
     10 C8          1.1906   -4.2225    0.6012 C.3       1 <0>         0.0648
     11 H1          0.5001   -5.0353    0.3759 H         1 <0>         0.1591
     12 C9          1.4102   -4.0720    2.0953 C.3       1 <0>        -0.0296
     13 C10         0.1592   -4.4500    2.8851 C.3       1 <0>        -0.1232
     14 C11         0.3537   -4.0051    4.3398 C.3       1 <0>        -0.0094
     15 N1          1.5522   -4.6366    4.9010 N.4       1 <0>        -0.3728
     16 C12         2.7503   -4.2395    4.1525 C.3       1 <0>         0.0119
     17 H2          3.6049   -4.7408    4.6070 H         1 <0>         0.1434
     18 C13         2.9891   -2.7450    4.2845 C.3       1 <0>        -0.0870
     19 C14         2.6327   -4.7354    2.7087 C.3       1 <0>         0.1472
     20 C15         3.8873   -4.3599    1.9223 C.3       1 <0>        -0.1391
     21 C16         3.7525   -4.8996    0.4969 C.3       1 <0>        -0.1564
     22 C17         2.4792   -4.3776   -0.1517 C.2       1 <0>         0.3360
     23 O3          2.5101   -4.0496   -1.3135 O.2       1 <0>        -0.4075
     24 O4          2.4615   -6.1541    2.7021 O.3       1 <0>        -0.5421
     25 C18         1.7016   -4.2283    6.3041 C.3       1 <0>         0.0190
     26 C19         0.5519   -4.8094    7.1296 C.3       1 <0>        -0.2103
     27 C20        -0.4149   -3.8226    7.7870 C.3       1 <0>        -0.1680
     28 C21         0.5904   -4.5945    8.6439 C.3       1 <0>        -0.1478
     29 H3          1.8684    1.7570   -0.0766 H         1 <0>         0.0621
     30 H4          0.3543    1.8986   -1.0017 H         1 <0>         0.1114
     31 H5          0.3145    1.9111    0.7778 H         1 <0>         0.0618
     32 H6          1.8755    1.1597    1.9739 H         1 <0>         0.1428
     33 H7          2.8878    0.0167    3.8721 H         1 <0>         0.1393
     34 H8         -0.7093   -3.9468    2.4602 H         1 <0>         0.1198
     35 H9          0.0135   -5.5296    2.8476 H         1 <0>         0.1098
     36 H10         0.4656   -2.9214    4.3748 H         1 <0>         0.1322
     37 H11        -0.5173   -4.2965    4.9268 H         1 <0>         0.1385
     38 H12         4.0630   -2.5598    4.2607 H         1 <0>         0.1245
     39 H13         2.6019   -2.4136    5.2480 H         1 <0>         0.1044
     40 H14         3.9903   -3.2751    1.8944 H         1 <0>         0.0968
     41 H15         4.7631   -4.8005    2.3988 H         1 <0>         0.0992
     42 H16         4.6196   -4.5944   -0.0888 H         1 <0>         0.1098
     43 H17         3.7024   -5.9880    0.5256 H         1 <0>         0.1139
     44 H18         3.2060   -6.6419    3.0801 H         1 <0>         0.3953
     45 H19         2.6506   -4.5992    6.6914 H         1 <0>         0.1350
     46 H20         1.6826   -3.1405    6.3700 H         1 <0>         0.1321
     47 H21         0.1404   -5.7506    6.7651 H         1 <0>         0.1256
     48 H22        -0.2319   -2.7594    7.6315 H         1 <0>         0.1057
     49 H23        -1.4629   -4.1144    7.8551 H         1 <0>         0.1106
     50 H24         0.2039   -5.3942    9.2757 H         1 <0>         0.1127
     51 H25         1.4349   -4.0392    9.0521 H         1 <0>         0.1076
     52 H26         1.4505   -5.6395    4.8569 H         1 <0>         0.4277
@<TRIPOS>BOND
     1    1    2 1
     2    1   29 1
     3    1   30 1
     4    1   31 1
     5    2    3 1
     6    3    8 ar
     7    3    4 ar
     8    4    5 ar
     9    4   32 1
    10    5    6 ar
    11    5   33 1
    12    6   18 1
    13    6    7 ar
    14    7   12 1
    15    7    8 ar
    16    8    9 1
    17    9   10 1
    18   10   11 1
    19   10   22 1
    20   10   12 1
    21   12   19 1
    22   12   13 1
    23   13   14 1
    24   13   34 1
    25   13   35 1
    26   14   15 1
    27   14   36 1
    28   14   37 1
    29   15   16 1
    30   15   25 1
    31   15   52 1
    32   16   17 1
    33   16   18 1
    34   16   19 1
    35   18   38 1
    36   18   39 1
    37   19   20 1
    38   19   24 1
    39   20   21 1
    40   20   40 1
    41   20   41 1
    42   21   22 1
    43   21   42 1
    44   21   43 1
    45   22   23 2
    46   24   44 1
    47   25   26 1
    48   25   45 1
    49   25   46 1
    50   26   28 1
    51   26   27 1
    52   26   47 1
    53   27   28 1
    54   27   48 1
    55   27   49 1
    56   28   50 1
    57   28   51 1
@<TRIPOS>MOLECULE
ZINC00402954
   41    45     0     0     0
SMALL
USER_CHARGES
hydroxy-methyl-BLAHone
@<TRIPOS>ATOM
      1 C1         -0.2135    0.9214    4.9239 C.3       1 <0>        -0.0476
      2 C2         -0.5033    2.9750    3.6765 C.3       1 <0>        -0.0029
      3 C3         -1.1829    3.6001    2.4527 C.3       1 <0>        -0.1273
      4 C4         -0.6646    2.9034    1.1972 C.3       1 <0>        -0.0543
      5 C5          0.8376    3.0284    1.1241 C.ar      1 <0>        -0.1847
      6 C6          1.7593    2.2063    1.7302 C.ar      1 <0>        -0.0580
      7 C7          3.0861    2.5555    1.5529 C.ar      1 <0>        -0.1127
      8 C8          3.4206    3.6493    0.7709 C.ar      1 <0>        -0.0997
      9 C9          2.4778    4.4389    0.1166 C.ar      1 <0>         0.1147
     10 C10         1.1317    4.0961    0.2892 C.ar      1 <0>         0.0939
     11 O1         -0.0057    4.6213   -0.2144 O.3       1 <0>        -0.2582
     12 C11        -1.0780    3.6410   -0.0701 C.3       1 <0>         0.0754
     13 H1         -1.9949    4.0217    0.0499 H         1 <0>         0.1403
     14 C12        -1.0355    2.7509   -1.2772 C.2       1 <0>         0.3295
     15 O2         -0.8673    3.2573   -2.3606 O.2       1 <0>        -0.4051
     16 C13        -1.1916    1.2619   -1.2005 C.3       1 <0>        -0.1527
     17 C14        -0.4320    0.7164    0.0103 C.3       1 <0>        -0.1119
     18 C15        -0.9456    1.4119    1.2699 C.3       1 <0>        -0.0844
     19 H2         -2.0191    1.2487    1.3653 H         1 <0>         0.1118
     20 C16        -0.2294    0.8623    2.5031 C.3       1 <0>         0.0480
     21 H3         -0.4628   -0.1994    2.5824 H         1 <0>         0.1431
     22 C17         1.2843    0.9889    2.4548 C.3       1 <0>        -0.0903
     23 O3          2.8485    5.4957   -0.6549 O.3       1 <0>        -0.4780
     24 H4         -0.7678    1.2869    5.7884 H         1 <0>         0.1259
     25 H5         -0.3084   -0.1627    4.8633 H         1 <0>         0.1257
     26 H6          0.8381    1.1889    5.0270 H         1 <0>         0.1249
     27 H7          0.5707    3.1542    3.6256 H         1 <0>         0.1343
     28 H8         -0.9035    3.4276    4.5838 H         1 <0>         0.1348
     29 H9         -0.9456    4.6629    2.4056 H         1 <0>         0.1194
     30 H10        -2.2622    3.4667    2.5258 H         1 <0>         0.1024
     31 H11         3.8636    1.9735    2.0253 H         1 <0>         0.1401
     32 H12         4.4650    3.9022    0.6628 H         1 <0>         0.1442
     33 H13        -0.8247    0.8450   -2.0321 H         1 <0>         0.0976
     34 H14        -2.2488    1.0136   -1.1060 H         1 <0>         0.1125
     35 H15        -0.5980   -0.3577    0.0923 H         1 <0>         0.0979
     36 H16         0.6335    0.9137   -0.1075 H         1 <0>         0.0868
     37 H17         1.6939    0.1074    1.9616 H         1 <0>         0.1257
     38 H18         1.6632    1.0210    3.4764 H         1 <0>         0.1034
     39 H19         2.9111    6.3318   -0.1729 H         1 <0>         0.3992
     40 N1         -0.7894    1.5227    3.7050 N.4       1 <0>        -0.3950
     41 H20        -1.8069    1.3854    3.7148 H         1 <0>         0.4312
@<TRIPOS>BOND
     1    1   24 1
     2    1   25 1
     3    1   26 1
     4    1   40 1
     5    2    3 1
     6    2   27 1
     7    2   28 1
     8    2   40 1
     9    3    4 1
    10    3   29 1
    11    3   30 1
    12    4   12 1
    13    4   18 1
    14    4    5 1
    15    5   10 ar
    16    5    6 ar
    17    6   22 1
    18    6    7 ar
    19    7    8 ar
    20    7   31 1
    21    8    9 ar
    22    8   32 1
    23    9   10 ar
    24    9   23 1
    25   10   11 1
    26   11   12 1
    27   12   13 1
    28   12   14 1
    29   14   15 2
    30   14   16 1
    31   16   17 1
    32   16   33 1
    33   16   34 1
    34   17   18 1
    35   17   35 1
    36   17   36 1
    37   18   19 1
    38   18   20 1
    39   20   21 1
    40   20   22 1
    41   20   40 1
    42   22   37 1
    43   22   38 1
    44   23   39 1
    45   40   41 1
@<TRIPOS>MOLECULE
ZINC05599926
   47    51     0     0     0
SMALL
USER_CHARGES
dimethoxy-methyl-BLAH
@<TRIPOS>ATOM
      1 C1         -2.8869    1.5933   -2.3993 C.3       1 <0>        -0.0467
      2 C2         -0.8706    1.8321   -1.0856 C.3       1 <0>        -0.0041
      3 C3         -0.0922    1.3224    0.1364 C.3       1 <0>        -0.1253
      4 C4         -0.9656    1.5652    1.3694 C.3       1 <0>        -0.0572
      5 C5         -1.3041    3.0339    1.4382 C.ar      1 <0>        -0.1580
      6 C6         -2.3820    3.6635    0.8652 C.ar      1 <0>        -0.0853
      7 C7         -2.4282    5.0362    1.0299 C.ar      1 <0>        -0.0970
      8 C8         -1.4455    5.6824    1.7635 C.ar      1 <0>        -0.1669
      9 C9         -0.3856    5.0206    2.3804 C.ar      1 <0>         0.1328
     10 C10        -0.3247    3.6329    2.2200 C.ar      1 <0>         0.1385
     11 O1          0.5198    2.6910    2.6998 O.3       1 <0>        -0.2746
     12 C11        -0.2048    1.4055    2.6802 C.3       1 <0>         0.1074
     13 H1          0.4432    0.5294    2.7057 H         1 <0>         0.1488
     14 C12        -1.1407    1.5094    3.8902 C.3       1 <0>         0.0926
     15 H2         -0.7129    0.9285    4.7073 H         1 <0>         0.0845
     16 C13        -2.5261    1.0309    3.6493 C.2       1 <0>        -0.1418
     17 C14        -3.0579    0.7512    2.5018 C.2       1 <0>        -0.1317
     18 C15        -2.2626    0.8049    1.2101 C.3       1 <0>        -0.0508
     19 H3         -1.9910   -0.2198    0.9565 H         1 <0>         0.0988
     20 C16        -3.0095    1.3776    0.0132 C.3       1 <0>         0.0585
     21 H4         -3.9240    0.7975   -0.1104 H         1 <0>         0.1381
     22 C17        -3.3925    2.8436    0.1315 C.3       1 <0>        -0.0805
     23 O2         -1.2002    2.8775    4.2988 O.3       1 <0>        -0.3564
     24 C18        -1.4296    3.0569    5.6978 C.3       1 <0>         0.0284
     25 O3          0.5471    5.6939    3.1059 O.3       1 <0>        -0.3020
     26 C19         0.3917    7.1108    3.2069 C.3       1 <0>         0.0239
     27 H5         -2.3557    1.2251   -3.2770 H         1 <0>         0.1247
     28 H6         -3.8974    1.1849   -2.3883 H         1 <0>         0.1240
     29 H7         -2.9352    2.6816   -2.4338 H         1 <0>         0.1257
     30 H8         -1.0185    2.9080   -0.9932 H         1 <0>         0.1348
     31 H9         -0.2959    1.6255   -1.9884 H         1 <0>         0.1309
     32 H10         0.1098    0.2567    0.0292 H         1 <0>         0.0983
     33 H11         0.8457    1.8693    0.2330 H         1 <0>         0.1204
     34 H12        -3.2314    5.6056    0.5860 H         1 <0>         0.1306
     35 H13        -1.5047    6.7562    1.8627 H         1 <0>         0.1337
     36 H14        -3.1534    0.9029    4.5191 H         1 <0>         0.1200
     37 H15        -4.0977    0.4615    2.4643 H         1 <0>         0.1295
     38 H16        -3.5150    3.2547   -0.8705 H         1 <0>         0.0975
     39 H17        -4.3463    2.9145    0.6544 H         1 <0>         0.1182
     40 H18        -0.6231    2.5877    6.2613 H         1 <0>         0.0483
     41 H19        -1.4613    4.1220    5.9271 H         1 <0>         0.0904
     42 H20        -2.3794    2.5977    5.9720 H         1 <0>         0.0437
     43 H21         0.4216    7.5515    2.2104 H         1 <0>         0.0579
     44 H22        -0.5652    7.3388    3.6764 H         1 <0>         0.0586
     45 H23         1.2001    7.5229    3.8108 H         1 <0>         0.1068
     46 N1         -2.1754    1.1329   -1.1939 N.4       1 <0>        -0.3969
     47 H24        -2.0028    0.1240   -1.2749 H         1 <0>         0.4287
@<TRIPOS>BOND
     1    1   27 1
     2    1   28 1
     3    1   29 1
     4    1   46 1
     5    2    3 1
     6    2   30 1
     7    2   31 1
     8    2   46 1
     9    3    4 1
    10    3   32 1
    11    3   33 1
    12    4   12 1
    13    4   18 1
    14    4    5 1
    15    5   10 ar
    16    5    6 ar
    17    6   22 1
    18    6    7 ar
    19    7    8 ar
    20    7   34 1
    21    8    9 ar
    22    8   35 1
    23    9   10 ar
    24    9   25 1
    25   10   11 1
    26   11   12 1
    27   12   13 1
    28   12   14 1
    29   14   15 1
    30   14   16 1
    31   14   23 1
    32   16   17 2
    33   16   36 1
    34   17   18 1
    35   17   37 1
    36   18   19 1
    37   18   20 1
    38   20   21 1
    39   20   22 1
    40   20   46 1
    41   22   38 1
    42   22   39 1
    43   23   24 1
    44   24   40 1
    45   24   41 1
    46   24   42 1
    47   25   26 1
    48   26   43 1
    49   26   44 1
    50   26   45 1
    51   46   47 1
