@<TRIPOS>MOLECULE
ZINC14089740
   60    65     0     0     0
SMALL
USER_CHARGES
(2S,3S,4S,5R,6R)-3,4,5-trihydroxy-6-(hydroxy-methyl-BLAHyl)oxy-tetrahydropyran-2-carboxylic acid
@<TRIPOS>ATOM
      1 C1          2.2238   -3.3128    8.0696 C.3       1 <0>        -0.0471
      2 C2          3.4617   -1.4602    7.1304 C.3       1 <0>        -0.0033
      3 C3          3.4604    0.0510    6.8535 C.3       1 <0>        -0.1222
      4 C4          2.2591    0.3419    5.9499 C.3       1 <0>        -0.0575
      5 C5          2.3752   -0.5146    4.7140 C.ar      1 <0>        -0.1776
      6 C6          1.8556   -1.7726    4.5248 C.ar      1 <0>        -0.0492
      7 C7          2.1142   -2.3494    3.2944 C.ar      1 <0>        -0.1194
      8 C8          2.8193   -1.6464    2.3302 C.ar      1 <0>        -0.1005
      9 C9          3.2861   -0.3467    2.5162 C.ar      1 <0>         0.1020
     10 C10         3.0344    0.2470    3.7569 C.ar      1 <0>         0.1420
     11 O1          3.2757    1.4871    4.2413 O.3       1 <0>        -0.2773
     12 C11         2.3032    1.7313    5.3230 C.3       1 <0>         0.1113
     13 H1          2.5850    2.5167    6.0243 H         1 <0>         0.1520
     14 C12         1.0050    2.0292    4.5642 C.3       1 <0>         0.0974
     15 H2          0.8451    3.1074    4.5659 H         1 <0>         0.0841
     16 C13        -0.2057    1.3748    5.1224 C.2       1 <0>        -0.1210
     17 C14        -0.2362    0.4448    6.0190 C.2       1 <0>        -0.1521
     18 C15         0.9959   -0.0584    6.6750 C.3       1 <0>        -0.0436
     19 H3          1.0359    0.4052    7.6606 H         1 <0>         0.0950
     20 C16         1.0254   -1.5652    6.8918 C.3       1 <0>         0.0574
     21 H4          0.1286   -1.8319    7.4512 H         1 <0>         0.1387
     22 C17         1.0512   -2.3956    5.6193 C.3       1 <0>        -0.0857
     23 O2          1.1655    1.6011    3.2103 O.3       1 <0>        -0.3396
     24 C18         0.2700    2.2305    2.2916 C.3       1 <0>         0.2181
     25 H5          0.2050    3.2947    2.5185 H         1 <0>         0.0634
     26 C19         0.7891    2.0438    0.8636 C.3       1 <0>         0.1027
     27 H6          0.8929    0.9800    0.6499 H         1 <0>         0.0766
     28 C20        -0.2062    2.6686   -0.1189 C.3       1 <0>         0.1245
     29 H7         -0.2730    3.7413    0.0623 H         1 <0>         0.0706
     30 C21        -1.5819    2.0274    0.0881 C.3       1 <0>         0.0696
     31 H8         -1.5260    0.9633   -0.1413 H         1 <0>         0.0663
     32 C22        -2.0094    2.2147    1.5461 C.3       1 <0>         0.0224
     33 H9         -2.1043    3.2787    1.7632 H         1 <0>         0.0715
     34 O3         -1.0254    1.6385    2.4074 O.3       1 <0>        -0.3592
     35 C23        -3.3353    1.5352    1.7724 C.2       1 <0>         0.4750
     36 O4         -3.4097    0.5899    2.5213 O.co2     1 <0>        -0.6071
     37 O5         -2.5347    2.6524   -0.7743 O.3       1 <0>        -0.5639
     38 O6          0.2335    2.4347   -1.4584 O.3       1 <0>        -0.5511
     39 O7          2.0594    2.6842    0.7283 O.3       1 <0>        -0.5421
     40 O8          3.9561    0.3149    1.5349 O.3       1 <0>        -0.4845
     41 H10         2.4155   -3.8965    7.1692 H         1 <0>         0.1260
     42 H11         3.0144   -3.4967    8.7971 H         1 <0>         0.1221
     43 H12         1.2637   -3.6054    8.4946 H         1 <0>         0.1233
     44 H13         4.2776   -1.6986    7.8127 H         1 <0>         0.1277
     45 H14         3.6115   -1.9960    6.1931 H         1 <0>         0.1344
     46 H15         4.3831    0.3370    6.3486 H         1 <0>         0.1188
     47 H16         3.3625    0.6002    7.7899 H         1 <0>         0.0963
     48 H17         1.7661   -3.3500    3.0847 H         1 <0>         0.1323
     49 H18         3.0170   -2.1310    1.3855 H         1 <0>         0.1352
     50 H19        -1.1593    1.7101    4.7421 H         1 <0>         0.1357
     51 H20        -1.1883    0.0189    6.2995 H         1 <0>         0.1302
     52 H21         0.0280   -2.5303    5.2686 H         1 <0>         0.1261
     53 H22         1.4716   -3.3747    5.8488 H         1 <0>         0.0980
     54 H23        -3.4302    2.2964   -0.6946 H         1 <0>         0.4068
     55 H24        -0.3547    2.7982   -2.1345 H         1 <0>         0.3908
     56 H25         2.7085    2.4146    1.3925 H         1 <0>         0.3768
     57 H26         3.3811    0.7547    0.8938 H         1 <0>         0.3916
     58 N1          2.1866   -1.8711    7.7705 N.4       1 <0>        -0.3963
     59 H27         2.0780   -1.3521    8.6497 H         1 <0>         0.4274
     60 O9         -4.4337    1.9800    1.1419 O.co2     1 <0>        -0.7395
@<TRIPOS>BOND
     1    1   41 1
     2    1   42 1
     3    1   43 1
     4    1   58 1
     5    2    3 1
     6    2   44 1
     7    2   45 1
     8    2   58 1
     9    3    4 1
    10    3   46 1
    11    3   47 1
    12    4   12 1
    13    4   18 1
    14    4    5 1
    15    5   10 ar
    16    5    6 ar
    17    6   22 1
    18    6    7 ar
    19    7    8 ar
    20    7   48 1
    21    8    9 ar
    22    8   49 1
    23    9   10 ar
    24    9   40 1
    25   10   11 1
    26   11   12 1
    27   12   13 1
    28   12   14 1
    29   14   15 1
    30   14   16 1
    31   14   23 1
    32   16   17 2
    33   16   50 1
    34   17   18 1
    35   17   51 1
    36   18   19 1
    37   18   20 1
    38   20   21 1
    39   20   22 1
    40   20   58 1
    41   22   52 1
    42   22   53 1
    43   23   24 1
    44   24   25 1
    45   24   34 1
    46   24   26 1
    47   26   27 1
    48   26   28 1
    49   26   39 1
    50   28   29 1
    51   28   30 1
    52   28   38 1
    53   30   31 1
    54   30   32 1
    55   30   37 1
    56   32   33 1
    57   32   34 1
    58   32   35 1
    59   35   36 2
    60   35   60 1
    61   37   54 1
    62   38   55 1
    63   39   56 1
    64   40   57 1
    65   58   59 1
@<TRIPOS>MOLECULE
ZINC14951634
   79    82     0     0     0
SMALL
USER_CHARGES

@<TRIPOS>ATOM
      1 C1          1.9517   -1.5464   -0.2337 C.ar      1 <0>        -0.1169
      2 C2          2.3865   -0.2352   -0.2842 C.ar      1 <0>        -0.1137
      3 C3          3.7298    0.0539   -0.1328 C.ar      1 <0>        -0.1108
      4 C4          4.6382   -0.9682    0.0695 C.ar      1 <0>        -0.0879
      5 C5          4.2033   -2.2793    0.1209 C.ar      1 <0>        -0.1137
      6 C6          2.8602   -2.5685   -0.0319 C.ar      1 <0>        -0.1154
      7 C7          6.1028   -0.6531    0.2336 C.3       1 <0>        -0.0836
      8 C8          6.4134   -0.4287    1.7148 C.3       1 <0>         0.1354
      9 H1          6.0883   -1.2959    2.2896 H         1 <0>         0.1175
     10 C9          7.8972   -0.2352    1.8932 C.2       1 <0>         0.5074
     11 O1          8.3214    0.7970    2.3681 O.2       1 <0>        -0.5284
     12 N1          8.7529   -1.2093    1.5251 N.am      1 <0>        -0.8529
     13 N2          5.7052    0.7636    2.1871 N.am      1 <0>        -0.7039
     14 C10         5.4004    0.8931    3.4935 C.2       1 <0>         0.5162
     15 O2          5.7125    0.0226    4.2782 O.2       1 <0>        -0.5249
     16 C11         4.6719    2.1196    3.9794 C.3       1 <0>         0.1415
     17 H2          3.7081    2.1931    3.4756 H         1 <0>         0.1171
     18 C12         5.5057    3.3644    3.6691 C.3       1 <0>        -0.0819
     19 C13         4.7418    4.5963    4.0814 C.ar      1 <0>        -0.0827
     20 C14         3.8040    5.1461    3.2276 C.ar      1 <0>        -0.1123
     21 C15         3.1033    6.2760    3.6058 C.ar      1 <0>        -0.1140
     22 C16         3.3401    6.8560    4.8381 C.ar      1 <0>        -0.1172
     23 C17         4.2773    6.3057    5.6923 C.ar      1 <0>        -0.1138
     24 C18         4.9750    5.1732    5.3158 C.ar      1 <0>        -0.1107
     25 N3          4.4608    2.0213    5.4257 N.am      1 <0>        -0.7019
     26 C19         3.3749    1.3840    5.9064 C.2       1 <0>         0.5262
     27 O3          2.5258    0.9733    5.1440 O.2       1 <0>        -0.5234
     28 C20         3.2157    1.1818    7.3913 C.3       1 <0>         0.1205
     29 H3          3.6102    2.0451    7.9272 H         1 <0>         0.0932
     30 C21         3.9632   -0.0950    7.8302 C.3       1 <0>        -0.1185
     31 C22         3.0148   -0.7036    8.8968 C.3       1 <0>        -0.1312
     32 C23         1.6238   -0.3464    8.3162 C.3       1 <0>         0.0966
     33 N4          1.7951    0.9949    7.7210 N.am      1 <0>        -0.5969
     34 C24         0.8155    1.8972    7.5142 C.2       1 <0>         0.5010
     35 O4          1.0615    2.9397    6.9455 O.2       1 <0>        -0.5303
     36 C25        -0.5855    1.6105    7.9897 C.3       1 <0>         0.0897
     37 H4         -0.5463    1.1302    8.9674 H         1 <0>         0.1032
     38 C26        -1.2824    0.6822    6.9930 C.3       1 <0>        -0.0652
     39 C27        -2.6375    0.2971    7.5281 C.ar      1 <0>        -0.0769
     40 C28        -2.7719   -0.8261    8.3232 C.ar      1 <0>        -0.1026
     41 C29        -4.0131   -1.1815    8.8146 C.ar      1 <0>        -0.1458
     42 C30        -5.1252   -0.4102    8.5100 C.ar      1 <0>         0.1003
     43 C31        -4.9877    0.7165    7.7124 C.ar      1 <0>        -0.1452
     44 C32        -3.7435    1.0706    7.2278 C.ar      1 <0>        -0.0732
     45 O5         -6.3474   -0.7580    8.9919 O.3       1 <0>        -0.5017
     46 N5         -1.3350    2.8698    8.0926 N.3       1 <0>        -0.8131
     47 H5          0.9017   -1.7719   -0.3475 H         1 <0>         0.1222
     48 H6          1.6768    0.5634   -0.4423 H         1 <0>         0.1228
     49 H7          4.0696    1.0783   -0.1730 H         1 <0>         0.1183
     50 H8          4.9131   -3.0779    0.2787 H         1 <0>         0.1220
     51 H9          2.5205   -3.5929    0.0079 H         1 <0>         0.1230
     52 H10         6.6978   -1.4864   -0.1402 H         1 <0>         0.0950
     53 H11         6.3458    0.2481   -0.3292 H         1 <0>         0.0875
     54 H12         8.4136   -2.0348    1.1453 H         1 <0>         0.4014
     55 H13         9.7080   -1.0847    1.6399 H         1 <0>         0.4043
     56 H14         5.4555    1.4598    1.5595 H         1 <0>         0.4029
     57 H15         6.4456    3.3186    4.2193 H         1 <0>         0.0879
     58 H16         5.7124    3.4060    2.5997 H         1 <0>         0.0933
     59 H17         3.6190    4.6930    2.2649 H         1 <0>         0.1200
     60 H18         2.3711    6.7060    2.9384 H         1 <0>         0.1215
     61 H19         2.7932    7.7392    5.1333 H         1 <0>         0.1205
     62 H20         4.4626    6.7589    6.6549 H         1 <0>         0.1207
     63 H21         5.7045    4.7411    5.9847 H         1 <0>         0.1176
     64 H22         5.1025    2.4149    6.0374 H         1 <0>         0.4024
     65 H23         4.0868   -0.7777    6.9896 H         1 <0>         0.0868
     66 H24         4.9285    0.1553    8.2703 H         1 <0>         0.0923
     67 H25         3.1445   -1.7837    8.9641 H         1 <0>         0.0919
     68 H26         3.1655   -0.2323    9.8680 H         1 <0>         0.0818
     69 H27         1.3352   -1.0679    7.5517 H         1 <0>         0.0763
     70 H28         0.8779   -0.3151    9.1104 H         1 <0>         0.0835
     71 H29        -1.4011    1.1965    6.0393 H         1 <0>         0.0795
     72 H30        -0.6801   -0.2148    6.8495 H         1 <0>         0.0816
     73 H31        -1.9057   -1.4262    8.5600 H         1 <0>         0.1232
     74 H32        -4.1176   -2.0594    9.4350 H         1 <0>         0.1264
     75 H33        -5.8521    1.3186    7.4739 H         1 <0>         0.1265
     76 H34        -3.6352    1.9502    6.6104 H         1 <0>         0.1254
     77 H35        -6.5573   -0.3671    9.8511 H         1 <0>         0.3899
     78 H36        -0.9315    3.4746    8.7922 H         1 <0>         0.3457
     79 H37        -1.3855    3.3345    7.1984 H         1 <0>         0.3507
@<TRIPOS>BOND
     1    1    6 ar
     2    1    2 ar
     3    1   47 1
     4    2    3 ar
     5    2   48 1
     6    3    4 ar
     7    3   49 1
     8    4    5 ar
     9    4    7 1
    10    5    6 ar
    11    5   50 1
    12    6   51 1
    13    7    8 1
    14    7   52 1
    15    7   53 1
    16    8    9 1
    17    8   10 1
    18    8   13 1
    19   10   11 2
    20   10   12 am
    21   12   54 1
    22   12   55 1
    23   13   14 am
    24   13   56 1
    25   14   15 2
    26   14   16 1
    27   16   17 1
    28   16   18 1
    29   16   25 1
    30   18   19 1
    31   18   57 1
    32   18   58 1
    33   19   24 ar
    34   19   20 ar
    35   20   21 ar
    36   20   59 1
    37   21   22 ar
    38   21   60 1
    39   22   23 ar
    40   22   61 1
    41   23   24 ar
    42   23   62 1
    43   24   63 1
    44   25   26 am
    45   25   64 1
    46   26   27 2
    47   26   28 1
    48   28   29 1
    49   28   33 1
    50   28   30 1
    51   30   31 1
    52   30   65 1
    53   30   66 1
    54   31   32 1
    55   31   67 1
    56   31   68 1
    57   32   33 1
    58   32   69 1
    59   32   70 1
    60   33   34 am
    61   34   35 2
    62   34   36 1
    63   36   37 1
    64   36   38 1
    65   36   46 1
    66   38   39 1
    67   38   71 1
    68   38   72 1
    69   39   44 ar
    70   39   40 ar
    71   40   41 ar
    72   40   73 1
    73   41   42 ar
    74   41   74 1
    75   42   43 ar
    76   42   45 1
    77   43   44 ar
    78   43   75 1
    79   44   76 1
    80   45   77 1
    81   46   78 1
    82   46   79 1
@<TRIPOS>MOLECULE
ZINC01553549
   42    43     0     0     0
SMALL
USER_CHARGES

@<TRIPOS>ATOM
      1 C1          3.7304    2.7228   -2.5053 C.3       1 <0>        -0.1071
      2 C2          3.1937    2.2004   -1.1975 C.ar      1 <0>        -0.0940
      3 C3          2.0511    1.4240   -1.1806 C.ar      1 <0>        -0.1103
      4 C4          1.5575    0.9429    0.0228 C.ar      1 <0>         0.0861
      5 C5          2.2078    1.2460    1.2100 C.ar      1 <0>        -0.1117
      6 C6          3.3532    2.0174    1.1925 C.ar      1 <0>        -0.1797
      7 C7          3.8470    2.4987   -0.0112 C.ar      1 <0>         0.1088
      8 O1          4.9714    3.2633   -0.0279 O.3       1 <0>        -0.3056
      9 C8          5.5260    3.6290    1.2373 C.3       1 <0>         0.1376
     10 H1          4.7205    3.7981    1.9519 H         1 <0>         0.0902
     11 C9          6.3478    4.9103    1.0827 C.3       1 <0>        -0.1403
     12 C10         5.4226    6.0662    0.6969 C.3       1 <0>        -0.0094
     13 C11         5.3543    8.4301    0.1775 C.3       1 <0>        -0.0434
     14 C12         6.4151    2.5191    1.7358 C.ar      1 <0>        -0.1358
     15 C13         7.2338    1.8400    0.8530 C.ar      1 <0>        -0.0908
     16 C14         8.0526    0.8247    1.3111 C.ar      1 <0>        -0.1177
     17 C15         8.0459    0.4825    2.6504 C.ar      1 <0>        -0.1026
     18 C16         7.2233    1.1581    3.5323 C.ar      1 <0>        -0.1162
     19 C17         6.4077    2.1762    3.0750 C.ar      1 <0>        -0.1079
     20 O2          0.4329    0.1786    0.0395 O.3       1 <0>        -0.4966
     21 H2          3.2861    3.6952   -2.7178 H         1 <0>         0.0686
     22 H3          4.8135    2.8249   -2.4386 H         1 <0>         0.0701
     23 H4          3.4796    2.0261   -3.3052 H         1 <0>         0.0706
     24 H5          1.5425    1.1914   -2.1045 H         1 <0>         0.1390
     25 H6          1.8206    0.8753    2.1476 H         1 <0>         0.1338
     26 H7          3.8618    2.2500    2.1164 H         1 <0>         0.1315
     27 H8          6.8428    5.1405    2.0261 H         1 <0>         0.1084
     28 H9          7.0973    4.7694    0.3039 H         1 <0>         0.1025
     29 H10         4.9275    5.8360   -0.2465 H         1 <0>         0.1389
     30 H11         4.6730    6.2071    1.4757 H         1 <0>         0.1317
     31 H12         5.9638    9.3279    0.0741 H         1 <0>         0.1264
     32 H13         4.8588    8.2163   -0.7695 H         1 <0>         0.1233
     33 H14         4.6043    8.5874    0.9526 H         1 <0>         0.1227
     34 H15         7.2363    2.1049   -0.1940 H         1 <0>         0.1255
     35 H16         8.6955    0.2971    0.6221 H         1 <0>         0.1278
     36 H17         8.6836   -0.3124    3.0078 H         1 <0>         0.1285
     37 H18         7.2181    0.8907    4.5786 H         1 <0>         0.1288
     38 H19         5.7650    2.7041    3.7640 H         1 <0>         0.1228
     39 H20         0.6007   -0.7700   -0.0443 H         1 <0>         0.3945
     40 N1          6.2222    7.2970    0.5498 N.4       1 <0>        -0.5191
     41 H21         6.9285    7.1566   -0.1821 H         1 <0>         0.4358
     42 H22         6.6889    7.5061    1.4402 H         1 <0>         0.4343
@<TRIPOS>BOND
     1    1    2 1
     2    1   21 1
     3    1   22 1
     4    1   23 1
     5    2    7 ar
     6    2    3 ar
     7    3    4 ar
     8    3   24 1
     9    4    5 ar
    10    4   20 1
    11    5    6 ar
    12    5   25 1
    13    6    7 ar
    14    6   26 1
    15    7    8 1
    16    8    9 1
    17    9   10 1
    18    9   11 1
    19    9   14 1
    20   11   12 1
    21   11   27 1
    22   11   28 1
    23   12   29 1
    24   12   30 1
    25   12   40 1
    26   13   31 1
    27   13   32 1
    28   13   33 1
    29   13   40 1
    30   14   19 ar
    31   14   15 ar
    32   15   16 ar
    33   15   34 1
    34   16   17 ar
    35   16   35 1
    36   17   18 ar
    37   17   36 1
    38   18   19 ar
    39   18   37 1
    40   19   38 1
    41   20   39 1
    42   40   41 1
    43   40   42 1
@<TRIPOS>MOLECULE
ZINC03984030
   58    63     0     0     0
SMALL
USER_CHARGES
8-[5-(5,7-dihydroxy-4-oxo-chromen-2-yl)-2-hydroxy-phenyl]-5,7-dihydroxy-2-(4-hydroxyphenyl)chromen-4-one
@<TRIPOS>ATOM
      1 C1         -6.6020    1.8042    6.0990 C.ar      1 <0>        -0.0607
      2 C2         -5.9382    1.4440    7.2507 C.ar      1 <0>        -0.1468
      3 C3         -4.7115    0.7954    7.1742 C.ar      1 <0>         0.1378
      4 C4         -4.1521    0.5021    5.9364 C.ar      1 <0>        -0.1491
      5 C5         -4.8118    0.8534    4.7796 C.ar      1 <0>        -0.0601
      6 C6         -6.0457    1.5059    4.8519 C.ar      1 <0>        -0.0854
      7 C7         -6.7560    1.8841    3.6156 C.2       1 <0>         0.2075
      8 C8         -7.9553    2.5182    3.7175 C.2       1 <0>        -0.3096
      9 C9         -8.6505    2.8878    2.5419 C.2       1 <0>         0.4236
     10 O1         -9.7281    3.4581    2.5954 O.2       1 <0>        -0.4510
     11 C10        -8.0226    2.5578    1.2508 C.ar      1 <0>        -0.2639
     12 C11        -8.6408    2.8871    0.0370 C.ar      1 <0>         0.2260
     13 C12        -8.0238    2.5633   -1.1580 C.ar      1 <0>        -0.2031
     14 C13        -6.7962    1.9146   -1.1593 C.ar      1 <0>         0.2147
     15 C14        -6.1693    1.5806    0.0441 C.ar      1 <0>        -0.1114
     16 C15        -6.7847    1.8965    1.2584 C.ar      1 <0>         0.1942
     17 O2         -6.1949    1.5893    2.4322 O.3       1 <0>        -0.2149
     18 C16        -4.8586    0.8881    0.0326 C.ar      1 <0>        -0.0643
     19 C17        -3.6811    1.6258    0.0345 C.ar      1 <0>        -0.0359
     20 C18        -2.4507    0.9671    0.0193 C.ar      1 <0>        -0.0795
     21 C19        -2.4076   -0.4306    0.0120 C.ar      1 <0>        -0.0561
     22 C20        -3.5773   -1.1593    0.0145 C.ar      1 <0>        -0.1433
     23 C21        -4.8042   -0.5114    0.0247 C.ar      1 <0>         0.1513
     24 O3         -5.9530   -1.2346    0.0276 O.3       1 <0>        -0.4914
     25 C22        -1.1969    1.7446    0.0172 C.2       1 <0>         0.2090
     26 C23        -0.0126    1.0758    0.0080 C.2       1 <0>        -0.3096
     27 C24         1.2002    1.8049    0.0003 C.2       1 <0>         0.4229
     28 O4          2.2808    1.2378   -0.0122 O.2       1 <0>        -0.4531
     29 C25         1.1075    3.2746    0.0085 C.ar      1 <0>        -0.2660
     30 C26         2.2563    4.0758    0.0013 C.ar      1 <0>         0.2193
     31 C27         2.1265    5.4522    0.0089 C.ar      1 <0>        -0.2047
     32 C28         0.8637    6.0348    0.0232 C.ar      1 <0>         0.1929
     33 C29        -0.2774    5.2478    0.0309 C.ar      1 <0>        -0.1830
     34 C30        -0.1673    3.8660    0.0234 C.ar      1 <0>         0.1835
     35 O5         -1.2685    3.0851    0.0294 O.3       1 <0>        -0.2179
     36 O6          0.7475    7.3873    0.0302 O.3       1 <0>        -0.4872
     37 O7          3.4876    3.5054   -0.0136 O.3       1 <0>        -0.4723
     38 O8         -6.2009    1.6021   -2.3382 O.3       1 <0>        -0.4809
     39 O9         -9.8401    3.5219    0.0339 O.3       1 <0>        -0.4713
     40 O10        -4.0576    0.4477    8.3120 O.3       1 <0>        -0.4966
     41 H1         -7.5530    2.3125    6.1593 H         1 <0>         0.1416
     42 H2         -6.3694    1.6701    8.2147 H         1 <0>         0.1417
     43 H3         -3.1984   -0.0018    5.8814 H         1 <0>         0.1389
     44 H4         -4.3761    0.6254    3.8180 H         1 <0>         0.1375
     45 H5         -8.3735    2.7383    4.6886 H         1 <0>         0.1643
     46 H6         -8.4990    2.8165   -2.0942 H         1 <0>         0.1534
     47 H7         -3.7179    2.7051    0.0447 H         1 <0>         0.1398
     48 H8         -1.4554   -0.9401    0.0047 H         1 <0>         0.1436
     49 H9         -3.5389   -2.2386    0.0088 H         1 <0>         0.1450
     50 H10        -6.2808   -1.4486    0.9118 H         1 <0>         0.3974
     51 H11         0.0021   -0.0041    0.0020 H         1 <0>         0.1641
     52 H12         3.0078    6.0765    0.0034 H         1 <0>         0.1502
     53 H13        -1.2527    5.7115    0.0424 H         1 <0>         0.1530
     54 H14         0.7056    7.7831   -0.8511 H         1 <0>         0.4041
     55 H15         3.8358    3.3444   -0.9013 H         1 <0>         0.4032
     56 H16        -6.4413    0.7307   -2.6814 H         1 <0>         0.4051
     57 H17       -10.6010    2.9252    0.0313 H         1 <0>         0.4046
     58 H18        -3.4554    1.1280    8.6431 H         1 <0>         0.3992
@<TRIPOS>BOND
     1    1    6 ar
     2    1    2 ar
     3    1   41 1
     4    2    3 ar
     5    2   42 1
     6    3    4 ar
     7    3   40 1
     8    4    5 ar
     9    4   43 1
    10    5    6 ar
    11    5   44 1
    12    6    7 1
    13    7   17 1
    14    7    8 2
    15    8    9 1
    16    8   45 1
    17    9   10 2
    18    9   11 1
    19   11   16 ar
    20   11   12 ar
    21   12   13 ar
    22   12   39 1
    23   13   14 ar
    24   13   46 1
    25   14   15 ar
    26   14   38 1
    27   15   16 ar
    28   15   18 1
    29   16   17 1
    30   18   23 ar
    31   18   19 ar
    32   19   20 ar
    33   19   47 1
    34   20   21 ar
    35   20   25 1
    36   21   22 ar
    37   21   48 1
    38   22   23 ar
    39   22   49 1
    40   23   24 1
    41   24   50 1
    42   25   35 1
    43   25   26 2
    44   26   27 1
    45   26   51 1
    46   27   28 2
    47   27   29 1
    48   29   34 ar
    49   29   30 ar
    50   30   31 ar
    51   30   37 1
    52   31   32 ar
    53   31   52 1
    54   32   33 ar
    55   32   36 1
    56   33   34 ar
    57   33   53 1
    58   34   35 1
    59   36   54 1
    60   37   55 1
    61   38   56 1
    62   39   57 1
    63   40   58 1
@<TRIPOS>MOLECULE
ZINC03812983
   41    45     0     0     0
SMALL
USER_CHARGES
methylBLAHdiol
@<TRIPOS>ATOM
      1 C1          2.5532   -4.0281   -1.2929 C.3       1 <0>        -0.0484
      2 C2          3.5947   -1.8745   -0.9415 C.3       1 <0>        -0.0043
      3 C3          3.6019   -0.5992   -0.0995 C.3       1 <0>        -0.1260
      4 C4          2.2189    0.0434   -0.2379 C.3       1 <0>        -0.0574
      5 C5          1.9436    0.2694   -1.7033 C.ar      1 <0>        -0.1864
      6 C6          1.3321   -0.5987   -2.5755 C.ar      1 <0>        -0.0564
      7 C7          1.2190   -0.1564   -3.8812 C.ar      1 <0>        -0.1265
      8 C8          1.6669    1.1083   -4.2290 C.ar      1 <0>        -0.1009
      9 C9          2.2257    2.0020   -3.3175 C.ar      1 <0>         0.1075
     10 C10         2.3451    1.5675   -1.9939 C.ar      1 <0>         0.1517
     11 O1          2.7949    2.1721   -0.8702 O.3       1 <0>        -0.2745
     12 C11         2.1727    1.4792    0.2740 C.3       1 <0>         0.1100
     13 H1          2.6983    1.6223    1.2181 H         1 <0>         0.1502
     14 C12         0.7367    2.0155    0.2661 C.3       1 <0>         0.1097
     15 H2          0.6482    2.7733    1.0446 H         1 <0>         0.0803
     16 C13        -0.3150    0.9908    0.4879 C.2       1 <0>        -0.1525
     17 C14        -0.1527   -0.2942    0.4717 C.2       1 <0>        -0.1355
     18 C15         1.1799   -0.9197    0.2862 C.3       1 <0>        -0.0479
     19 H3          1.5192   -1.2471    1.2689 H         1 <0>         0.1004
     20 C16         1.1821   -2.1468   -0.6151 C.3       1 <0>         0.0590
     21 H4          0.4619   -2.8606   -0.2153 H         1 <0>         0.1363
     22 C17         0.8134   -1.9003   -2.0558 C.3       1 <0>        -0.0882
     23 O2          0.4964    2.6425   -0.9953 O.3       1 <0>        -0.5359
     24 O3          2.6371    3.2410   -3.6984 O.3       1 <0>        -0.4796
     25 H5          2.4612   -3.8104   -2.3570 H         1 <0>         0.1267
     26 H6          3.4994   -4.5361   -1.1065 H         1 <0>         0.1256
     27 H7          1.7289   -4.6694   -0.9807 H         1 <0>         0.1244
     28 H8          4.5493   -2.3884   -0.8287 H         1 <0>         0.1314
     29 H9          3.4563   -1.6019   -1.9877 H         1 <0>         0.1340
     30 H10         4.3670    0.0825   -0.4709 H         1 <0>         0.1194
     31 H11         3.7955   -0.8428    0.9451 H         1 <0>         0.0984
     32 H12         0.7809   -0.7981   -4.6314 H         1 <0>         0.1324
     33 H13         1.5779    1.4173   -5.2600 H         1 <0>         0.1363
     34 H14        -1.3148    1.3526    0.6772 H         1 <0>         0.1225
     35 H15        -1.0158   -0.9312    0.5970 H         1 <0>         0.1292
     36 H16        -0.2725   -1.9066   -2.1492 H         1 <0>         0.1227
     37 H17         1.2210   -2.7075   -2.6645 H         1 <0>         0.1017
     38 H18        -0.3623    3.0826   -1.0586 H         1 <0>         0.3865
     39 H19         3.5594    3.2780   -3.9865 H         1 <0>         0.3923
     40 N1          2.5173   -2.7921   -0.4927 N.4       1 <0>        -0.3970
     41 H20         2.6774   -3.0298    0.4933 H         1 <0>         0.4294
@<TRIPOS>BOND
     1    1   25 1
     2    1   26 1
     3    1   27 1
     4    1   40 1
     5    2    3 1
     6    2   28 1
     7    2   29 1
     8    2   40 1
     9    3    4 1
    10    3   30 1
    11    3   31 1
    12    4   12 1
    13    4   18 1
    14    4    5 1
    15    5   10 ar
    16    5    6 ar
    17    6   22 1
    18    6    7 ar
    19    7    8 ar
    20    7   32 1
    21    8    9 ar
    22    8   33 1
    23    9   10 ar
    24    9   24 1
    25   10   11 1
    26   11   12 1
    27   12   13 1
    28   12   14 1
    29   14   15 1
    30   14   16 1
    31   14   23 1
    32   16   17 2
    33   16   34 1
    34   17   18 1
    35   17   35 1
    36   18   19 1
    37   18   20 1
    38   20   21 1
    39   20   22 1
    40   20   40 1
    41   22   36 1
    42   22   37 1
    43   23   38 1
    44   24   39 1
    45   40   41 1
