@<TRIPOS>MOLECULE
ZINC02530707
   59    62     0     0     0
SMALL
USER_CHARGES
2-(3,4-dichlorophenyl)-N-methyl-N-(9-pyrrolidin-1-yl-1-oxaspiro[4.5]dec-8-yl)-acetamide
@<TRIPOS>ATOM
      1 C1         -1.6581    5.4459    3.2775 C.3       1 <0>         0.0561
      2 N1         -1.5291    3.9980    3.4596 N.am      1 <0>        -0.6335
      3 C2         -2.5370    3.0962    2.8966 C.3       1 <0>         0.1229
      4 H1         -2.2738    2.0650    3.1321 H         1 <0>         0.1276
      5 C3         -3.9054    3.4230    3.4976 C.3       1 <0>        -0.1224
      6 C4         -4.9575    2.4769    2.9140 C.3       1 <0>        -0.1385
      7 C5         -5.0046    2.6424    1.3960 C.3       1 <0>         0.1146
      8 C6         -5.4069    4.0860    1.0450 C.3       1 <0>        -0.1551
      9 C7         -6.7462    3.9297    0.2833 C.3       1 <0>        -0.1563
     10 C8         -7.2228    2.5298    0.7482 C.3       1 <0>         0.0443
     11 O1         -5.9984    1.7692    0.8400 O.3       1 <0>        -0.3578
     12 C9         -3.6382    2.3283    0.7893 C.3       1 <0>        -0.1296
     13 C10        -2.5893    3.2747    1.3779 C.3       1 <0>         0.0207
     14 H2         -2.8562    4.3049    1.1420 H         1 <0>         0.1416
     15 C11        -0.8762    1.5735    1.1045 C.3       1 <0>        -0.0220
     16 C12        -0.0684    1.1157   -0.1354 C.3       1 <0>        -0.1402
     17 C13        -0.8443    1.8054   -1.2883 C.3       1 <0>        -0.1404
     18 C14        -1.2805    3.1459   -0.6605 C.3       1 <0>        -0.0166
     19 C15        -0.4831    3.4956    4.1451 C.2       1 <0>         0.5132
     20 O2         -0.3762    2.2969    4.2959 O.2       1 <0>        -0.5088
     21 C16         0.5538    4.4232    4.7243 C.3       1 <0>        -0.0994
     22 C17         1.6083    3.6159    5.4365 C.ar      1 <0>        -0.0667
     23 C18         1.4635    3.3222    6.7798 C.ar      1 <0>        -0.0853
     24 C19         2.4275    2.5778    7.4331 C.ar      1 <0>        -0.0923
     25 C20         3.5433    2.1351    6.7454 C.ar      1 <0>        -0.0257
     26 C21         3.6909    2.4338    5.4017 C.ar      1 <0>        -0.0300
     27 C22         2.7224    3.1745    4.7481 C.ar      1 <0>        -0.0876
     28 Cl1         5.0903    1.8786    4.5372 Cl        1 <0>        -0.0403
     29 Cl2         4.7580    1.2062    7.5672 Cl        1 <0>        -0.0360
     30 H3         -2.2316    5.8663    4.1035 H         1 <0>         0.0777
     31 H4         -0.6670    5.8991    3.2555 H         1 <0>         0.0886
     32 H5         -2.1716    5.6496    2.3378 H         1 <0>         0.0740
     33 H6         -3.8659    3.2993    4.5799 H         1 <0>         0.0940
     34 H7         -4.1706    4.4529    3.2590 H         1 <0>         0.0821
     35 H8         -4.6965    1.4475    3.1594 H         1 <0>         0.0827
     36 H9         -5.9340    2.7147    3.3359 H         1 <0>         0.0885
     37 H10        -5.5497    4.6738    1.9518 H         1 <0>         0.0878
     38 H11        -4.6550    4.5469    0.4045 H         1 <0>         0.0742
     39 H12        -7.4559    4.7012    0.5820 H         1 <0>         0.0884
     40 H13        -6.5851    3.9482   -0.7946 H         1 <0>         0.0810
     41 H14        -7.7088    2.5937    1.7218 H         1 <0>         0.0685
     42 H15        -7.8963    2.0900    0.0126 H         1 <0>         0.1026
     43 H16        -3.6813    2.4608   -0.2917 H         1 <0>         0.1007
     44 H17        -3.3671    1.2977    1.0186 H         1 <0>         0.0993
     45 H18        -1.7588    0.9473    1.2347 H         1 <0>         0.1362
     46 H19        -0.2518    1.5412    1.9973 H         1 <0>         0.1380
     47 H20        -0.0957    0.0311   -0.2406 H         1 <0>         0.1181
     48 H21         0.9594    1.4754   -0.0865 H         1 <0>         0.0980
     49 H22        -0.1916    1.9752   -2.1446 H         1 <0>         0.1137
     50 H23        -1.7115    1.2122   -1.5782 H         1 <0>         0.1002
     51 H24        -0.5796    3.9322   -0.9408 H         1 <0>         0.1308
     52 H25        -2.2846    3.4038   -0.9973 H         1 <0>         0.1327
     53 H26         1.0164    4.9976    3.9216 H         1 <0>         0.1115
     54 H27         0.0784    5.1038    5.4307 H         1 <0>         0.1178
     55 H28         0.5947    3.6714    7.3180 H         1 <0>         0.1376
     56 H29         2.3117    2.3451    8.4813 H         1 <0>         0.1476
     57 H30         2.8371    3.4082    3.6999 H         1 <0>         0.1365
     58 N2         -1.2543    2.9685    0.8005 N.4       1 <0>        -0.3904
     59 H31        -0.5590    3.6051    1.2075 H         1 <0>         0.4248
@<TRIPOS>BOND
     1    1    2 1
     2    1   30 1
     3    1   31 1
     4    1   32 1
     5    2    3 1
     6    2   19 am
     7    3    4 1
     8    3   13 1
     9    3    5 1
    10    5    6 1
    11    5   33 1
    12    5   34 1
    13    6    7 1
    14    6   35 1
    15    6   36 1
    16    7   11 1
    17    7    8 1
    18    7   12 1
    19    8    9 1
    20    8   37 1
    21    8   38 1
    22    9   10 1
    23    9   39 1
    24    9   40 1
    25   10   11 1
    26   10   41 1
    27   10   42 1
    28   12   13 1
    29   12   43 1
    30   12   44 1
    31   13   14 1
    32   13   58 1
    33   15   16 1
    34   15   45 1
    35   15   46 1
    36   15   58 1
    37   16   17 1
    38   16   47 1
    39   16   48 1
    40   17   18 1
    41   17   49 1
    42   17   50 1
    43   18   51 1
    44   18   52 1
    45   18   58 1
    46   19   20 2
    47   19   21 1
    48   21   22 1
    49   21   53 1
    50   21   54 1
    51   22   27 ar
    52   22   23 ar
    53   23   24 ar
    54   23   55 1
    55   24   25 ar
    56   24   56 1
    57   25   26 ar
    58   25   29 1
    59   26   27 ar
    60   26   28 1
    61   27   57 1
    62   58   59 1
@<TRIPOS>MOLECULE
ZINC22066510
   73    75     0     0     0
SMALL
USER_CHARGES

@<TRIPOS>ATOM
      1 C1          2.4910   -1.6080   -3.8112 C.3       1 <0>        -0.1682
      2 C2          1.7409   -0.5348   -3.0198 C.3       1 <0>         0.1082
      3 N1          0.4296   -1.0506   -2.6189 N.am      1 <0>        -0.6052
      4 C3          0.2957   -1.8338   -1.3881 C.3       1 <0>         0.0959
      5 C4          0.2625   -0.8901   -0.1842 C.3       1 <0>        -0.1789
      6 C5         -0.6534   -0.8047   -3.3824 C.2       1 <0>         0.5551
      7 O1         -0.5330   -0.2052   -4.4329 O.2       1 <0>        -0.5297
      8 C6         -1.9880   -1.2642   -2.9423 C.ar      1 <0>        -0.1172
      9 C7         -2.3958   -1.0698   -1.6217 C.ar      1 <0>        -0.0965
     10 C8         -3.6425   -1.5005   -1.2175 C.ar      1 <0>        -0.1206
     11 C9         -4.4878   -2.1244   -2.1179 C.ar      1 <0>        -0.0559
     12 C10        -4.0894   -2.3205   -3.4283 C.ar      1 <0>        -0.0954
     13 C11        -2.8477   -1.8890   -3.8470 C.ar      1 <0>        -0.0706
     14 C12        -5.8481   -2.5927   -1.6693 C.3       1 <0>         0.1758
     15 H1         -6.1289   -2.0701   -0.7549 H         1 <0>         0.0736
     16 C13        -5.8075   -4.0763   -1.4077 C.ar      1 <0>        -0.0583
     17 C14        -5.6865   -4.9609   -2.4637 C.ar      1 <0>        -0.1407
     18 C15        -5.6490   -6.3224   -2.2271 C.ar      1 <0>        -0.0770
     19 C16        -5.7329   -6.8027   -0.9343 C.ar      1 <0>        -0.1994
     20 C17        -5.8544   -5.9174    0.1266 C.ar      1 <0>         0.1361
     21 C18        -5.8856   -4.5511   -0.1130 C.ar      1 <0>        -0.1429
     22 O2         -5.9370   -6.3873    1.3991 O.3       1 <0>        -0.3155
     23 C19        -5.8925   -7.8052    1.5713 C.3       1 <0>         0.0249
     24 N2         -6.8351   -2.3074   -2.7192 N.3       1 <0>        -0.5260
     25 C20        -8.0333   -3.1429   -2.5568 C.3       1 <0>         0.0231
     26 C21        -9.0086   -2.8586   -3.7012 C.3       1 <0>         0.0323
     27 H2         -8.5345   -3.1030   -4.6518 H         1 <0>         0.1445
     28 N3         -9.3769   -1.4368   -3.6891 N.4       1 <0>        -0.3828
     29 C22        -8.1734   -0.6159   -3.8768 C.3       1 <0>         0.0016
     30 C23        -7.1911   -0.8815   -2.7339 C.3       1 <0>         0.0643
     31 H3         -7.6558   -0.6128   -1.7852 H         1 <0>         0.0669
     32 C24        -5.9286   -0.0422   -2.9404 C.3       1 <0>        -0.1606
     33 C25       -10.3271   -1.1681   -4.7766 C.3       1 <0>         0.0243
     34 C26       -10.7993    0.2604   -4.6897 C.2       1 <0>        -0.2350
     35 C27       -10.6767    1.0549   -5.7241 C.2       1 <0>        -0.1053
     36 C28       -10.2657   -3.7125   -3.5238 C.3       1 <0>        -0.1832
     37 H4          2.6235   -2.4927   -3.1884 H         1 <0>         0.0561
     38 H5          1.9172   -1.8718   -4.6997 H         1 <0>         0.0586
     39 H6          3.4666   -1.2242   -4.1095 H         1 <0>         0.0703
     40 H7          2.3147   -0.2710   -2.1314 H         1 <0>         0.0793
     41 H8          1.6084    0.3499   -3.6427 H         1 <0>         0.0876
     42 H9         -0.6286   -2.4105   -1.4232 H         1 <0>         0.0867
     43 H10         1.1438   -2.5120   -1.2949 H         1 <0>         0.0813
     44 H11         1.2763   -0.5666    0.0519 H         1 <0>         0.0652
     45 H12        -0.3505   -0.0205   -0.4210 H         1 <0>         0.0640
     46 H13        -0.1618   -1.4110    0.6741 H         1 <0>         0.0725
     47 H14        -1.7367   -0.5837   -0.9177 H         1 <0>         0.1429
     48 H15        -3.9594   -1.3508   -0.1959 H         1 <0>         0.1276
     49 H16        -4.7538   -2.8085   -4.1262 H         1 <0>         0.1342
     50 H17        -2.5399   -2.0384   -4.8714 H         1 <0>         0.1309
     51 H18        -5.6215   -4.5875   -3.4750 H         1 <0>         0.1305
     52 H19        -5.5545   -7.0113   -3.0535 H         1 <0>         0.1294
     53 H20        -5.7043   -7.8665   -0.7501 H         1 <0>         0.1321
     54 H21        -5.9754   -3.8596    0.7117 H         1 <0>         0.1302
     55 H22        -4.9515   -8.1896    1.1776 H         1 <0>         0.0594
     56 H23        -5.9676   -8.0450    2.6319 H         1 <0>         0.1059
     57 H24        -6.7243   -8.2626    1.0356 H         1 <0>         0.0581
     58 H25        -7.7483   -4.1948   -2.5747 H         1 <0>         0.1343
     59 H26        -8.5118   -2.9115   -1.6052 H         1 <0>         0.0619
     60 H27        -7.7036   -0.8717   -4.8265 H         1 <0>         0.1367
     61 H28        -8.4498    0.4385   -3.8807 H         1 <0>         0.1360
     62 H29        -5.3719   -0.4275   -3.7946 H         1 <0>         0.0844
     63 H30        -6.2082    0.9948   -3.1267 H         1 <0>         0.0700
     64 H31        -5.3065   -0.0959   -2.0470 H         1 <0>         0.0838
     65 H32        -9.8365   -1.3308   -5.7363 H         1 <0>         0.1301
     66 H33       -11.1813   -1.8392   -4.6869 H         1 <0>         0.1384
     67 H34       -11.2387    0.6292   -3.7746 H         1 <0>         0.1330
     68 H35       -10.2373    0.6861   -6.6391 H         1 <0>         0.1115
     69 H36       -11.0151    2.0786   -5.6617 H         1 <0>         0.1228
     70 H37       -10.7398   -3.4682   -2.5732 H         1 <0>         0.0809
     71 H38       -10.9604   -3.5101   -4.3390 H         1 <0>         0.0860
     72 H39        -9.9925   -4.7677   -3.5330 H         1 <0>         0.1076
     73 H40        -9.8052   -1.2080   -2.8046 H         1 <0>         0.4183
@<TRIPOS>BOND
     1    1    2 1
     2    1   37 1
     3    1   38 1
     4    1   39 1
     5    2    3 1
     6    2   40 1
     7    2   41 1
     8    3    4 1
     9    3    6 am
    10    4    5 1
    11    4   42 1
    12    4   43 1
    13    5   44 1
    14    5   45 1
    15    5   46 1
    16    6    7 2
    17    6    8 1
    18    8   13 ar
    19    8    9 ar
    20    9   10 ar
    21    9   47 1
    22   10   11 ar
    23   10   48 1
    24   11   12 ar
    25   11   14 1
    26   12   13 ar
    27   12   49 1
    28   13   50 1
    29   14   15 1
    30   14   16 1
    31   14   24 1
    32   16   21 ar
    33   16   17 ar
    34   17   18 ar
    35   17   51 1
    36   18   19 ar
    37   18   52 1
    38   19   20 ar
    39   19   53 1
    40   20   21 ar
    41   20   22 1
    42   21   54 1
    43   22   23 1
    44   23   55 1
    45   23   56 1
    46   23   57 1
    47   24   30 1
    48   24   25 1
    49   25   26 1
    50   25   58 1
    51   25   59 1
    52   26   27 1
    53   26   28 1
    54   26   36 1
    55   28   29 1
    56   28   33 1
    57   28   73 1
    58   29   30 1
    59   29   60 1
    60   29   61 1
    61   30   31 1
    62   30   32 1
    63   32   62 1
    64   32   63 1
    65   32   64 1
    66   33   34 1
    67   33   65 1
    68   33   66 1
    69   34   35 2
    70   34   67 1
    71   35   68 1
    72   35   69 1
    73   36   70 1
    74   36   71 1
    75   36   72 1
@<TRIPOS>MOLECULE
ZINC22066510
   73    75     0     0     0
SMALL
USER_CHARGES

@<TRIPOS>ATOM
      1 C1          2.0818   -4.4766    3.2676 C.3       1 <0>        -0.1689
      2 C2          1.7388   -3.0977    2.7003 C.3       1 <0>         0.1074
      3 N1          2.1743   -3.0222    1.3035 N.am      1 <0>        -0.6022
      4 C3          1.3002   -3.5147    0.2360 C.3       1 <0>         0.0926
      5 C4          0.2008   -2.4865   -0.0380 C.3       1 <0>        -0.1804
      6 C5          3.3792   -2.4997    1.0006 C.2       1 <0>         0.5507
      7 O1          4.1293   -2.1464    1.8895 O.2       1 <0>        -0.5215
      8 C6          3.7885   -2.3561   -0.4128 C.ar      1 <0>        -0.0969
      9 C7          2.8877   -1.8598   -1.3564 C.ar      1 <0>        -0.0885
     10 C8          3.2762   -1.7279   -2.6736 C.ar      1 <0>        -0.0986
     11 C9          4.5553   -2.0868   -3.0600 C.ar      1 <0>        -0.0985
     12 C10         5.4529   -2.5799   -2.1298 C.ar      1 <0>        -0.1217
     13 C11         5.0792   -2.7110   -0.8082 C.ar      1 <0>        -0.0542
     14 C12         4.9725   -1.9405   -4.5007 C.3       1 <0>         0.1312
     15 H1          4.2422   -1.3285   -5.0301 H         1 <0>         0.1530
     16 C13         5.0470   -3.3018   -5.1429 C.ar      1 <0>        -0.0894
     17 C14         6.1536   -4.1045   -4.9342 C.ar      1 <0>        -0.1656
     18 C15         6.2249   -5.3537   -5.5218 C.ar      1 <0>        -0.0582
     19 C16         5.1905   -5.8032   -6.3198 C.ar      1 <0>        -0.1869
     20 C17         4.0794   -5.0000   -6.5308 C.ar      1 <0>         0.1493
     21 C18         4.0075   -3.7489   -5.9349 C.ar      1 <0>        -0.1219
     22 O2          3.0606   -5.4398   -7.3152 O.3       1 <0>        -0.3093
     23 C19         3.2001   -6.7401   -7.8913 C.3       1 <0>         0.0219
     24 N2          6.2908   -1.2956   -4.5657 N.4       1 <0>        -0.3815
     25 C20         6.7880   -1.3363   -5.9472 C.3       1 <0>        -0.0063
     26 C21         8.1695   -0.6815   -6.0119 C.3       1 <0>         0.0612
     27 H2          8.8619   -1.2291   -5.3726 H         1 <0>         0.0642
     28 N3          8.0710    0.7101   -5.5492 N.3       1 <0>        -0.5312
     29 C22         7.5510    0.7680   -4.1758 C.3       1 <0>         0.0332
     30 C23         6.1745    0.1011   -4.1263 C.3       1 <0>         0.0365
     31 H3          5.4890    0.6335   -4.7856 H         1 <0>         0.1458
     32 C24         5.6392    0.1421   -2.6935 C.3       1 <0>        -0.1984
     33 C25         9.3686    1.3914   -5.6500 C.3       1 <0>         0.0780
     34 C26         9.1817    2.8666   -5.4050 C.2       1 <0>        -0.1649
     35 C27         9.8791    3.4695   -4.4743 C.2       1 <0>        -0.1715
     36 C28         8.6788   -0.7055   -7.4544 C.3       1 <0>        -0.1519
     37 H4          3.1591   -4.6339    3.2139 H         1 <0>         0.0588
     38 H5          1.7578   -4.5328    4.3068 H         1 <0>         0.0724
     39 H6          1.5730   -5.2455    2.6863 H         1 <0>         0.0568
     40 H7          0.6616   -2.9404    2.7540 H         1 <0>         0.0820
     41 H8          2.2477   -2.3288    3.2816 H         1 <0>         0.0896
     42 H9          1.8857   -3.6709   -0.6700 H         1 <0>         0.0853
     43 H10         0.8475   -4.4576    0.5431 H         1 <0>         0.0843
     44 H11        -0.3007   -2.7316   -0.9742 H         1 <0>         0.0751
     45 H12        -0.5230   -2.5026    0.7769 H         1 <0>         0.0685
     46 H13         0.6428   -1.4929   -0.1118 H         1 <0>         0.0633
     47 H14         1.8888   -1.5799   -1.0561 H         1 <0>         0.1541
     48 H15         2.5802   -1.3439   -3.4047 H         1 <0>         0.1427
     49 H16         6.4498   -2.8586   -2.4380 H         1 <0>         0.1243
     50 H17         5.7823   -3.0914   -0.0821 H         1 <0>         0.1428
     51 H18         6.9635   -3.7546   -4.3113 H         1 <0>         0.1167
     52 H19         7.0902   -5.9788   -5.3573 H         1 <0>         0.1385
     53 H20         5.2470   -6.7790   -6.7793 H         1 <0>         0.1409
     54 H21         3.1414   -3.1236   -6.0937 H         1 <0>         0.1422
     55 H22         4.0878   -6.7641   -8.5234 H         1 <0>         0.0622
     56 H23         3.2992   -7.4804   -7.0975 H         1 <0>         0.0621
     57 H24         2.3198   -6.9675   -8.4925 H         1 <0>         0.1108
     58 H25         6.8614   -2.3728   -6.2765 H         1 <0>         0.1408
     59 H26         6.0993   -0.7966   -6.5972 H         1 <0>         0.1402
     60 H27         8.2331    0.2441   -3.5062 H         1 <0>         0.0587
     61 H28         7.4623    1.8086   -3.8640 H         1 <0>         0.1262
     62 H29         6.1642   -0.5969   -2.0883 H         1 <0>         0.0840
     63 H30         5.7995    1.1354   -2.2741 H         1 <0>         0.1007
     64 H31         4.5727   -0.0829   -2.6975 H         1 <0>         0.0994
     65 H32        10.0521    0.9832   -4.9055 H         1 <0>         0.0490
     66 H33         9.7830    1.2382   -6.6464 H         1 <0>         0.1013
     67 H34         8.4728    3.4267   -5.9967 H         1 <0>         0.1193
     68 H35         9.7451    4.5267   -4.2988 H         1 <0>         0.1067
     69 H36        10.5880    2.9094   -3.8826 H         1 <0>         0.0969
     70 H37         7.9867   -0.1570   -8.0933 H         1 <0>         0.0789
     71 H38         9.6629   -0.2390   -7.5001 H         1 <0>         0.0796
     72 H39         8.7498   -1.7377   -7.7975 H         1 <0>         0.0752
     73 H40         6.9346   -1.7852   -3.9624 H         1 <0>         0.4129
@<TRIPOS>BOND
     1    1    2 1
     2    1   37 1
     3    1   38 1
     4    1   39 1
     5    2    3 1
     6    2   40 1
     7    2   41 1
     8    3    4 1
     9    3    6 am
    10    4    5 1
    11    4   42 1
    12    4   43 1
    13    5   44 1
    14    5   45 1
    15    5   46 1
    16    6    7 2
    17    6    8 1
    18    8   13 ar
    19    8    9 ar
    20    9   10 ar
    21    9   47 1
    22   10   11 ar
    23   10   48 1
    24   11   12 ar
    25   11   14 1
    26   12   13 ar
    27   12   49 1
    28   13   50 1
    29   14   15 1
    30   14   16 1
    31   14   24 1
    32   16   21 ar
    33   16   17 ar
    34   17   18 ar
    35   17   51 1
    36   18   19 ar
    37   18   52 1
    38   19   20 ar
    39   19   53 1
    40   20   21 ar
    41   20   22 1
    42   21   54 1
    43   22   23 1
    44   23   55 1
    45   23   56 1
    46   23   57 1
    47   24   30 1
    48   24   25 1
    49   24   73 1
    50   25   26 1
    51   25   58 1
    52   25   59 1
    53   26   27 1
    54   26   28 1
    55   26   36 1
    56   28   29 1
    57   28   33 1
    58   29   30 1
    59   29   60 1
    60   29   61 1
    61   30   31 1
    62   30   32 1
    63   32   62 1
    64   32   63 1
    65   32   64 1
    66   33   34 1
    67   33   65 1
    68   33   66 1
    69   34   35 2
    70   34   67 1
    71   35   68 1
    72   35   69 1
    73   36   70 1
    74   36   71 1
    75   36   72 1
@<TRIPOS>MOLECULE
ZINC22066510
   72    74     0     0     0
SMALL
USER_CHARGES

@<TRIPOS>ATOM
      1 C1          2.1295   -1.3205    3.8951 C.3       1 <0>        -0.1676
      2 C2          1.6862   -0.2597    2.8856 C.3       1 <0>         0.1092
      3 N1          1.9679   -0.7304    1.5272 N.am      1 <0>        -0.6081
      4 C3          0.9979   -1.5784    0.8299 C.3       1 <0>         0.0967
      5 C4         -0.1181   -0.7066    0.2506 C.3       1 <0>        -0.1783
      6 C5          3.1194   -0.3832    0.9190 C.2       1 <0>         0.5598
      7 O1          3.9442    0.2827    1.5138 O.2       1 <0>        -0.5325
      8 C6          3.3794   -0.8123   -0.4717 C.ar      1 <0>        -0.1298
      9 C7          2.3801   -0.6969   -1.4393 C.ar      1 <0>        -0.1006
     10 C8          2.6294   -1.0987   -2.7353 C.ar      1 <0>        -0.1242
     11 C9          3.8665   -1.6156   -3.0767 C.ar      1 <0>        -0.0371
     12 C10         4.8613   -1.7331   -2.1223 C.ar      1 <0>        -0.0925
     13 C11         4.6271   -1.3292   -0.8241 C.ar      1 <0>        -0.0713
     14 C12         4.1316   -2.0530   -4.4943 C.3       1 <0>         0.1647
     15 H1          3.4074   -1.5841   -5.1606 H         1 <0>         0.0639
     16 C13         4.0051   -3.5516   -4.5896 C.ar      1 <0>        -0.0412
     17 C14         4.9574   -4.3641   -4.0020 C.ar      1 <0>        -0.1310
     18 C15         4.8442   -5.7392   -4.0876 C.ar      1 <0>        -0.0815
     19 C16         3.7789   -6.3052   -4.7612 C.ar      1 <0>        -0.2053
     20 C17         2.8223   -5.4925   -5.3515 C.ar      1 <0>         0.1287
     21 C18         2.9349   -4.1126   -5.2589 C.ar      1 <0>        -0.1432
     22 O2          1.7735   -6.0468   -6.0145 O.3       1 <0>        -0.3178
     23 C19         1.7188   -7.4739   -6.0646 C.3       1 <0>         0.0273
     24 N2          5.4891   -1.6503   -4.8853 N.3       1 <0>        -0.5241
     25 C20         5.9518   -2.4191   -6.0491 C.3       1 <0>         0.0580
     26 C21         7.3951   -2.0276   -6.3748 C.3       1 <0>         0.0852
     27 H2          8.0376   -2.2704   -5.5284 H         1 <0>         0.0496
     28 N3          7.4600   -0.5838   -6.6413 N.3       1 <0>        -0.5331
     29 C22         6.9973    0.1850   -5.4774 C.3       1 <0>         0.0660
     30 C23         5.5540   -0.2066   -5.1518 C.3       1 <0>         0.0883
     31 H3          4.9116    0.0362   -5.9982 H         1 <0>         0.0511
     32 C24         5.0830    0.5623   -3.9158 C.3       1 <0>        -0.1581
     33 C25         8.8176   -0.1812   -7.0323 C.3       1 <0>         0.0755
     34 C26         8.7957    1.2405   -7.5316 C.2       1 <0>        -0.1451
     35 C27         9.5853    2.1362   -6.9927 C.2       1 <0>        -0.1908
     36 C28         7.8663   -2.7969   -7.6105 C.3       1 <0>        -0.1491
     37 H4          3.1992   -1.5000    3.7873 H         1 <0>         0.0589
     38 H5          1.9199   -0.9703    4.9058 H         1 <0>         0.0674
     39 H6          1.5853   -2.2468    3.7114 H         1 <0>         0.0553
     40 H7          0.6165   -0.0801    2.9934 H         1 <0>         0.0766
     41 H8          2.2304    0.6667    3.0694 H         1 <0>         0.0863
     42 H9          1.4975   -2.1133    0.0222 H         1 <0>         0.0897
     43 H10         0.5717   -2.2955    1.5315 H         1 <0>         0.0782
     44 H11        -0.6418   -1.2583   -0.5301 H         1 <0>         0.0719
     45 H12        -0.8198   -0.4417    1.0415 H         1 <0>         0.0618
     46 H13         0.3124    0.2011   -0.1723 H         1 <0>         0.0654
     47 H14         1.4137   -0.2943   -1.1739 H         1 <0>         0.1393
     48 H15         1.8570   -1.0100   -3.4850 H         1 <0>         0.1257
     49 H16         5.8248   -2.1377   -2.3952 H         1 <0>         0.1358
     50 H17         5.4060   -1.4169   -0.0812 H         1 <0>         0.1275
     51 H18         5.7913   -3.9236   -3.4757 H         1 <0>         0.1302
     52 H19         5.5893   -6.3716   -3.6279 H         1 <0>         0.1256
     53 H20         3.6913   -7.3796   -4.8285 H         1 <0>         0.1272
     54 H21         2.1889   -3.4777   -5.7135 H         1 <0>         0.1283
     55 H22         1.6675   -7.8713   -5.0509 H         1 <0>         0.0558
     56 H23         0.8348   -7.7843   -6.6217 H         1 <0>         0.1010
     57 H24         2.6123   -7.8546   -6.5593 H         1 <0>         0.0559
     58 H25         5.9063   -3.4844   -5.8227 H         1 <0>         0.0911
     59 H26         5.3139   -2.2015   -6.9057 H         1 <0>         0.0435
     60 H27         7.6353   -0.0327   -4.6209 H         1 <0>         0.0424
     61 H28         7.0429    1.2502   -5.7038 H         1 <0>         0.0816
     62 H29         5.6128    0.1962   -3.0364 H         1 <0>         0.0715
     63 H30         5.2892    1.6244   -4.0482 H         1 <0>         0.0575
     64 H31         4.0114    0.4141   -3.7822 H         1 <0>         0.0661
     65 H32         9.4805   -0.2533   -6.1700 H         1 <0>         0.0380
     66 H33         9.1779   -0.8386   -7.8235 H         1 <0>         0.0892
     67 H34         8.1290    1.5210   -8.3336 H         1 <0>         0.1132
     68 H35        10.2520    1.8558   -6.1907 H         1 <0>         0.0940
     69 H36         9.5696    3.1551   -7.3506 H         1 <0>         0.0994
     70 H37         7.2242   -2.5533   -8.4569 H         1 <0>         0.0644
     71 H38         8.8942   -2.5178   -7.8421 H         1 <0>         0.0605
     72 H39         7.8163   -3.8676   -7.4128 H         1 <0>         0.0621
@<TRIPOS>BOND
     1    1    2 1
     2    1   37 1
     3    1   38 1
     4    1   39 1
     5    2    3 1
     6    2   40 1
     7    2   41 1
     8    3    4 1
     9    3    6 am
    10    4    5 1
    11    4   42 1
    12    4   43 1
    13    5   44 1
    14    5   45 1
    15    5   46 1
    16    6    7 2
    17    6    8 1
    18    8   13 ar
    19    8    9 ar
    20    9   10 ar
    21    9   47 1
    22   10   11 ar
    23   10   48 1
    24   11   12 ar
    25   11   14 1
    26   12   13 ar
    27   12   49 1
    28   13   50 1
    29   14   15 1
    30   14   16 1
    31   14   24 1
    32   16   21 ar
    33   16   17 ar
    34   17   18 ar
    35   17   51 1
    36   18   19 ar
    37   18   52 1
    38   19   20 ar
    39   19   53 1
    40   20   21 ar
    41   20   22 1
    42   21   54 1
    43   22   23 1
    44   23   55 1
    45   23   56 1
    46   23   57 1
    47   24   30 1
    48   24   25 1
    49   25   26 1
    50   25   58 1
    51   25   59 1
    52   26   27 1
    53   26   28 1
    54   26   36 1
    55   28   29 1
    56   28   33 1
    57   29   30 1
    58   29   60 1
    59   29   61 1
    60   30   31 1
    61   30   32 1
    62   32   62 1
    63   32   63 1
    64   32   64 1
    65   33   34 1
    66   33   65 1
    67   33   66 1
    68   34   35 2
    69   34   67 1
    70   35   68 1
    71   35   69 1
    72   36   70 1
    73   36   71 1
    74   36   72 1
@<TRIPOS>MOLECULE
ZINC03201907
   46    49     0     0     0
SMALL
USER_CHARGES

@<TRIPOS>ATOM
      1 C1         -0.0178    1.4648    0.0101 C.3       1 <0>        -0.0541
      2 N1          0.0021   -0.0041    0.0020 N.4       1 <0>        -0.3704
      3 C2         -1.3750   -0.4988    0.0701 C.3       1 <0>        -0.0155
      4 C3         -1.3740   -2.0327    0.0720 C.3       1 <0>        -0.1325
      5 C4         -0.6000   -2.4924    1.3162 C.3       1 <0>        -0.0191
      6 C5         -0.6317   -4.0111    1.4284 C.3       1 <0>        -0.1087
      7 C6          0.1733   -4.4520    2.6537 C.3       1 <0>        -0.1256
      8 C7          1.6184   -3.9692    2.5143 C.3       1 <0>        -0.1195
      9 C8          1.6413   -2.4424    2.4159 C.3       1 <0>        -0.1147
     10 C9          0.8433   -1.9991    1.1883 C.3       1 <0>        -0.0848
     11 H1          1.2952   -2.4125    0.2866 H         1 <0>         0.1023
     12 C10         0.8089   -0.4721    1.1198 C.3       1 <0>         0.0267
     13 H2          1.8300   -0.1263    0.9584 H         1 <0>         0.1343
     14 C11         0.3561    0.0989    2.4510 C.3       1 <0>        -0.0880
     15 C12        -0.8070   -0.6582    3.0329 C.ar      1 <0>        -0.1438
     16 C13        -1.2457   -1.8607    2.5233 C.ar      1 <0>        -0.0305
     17 C14        -2.3081   -2.5221    3.1185 C.ar      1 <0>        -0.1475
     18 C15        -2.9456   -1.9742    4.2198 C.ar      1 <0>         0.1453
     19 C16        -2.5143   -0.7560    4.7243 C.ar      1 <0>        -0.2001
     20 C17        -1.4521   -0.1058    4.1333 C.ar      1 <0>        -0.0688
     21 O1         -3.9867   -2.6255    4.8018 O.3       1 <0>        -0.3119
     22 C18        -4.5935   -1.9982    5.9333 C.3       1 <0>         0.0236
     23 H3          1.0041    1.8418    0.0487 H         1 <0>         0.1253
     24 H4         -0.5046    1.8265   -0.8956 H         1 <0>         0.1263
     25 H5         -0.5678    1.8159    0.8832 H         1 <0>         0.1235
     26 H6         -1.8462   -0.1353    0.9832 H         1 <0>         0.1323
     27 H7         -1.9332   -0.1377   -0.7937 H         1 <0>         0.1313
     28 H8         -2.3981   -2.4035    0.1152 H         1 <0>         0.1146
     29 H9         -0.8828   -2.4037   -0.8275 H         1 <0>         0.0950
     30 H10        -1.6637   -4.3460    1.5323 H         1 <0>         0.0783
     31 H11        -0.1965   -4.4505    0.5308 H         1 <0>         0.0756
     32 H12        -0.2684   -4.0221    3.5527 H         1 <0>         0.0693
     33 H13         0.1589   -5.5395    2.7259 H         1 <0>         0.0726
     34 H14         2.1924   -4.2855    3.3853 H         1 <0>         0.0732
     35 H15         2.0591   -4.3977    1.6142 H         1 <0>         0.0669
     36 H16         1.1954   -2.0136    3.3134 H         1 <0>         0.0798
     37 H17         2.6718   -2.0996    2.3226 H         1 <0>         0.0738
     38 H18         1.1889    0.0610    3.1532 H         1 <0>         0.1169
     39 H19         0.0642    1.1393    2.3081 H         1 <0>         0.0939
     40 H20        -2.6412   -3.4697    2.7215 H         1 <0>         0.1386
     41 H21        -3.0097   -0.3180    5.5782 H         1 <0>         0.1351
     42 H22        -1.1179    0.8418    4.5290 H         1 <0>         0.1291
     43 H23        -3.8503   -1.8717    6.7206 H         1 <0>         0.0602
     44 H24        -4.9840   -1.0231    5.6422 H         1 <0>         0.0594
     45 H25        -5.4090   -2.6214    6.3003 H         1 <0>         0.1083
     46 H26         0.4207   -0.3210   -0.8596 H         1 <0>         0.4244
@<TRIPOS>BOND
     1    1    2 1
     2    1   23 1
     3    1   24 1
     4    1   25 1
     5    2   12 1
     6    2    3 1
     7    2   46 1
     8    3    4 1
     9    3   26 1
    10    3   27 1
    11    4    5 1
    12    4   28 1
    13    4   29 1
    14    5   10 1
    15    5   16 1
    16    5    6 1
    17    6    7 1
    18    6   30 1
    19    6   31 1
    20    7    8 1
    21    7   32 1
    22    7   33 1
    23    8    9 1
    24    8   34 1
    25    8   35 1
    26    9   10 1
    27    9   36 1
    28    9   37 1
    29   10   11 1
    30   10   12 1
    31   12   13 1
    32   12   14 1
    33   14   15 1
    34   14   38 1
    35   14   39 1
    36   15   20 ar
    37   15   16 ar
    38   16   17 ar
    39   17   18 ar
    40   17   40 1
    41   18   19 ar
    42   18   21 1
    43   19   20 ar
    44   19   41 1
    45   20   42 1
    46   21   22 1
    47   22   43 1
    48   22   44 1
    49   22   45 1
@<TRIPOS>MOLECULE
ZINC28255070
   44    48     0     0     0
SMALL
USER_CHARGES
methoxy-methyl-BLAHol
@<TRIPOS>ATOM
      1 C1         -0.0178    1.4648    0.0101 C.3       1 <0>        -0.0497
      2 N1          0.0021   -0.0041    0.0020 N.4       1 <0>        -0.3969
      3 C2         -1.3443   -0.5433   -0.1209 C.3       1 <0>        -0.0200
      4 C3         -1.3836   -2.0859   -0.1808 C.3       1 <0>        -0.1008
      5 C4         -0.6042   -2.5352    1.0401 C.3       1 <0>        -0.0006
      6 C5         -1.2944   -1.9862    2.2611 C.ar      1 <0>        -0.1480
      7 C6         -1.0255   -0.7981    2.8804 C.ar      1 <0>        -0.0898
      8 C7         -1.9276   -0.4508    3.8685 C.ar      1 <0>        -0.0789
      9 C8         -2.9606   -1.3179    4.1979 C.ar      1 <0>        -0.1715
     10 C9         -3.1541   -2.5697    3.6096 C.ar      1 <0>         0.1420
     11 C10        -2.2600   -2.9366    2.6103 C.ar      1 <0>         0.0759
     12 O1         -2.0596   -4.0859    1.8684 O.3       1 <0>        -0.2683
     13 C11        -0.7001   -3.9700    1.5337 C.3       1 <0>         0.0465
     14 H1         -0.4376   -4.5207    2.4490 H         1 <0>         0.1019
     15 C12         0.3436   -4.8275    0.9257 C.3       1 <0>         0.1541
     16 H2          0.1682   -5.9052    1.0591 H         1 <0>         0.0890
     17 C13         1.6325   -4.2522    1.5452 C.2       1 <0>        -0.1732
     18 C14         1.7973   -2.9319    1.5593 C.2       1 <0>        -0.1286
     19 C15         0.8162   -2.0425    0.8913 C.3       1 <0>        -0.0712
     20 H3          1.2302   -2.1616   -0.1208 H         1 <0>         0.1118
     21 C16         0.8214   -0.5355    1.1357 C.3       1 <0>         0.0589
     22 H4          1.8641   -0.1900    1.1948 H         1 <0>         0.1633
     23 C17         0.1751   -0.0472    2.4304 C.3       1 <0>        -0.0931
     24 O2          0.3544   -4.6878   -0.4964 O.3       1 <0>        -0.6006
     25 O3         -4.1676   -3.3901    3.9958 O.3       1 <0>        -0.3017
     26 C18        -5.0285   -2.9140    5.0323 C.3       1 <0>         0.0182
     27 H5         -0.6256    1.8279   -0.8317 H         1 <0>         0.1267
     28 H6          1.0094    1.8459   -0.0880 H         1 <0>         0.1275
     29 H7         -0.4520    1.8204    0.9561 H         1 <0>         0.1233
     30 H8         -1.9449   -0.2308    0.7461 H         1 <0>         0.1263
     31 H9         -1.8080   -0.1648   -1.0438 H         1 <0>         0.1382
     32 H10        -2.4287   -2.4276   -0.1482 H         1 <0>         0.1154
     33 H11        -0.9148   -2.4287   -1.1150 H         1 <0>         0.1079
     34 H12        -1.8288    0.4933    4.3836 H         1 <0>         0.1369
     35 H13        -3.6601   -1.0040    4.9586 H         1 <0>         0.1395
     36 H14         2.4071   -4.9077    1.9698 H         1 <0>         0.1471
     37 H15         2.6668   -2.4916    2.0693 H         1 <0>         0.1347
     38 H16        -0.0935    1.0058    2.2603 H         1 <0>         0.1006
     39 H17         0.9555   -0.1062    3.2033 H         1 <0>         0.1183
     40 H18         1.0744   -5.2601   -1.0998 H         1 <0>         0.4157
     41 H19        -5.7985   -3.6701    5.2455 H         1 <0>         0.1120
     42 H20        -5.5112   -1.9803    4.7080 H         1 <0>         0.0619
     43 H21        -4.4384   -2.7252    5.9412 H         1 <0>         0.0627
     44 H22         0.4940   -0.3623   -0.9143 H         1 <0>         0.4367
@<TRIPOS>BOND
     1    1    2 1
     2    1   27 1
     3    1   28 1
     4    1   29 1
     5    2   21 1
     6    2    3 1
     7    2   44 1
     8    3    4 1
     9    3   30 1
    10    3   31 1
    11    4    5 1
    12    4   32 1
    13    4   33 1
    14    5   13 1
    15    5   19 1
    16    5    6 1
    17    6   11 ar
    18    6    7 ar
    19    7   23 1
    20    7    8 ar
    21    8    9 ar
    22    8   34 1
    23    9   10 ar
    24    9   35 1
    25   10   11 ar
    26   10   25 1
    27   11   12 1
    28   12   13 1
    29   13   14 1
    30   13   15 1
    31   15   16 1
    32   15   17 1
    33   15   24 1
    34   17   18 2
    35   17   36 1
    36   18   19 1
    37   18   37 1
    38   19   20 1
    39   19   21 1
    40   21   22 1
    41   21   23 1
    42   23   38 1
    43   23   39 1
    44   24   40 1
    45   25   26 1
    46   26   41 1
    47   26   42 1
    48   26   43 1
@<TRIPOS>MOLECULE
ZINC28256912
   41    45     0     0     0
SMALL
USER_CHARGES
methylBLAHdiol
@<TRIPOS>ATOM
      1 C1          5.2093    3.6295    0.5036 C.3       1 <0>        -0.0493
      2 N1          4.1065    2.7161    0.1759 N.4       1 <0>        -0.3930
      3 C2          3.2591    3.2745   -0.8706 C.3       1 <0>        -0.0195
      4 C3          2.0767    2.3612   -1.2617 C.3       1 <0>        -0.0985
      5 C4          1.3859    2.0420    0.0499 C.3       1 <0>         0.0018
      6 C5          0.9533    3.3405    0.6766 C.ar      1 <0>        -0.1409
      7 C6          1.6434    4.0781    1.6015 C.ar      1 <0>        -0.1016
      8 C7          1.0413    5.2645    1.9709 C.ar      1 <0>        -0.0745
      9 C8         -0.2158    5.5866    1.4773 C.ar      1 <0>        -0.1318
     10 C9         -0.9558    4.7568    0.6326 C.ar      1 <0>         0.1845
     11 C10        -0.3596    3.5630    0.2431 C.ar      1 <0>         0.0017
     12 O1         -0.7992    2.4658   -0.4741 O.3       1 <0>        -0.2798
     13 C11        -0.0097    1.4435    0.0780 C.3       1 <0>         0.0539
     14 H1         -0.7805    1.2746    0.8444 H         1 <0>         0.0971
     15 C12         0.0234   -0.0372    0.0226 C.3       1 <0>         0.1544
     16 H2         -0.9487   -0.4962   -0.2104 H         1 <0>         0.0883
     17 C13         0.6504   -0.3965    1.3836 C.2       1 <0>        -0.1763
     18 C14         1.7226    0.2802    1.7863 C.2       1 <0>        -0.1260
     19 C15         2.3707    1.2758    0.9063 C.3       1 <0>        -0.0754
     20 H3          2.9697    0.5178    0.3803 H         1 <0>         0.1103
     21 C16         3.4051    2.2626    1.4083 C.3       1 <0>         0.0555
     22 H4          4.0381    1.7474    2.1458 H         1 <0>         0.1567
     23 C17         2.8935    3.4833    2.1586 C.3       1 <0>        -0.0902
     24 O2          0.8474   -0.4891   -1.0539 O.3       1 <0>        -0.6006
     25 O3         -2.2022    5.1005    0.2109 O.3       1 <0>        -0.4977
     26 H5          5.7090    3.9483   -0.4230 H         1 <0>         0.1274
     27 H6          5.9329    3.1131    1.1514 H         1 <0>         0.1276
     28 H7          4.8117    4.5111    1.0278 H         1 <0>         0.1242
     29 H8          2.8364    4.2308   -0.5288 H         1 <0>         0.1269
     30 H9          3.8587    3.4420   -1.7775 H         1 <0>         0.1377
     31 H10         1.4114    2.8988   -1.9533 H         1 <0>         0.1137
     32 H11         2.4604    1.4545   -1.7523 H         1 <0>         0.1063
     33 H12         1.5475    5.9411    2.6435 H         1 <0>         0.1395
     34 H13        -0.6464    6.5349    1.7632 H         1 <0>         0.1416
     35 H14         0.2317   -1.1917    2.0179 H         1 <0>         0.1477
     36 H15         2.1406    0.1029    2.7882 H         1 <0>         0.1340
     37 H16         3.6986    4.2324    2.1340 H         1 <0>         0.1008
     38 H17         2.7180    3.1677    3.1976 H         1 <0>         0.1188
     39 H18         0.9774   -1.5668   -1.2321 H         1 <0>         0.4165
     40 H19        -2.7628    4.4275   -0.4545 H         1 <0>         0.4515
     41 H20         4.5071    1.8014   -0.2854 H         1 <0>         0.4370
@<TRIPOS>BOND
     1    1    2 1
     2    1   26 1
     3    1   27 1
     4    1   28 1
     5    2   21 1
     6    2    3 1
     7    2   41 1
     8    3    4 1
     9    3   29 1
    10    3   30 1
    11    4    5 1
    12    4   31 1
    13    4   32 1
    14    5   13 1
    15    5   19 1
    16    5    6 1
    17    6   11 ar
    18    6    7 ar
    19    7   23 1
    20    7    8 ar
    21    8    9 ar
    22    8   33 1
    23    9   10 ar
    24    9   34 1
    25   10   11 ar
    26   10   25 1
    27   11   12 1
    28   12   13 1
    29   13   14 1
    30   13   15 1
    31   15   16 1
    32   15   17 1
    33   15   24 1
    34   17   18 2
    35   17   35 1
    36   18   19 1
    37   18   36 1
    38   19   20 1
    39   19   21 1
    40   21   22 1
    41   21   23 1
    42   23   37 1
    43   23   38 1
    44   24   39 1
    45   25   40 1
@<TRIPOS>MOLECULE
ZINC00000523
   43    45     0     0     0
SMALL
USER_CHARGES

@<TRIPOS>ATOM
      1 C1         -0.3092    1.4992   -0.1585 C.3       1 <0>        -0.1545
      2 C2         -0.1427   -0.0197   -0.0813 C.3       1 <0>        -0.0891
      3 H1         -1.1219   -0.4942   -0.0163 H         1 <0>         0.1012
      4 C3          0.5921   -0.5217   -1.3233 C.3       1 <0>         0.0282
      5 H2         -0.0501   -0.3358   -2.1842 H         1 <0>         0.1364
      6 C4          1.8721    0.2694   -1.5249 C.3       1 <0>        -0.0949
      7 C5          2.6259    0.4650   -0.2371 C.ar      1 <0>        -0.1124
      8 C6          3.9266    0.9503   -0.3193 C.ar      1 <0>        -0.0941
      9 C7          4.6685    1.1673    0.8216 C.ar      1 <0>        -0.1367
     10 C8          4.1147    0.9020    2.0660 C.ar      1 <0>         0.1248
     11 C9          2.8216    0.4129    2.1483 C.ar      1 <0>        -0.1400
     12 C10         2.0830    0.1878    0.9966 C.ar      1 <0>        -0.0592
     13 C11         0.6927   -0.3866    1.1502 C.3       1 <0>        -0.0221
     14 C12         0.8333   -1.9195    1.1810 C.3       1 <0>        -0.1318
     15 C13         1.5926   -2.3422   -0.0815 C.3       1 <0>        -0.0228
     16 N1          0.8425   -1.9546   -1.2597 N.4       1 <0>        -0.3642
     17 C14         1.5793   -2.3654   -2.4623 C.3       1 <0>         0.0229
     18 C15         1.7022   -3.8671   -2.4876 C.2       1 <0>        -0.2375
     19 C16         1.2835   -4.5411   -3.5300 C.2       1 <0>        -0.1019
     20 C17         0.0296    0.1343    2.4269 C.3       1 <0>        -0.1463
     21 O1          4.8367    1.1202    3.1965 O.3       1 <0>        -0.4966
     22 H3          0.6720    1.9694   -0.2234 H         1 <0>         0.0720
     23 H4         -0.8944    1.7562   -1.0415 H         1 <0>         0.0686
     24 H5         -0.8239    1.8541    0.7343 H         1 <0>         0.0799
     25 H6          2.5096   -0.2627   -2.2310 H         1 <0>         0.0962
     26 H7          1.6232    1.2455   -1.9412 H         1 <0>         0.1210
     27 H8          4.3596    1.1588   -1.2865 H         1 <0>         0.1318
     28 H9          5.6785    1.5426    0.7474 H         1 <0>         0.1367
     29 H10         2.3862    0.2057    3.1147 H         1 <0>         0.1377
     30 H11         1.3919   -2.2217    2.0668 H         1 <0>         0.1134
     31 H12        -0.1541   -2.3811    1.1904 H         1 <0>         0.0947
     32 H13         2.5644   -1.8491   -0.1027 H         1 <0>         0.1307
     33 H14         1.7344   -3.4229   -0.0750 H         1 <0>         0.1335
     34 H15         1.0426   -2.0297   -3.3496 H         1 <0>         0.1324
     35 H16         2.5740   -1.9196   -2.4489 H         1 <0>         0.1358
     36 H17         2.1354   -4.3878   -1.6464 H         1 <0>         0.1336
     37 H18         0.8504   -4.0204   -4.3713 H         1 <0>         0.1119
     38 H19         1.3716   -5.6173   -3.5482 H         1 <0>         0.1234
     39 H20        -0.9613   -0.3084    2.5283 H         1 <0>         0.0701
     40 H21         0.6386   -0.1368    3.2893 H         1 <0>         0.0713
     41 H22        -0.0609    1.2192    2.3726 H         1 <0>         0.0737
     42 H23         4.7358    2.0098    3.5620 H         1 <0>         0.4007
     43 H24        -0.0408   -2.4417   -1.2347 H         1 <0>         0.4213
@<TRIPOS>BOND
     1    1    2 1
     2    1   22 1
     3    1   23 1
     4    1   24 1
     5    2    3 1
     6    2   13 1
     7    2    4 1
     8    4    5 1
     9    4   16 1
    10    4    6 1
    11    6    7 1
    12    6   25 1
    13    6   26 1
    14    7   12 ar
    15    7    8 ar
    16    8    9 ar
    17    8   27 1
    18    9   10 ar
    19    9   28 1
    20   10   11 ar
    21   10   21 1
    22   11   12 ar
    23   11   29 1
    24   12   13 1
    25   13   14 1
    26   13   20 1
    27   14   15 1
    28   14   30 1
    29   14   31 1
    30   15   16 1
    31   15   32 1
    32   15   33 1
    33   16   17 1
    34   16   43 1
    35   17   18 1
    36   17   34 1
    37   17   35 1
    38   18   19 2
    39   18   36 1
    40   19   37 1
    41   19   38 1
    42   20   39 1
    43   20   40 1
    44   20   41 1
    45   21   42 1
@<TRIPOS>MOLECULE
ZINC02555353
   43    45     0     0     0
SMALL
USER_CHARGES
allyl-dimethyl-BLAHol
@<TRIPOS>ATOM
      1 C1         -4.4769    4.9776   -2.0643 C.3       1 <0>        -0.1715
      2 C2         -3.1039    5.6489   -2.1358 C.3       1 <0>        -0.0927
      3 H1         -3.2180    6.7301   -2.0585 H         1 <0>         0.1207
      4 C3         -2.2214    5.1407   -0.9960 C.3       1 <0>         0.0357
      5 H2         -2.7626    5.3208   -0.0672 H         1 <0>         0.1324
      6 C4         -0.9318    5.9412   -0.9450 C.3       1 <0>        -0.0875
      7 C5         -0.3401    6.1464   -2.3136 C.ar      1 <0>        -0.1123
      8 C6          0.9555    6.6466   -2.3868 C.ar      1 <0>        -0.0943
      9 C7          1.5544    6.8686   -3.6079 C.ar      1 <0>        -0.1363
     10 C8          0.8603    6.5934   -4.7775 C.ar      1 <0>         0.1240
     11 C9         -0.4285    6.0918   -4.7053 C.ar      1 <0>        -0.1392
     12 C10        -1.0238    5.8635   -3.4739 C.ar      1 <0>        -0.0631
     13 C11        -2.4233    5.2941   -3.4621 C.3       1 <0>        -0.0190
     14 C12        -2.2962    3.7618   -3.5313 C.3       1 <0>        -0.1374
     15 C13        -1.3834    3.3174   -2.3830 C.3       1 <0>        -0.0065
     16 C14        -1.1763    3.2222    0.0251 C.3       1 <0>         0.0280
     17 C15        -1.1558    1.7153    0.0169 C.2       1 <0>        -0.2362
     18 C16        -0.0126    1.0758    0.0080 C.2       1 <0>        -0.1056
     19 C17        -3.2285    5.8217   -4.6513 C.3       1 <0>        -0.1463
     20 O1          1.4413    6.8152   -5.9859 O.3       1 <0>        -0.4966
     21 H3         -4.9477    5.2140   -1.1101 H         1 <0>         0.0752
     22 H4         -5.1027    5.3427   -2.8786 H         1 <0>         0.0883
     23 H5         -4.3584    3.8977   -2.1533 H         1 <0>         0.0557
     24 H6         -1.1361    6.9140   -0.4978 H         1 <0>         0.1211
     25 H7         -0.2098    5.4108   -0.3241 H         1 <0>         0.0948
     26 H8          1.4976    6.8628   -1.4780 H         1 <0>         0.1319
     27 H9          2.5615    7.2560   -3.6545 H         1 <0>         0.1367
     28 H10        -0.9728    5.8769   -5.6131 H         1 <0>         0.1377
     29 H11        -3.2793    3.3042   -3.4201 H         1 <0>         0.0972
     30 H12        -1.8589    3.4701   -4.4861 H         1 <0>         0.1129
     31 H13        -0.4089    3.7943   -2.4882 H         1 <0>         0.1328
     32 H14        -1.2630    2.2345   -2.4130 H         1 <0>         0.1268
     33 H15        -1.6111    3.5745    0.9605 H         1 <0>         0.1344
     34 H16        -0.1580    3.5999   -0.0672 H         1 <0>         0.1319
     35 H17        -2.0837    1.1627    0.0183 H         1 <0>         0.1340
     36 H18         0.0021   -0.0041    0.0020 H         1 <0>         0.1231
     37 H19         0.9153    1.6285    0.0021 H         1 <0>         0.1108
     38 H20        -2.7370    5.5320   -5.5801 H         1 <0>         0.0716
     39 H21        -4.2334    5.4003   -4.6253 H         1 <0>         0.0720
     40 H22        -3.2888    6.9086   -4.5958 H         1 <0>         0.0706
     41 H23         1.2889    7.7026   -6.3386 H         1 <0>         0.4007
     42 N1         -2.0156    3.6794   -1.0912 N.4       1 <0>        -0.3829
     43 H24        -2.9290    3.2143   -1.0315 H         1 <0>         0.4263
@<TRIPOS>BOND
     1    1    2 1
     2    1   21 1
     3    1   22 1
     4    1   23 1
     5    2    3 1
     6    2   13 1
     7    2    4 1
     8    4    5 1
     9    4    6 1
    10    4   42 1
    11    6    7 1
    12    6   24 1
    13    6   25 1
    14    7   12 ar
    15    7    8 ar
    16    8    9 ar
    17    8   26 1
    18    9   10 ar
    19    9   27 1
    20   10   11 ar
    21   10   20 1
    22   11   12 ar
    23   11   28 1
    24   12   13 1
    25   13   14 1
    26   13   19 1
    27   14   15 1
    28   14   29 1
    29   14   30 1
    30   15   31 1
    31   15   32 1
    32   15   42 1
    33   16   17 1
    34   16   33 1
    35   16   34 1
    36   16   42 1
    37   17   18 2
    38   17   35 1
    39   18   36 1
    40   18   37 1
    41   19   38 1
    42   19   39 1
    43   19   40 1
    44   20   41 1
    45   42   43 1
@<TRIPOS>MOLECULE
ZINC00607289
   51    53     0     0     0
SMALL
USER_CHARGES

@<TRIPOS>ATOM
      1 C1         -0.5664    1.5629    0.4635 C.3       1 <0>         0.0474
      2 N1         -0.1670    0.1850    0.1670 N.am      1 <0>        -0.6317
      3 C2          0.1346   -0.7418    1.2608 C.3       1 <0>         0.1670
      4 H1          0.3080   -1.7385    0.8551 H         1 <0>         0.1306
      5 C3         -1.0461   -0.7851    2.2328 C.3       1 <0>        -0.0144
      6 N2         -2.2724   -1.1246    1.4987 N.4       1 <0>        -0.3941
      7 C4         -2.2123   -2.5306    1.0236 C.3       1 <0>        -0.0119
      8 C5         -3.7022   -2.8948    0.8044 C.3       1 <0>        -0.1435
      9 C6         -4.4102   -2.1731    1.9740 C.3       1 <0>        -0.1441
     10 C7         -3.4428   -1.0534    2.4003 C.3       1 <0>        -0.0096
     11 C8          1.3682   -0.2744    1.9894 C.ar      1 <0>        -0.1208
     12 C9          2.4253   -1.1431    2.1866 C.ar      1 <0>        -0.0945
     13 C10         3.5568   -0.7144    2.8549 C.ar      1 <0>        -0.1121
     14 C11         3.6315    0.5831    3.3257 C.ar      1 <0>        -0.0981
     15 C12         2.5748    1.4521    3.1278 C.ar      1 <0>        -0.1150
     16 C13         1.4450    1.0247    2.4556 C.ar      1 <0>        -0.1155
     17 C14        -0.0770   -0.2301   -1.1121 C.2       1 <0>         0.5159
     18 O1          0.2537   -1.3709   -1.3576 O.2       1 <0>        -0.5053
     19 C15        -0.3872    0.7232   -2.2373 C.3       1 <0>        -0.0992
     20 C16        -0.2122    0.0167   -3.5569 C.ar      1 <0>        -0.0669
     21 C17         1.0177    0.0272   -4.1884 C.ar      1 <0>        -0.0850
     22 C18         1.1794   -0.6199   -5.3989 C.ar      1 <0>        -0.0926
     23 C19         0.1104   -1.2790   -5.9791 C.ar      1 <0>        -0.0255
     24 C20        -1.1210   -1.2899   -5.3465 C.ar      1 <0>        -0.0302
     25 C21        -1.2798   -0.6460   -4.1324 C.ar      1 <0>        -0.0867
     26 Cl1        -2.4636   -2.1160   -6.0736 Cl        1 <0>        -0.0403
     27 Cl2         0.3128   -2.0915   -7.4998 Cl        1 <0>        -0.0362
     28 H2          0.3232    2.1757    0.6094 H         1 <0>         0.0828
     29 H3         -1.1484    1.9595   -0.3684 H         1 <0>         0.0929
     30 H4         -1.1712    1.5788    1.3702 H         1 <0>         0.0716
     31 H5         -0.8598   -1.5392    2.9974 H         1 <0>         0.1466
     32 H6         -1.1637    0.1902    2.7052 H         1 <0>         0.1350
     33 H7         -1.6583   -2.5969    0.0872 H         1 <0>         0.1371
     34 H8         -1.7665   -3.1742    1.7819 H         1 <0>         0.1363
     35 H9         -4.0553   -2.5142   -0.1540 H         1 <0>         0.0971
     36 H10        -3.8495   -3.9728    0.8705 H         1 <0>         0.1186
     37 H11        -5.3565   -1.7483    1.6391 H         1 <0>         0.1058
     38 H12        -4.5762   -2.8645    2.8001 H         1 <0>         0.1055
     39 H13        -3.1268   -1.2085    3.4319 H         1 <0>         0.1328
     40 H14        -3.9301   -0.0836    2.3002 H         1 <0>         0.1316
     41 H15         2.3669   -2.1569    1.8188 H         1 <0>         0.1266
     42 H16         4.3823   -1.3934    3.0096 H         1 <0>         0.1316
     43 H17         4.5152    0.9179    3.8485 H         1 <0>         0.1308
     44 H18         2.6330    2.4658    3.4959 H         1 <0>         0.1300
     45 H19         0.6210    1.7047    2.2977 H         1 <0>         0.1272
     46 H20        -1.4160    1.0714   -2.1452 H         1 <0>         0.1115
     47 H21         0.2905    1.5754   -2.1887 H         1 <0>         0.1174
     48 H22         1.8525    0.5417   -3.7357 H         1 <0>         0.1373
     49 H23         2.1402   -0.6107   -5.8920 H         1 <0>         0.1475
     50 H24        -2.2391   -0.6575   -3.6364 H         1 <0>         0.1369
     51 H25        -2.3960   -0.4975    0.7180 H         1 <0>         0.4215
@<TRIPOS>BOND
     1    1    2 1
     2    1   28 1
     3    1   29 1
     4    1   30 1
     5    2    3 1
     6    2   17 am
     7    3    4 1
     8    3    5 1
     9    3   11 1
    10    5    6 1
    11    5   31 1
    12    5   32 1
    13    6   10 1
    14    6    7 1
    15    6   51 1
    16    7    8 1
    17    7   33 1
    18    7   34 1
    19    8    9 1
    20    8   35 1
    21    8   36 1
    22    9   10 1
    23    9   37 1
    24    9   38 1
    25   10   39 1
    26   10   40 1
    27   11   16 ar
    28   11   12 ar
    29   12   13 ar
    30   12   41 1
    31   13   14 ar
    32   13   42 1
    33   14   15 ar
    34   14   43 1
    35   15   16 ar
    36   15   44 1
    37   16   45 1
    38   17   18 2
    39   17   19 1
    40   19   20 1
    41   19   46 1
    42   19   47 1
    43   20   25 ar
    44   20   21 ar
    45   21   22 ar
    46   21   48 1
    47   22   23 ar
    48   22   49 1
    49   23   24 ar
    50   23   27 1
    51   24   25 ar
    52   24   26 1
    53   25   50 1
@<TRIPOS>MOLECULE
ZINC03875420
   45    49     0     0     0
SMALL
USER_CHARGES

@<TRIPOS>ATOM
      1 C1          0.1871    1.4217    0.0965 C.2       1 <0>        -0.1012
      2 C2          0.0818    0.1160    0.0982 C.2       1 <0>        -0.2375
      3 C3          1.3172   -0.7397   -0.0145 C.3       1 <0>         0.0223
      4 N1          1.3676   -1.6781    1.1146 N.4       1 <0>        -0.3776
      5 C4          0.2328   -2.5982    1.0205 C.3       1 <0>        -0.0143
      6 C5          0.2418   -3.6083    2.1783 C.3       1 <0>        -0.1227
      7 C6          1.5804   -4.3491    2.1135 C.3       1 <0>        -0.0575
      8 C7          1.7110   -4.9715    0.7459 C.ar      1 <0>        -0.1844
      9 C8          2.2775   -4.4063   -0.3712 C.ar      1 <0>        -0.0560
     10 C9          2.2629   -5.1888   -1.5118 C.ar      1 <0>        -0.1259
     11 C10         1.7378   -6.4708   -1.4697 C.ar      1 <0>        -0.0998
     12 C11         1.2215   -7.0515   -0.3130 C.ar      1 <0>         0.1064
     13 C12         1.2265   -6.2698    0.8463 C.ar      1 <0>         0.1514
     14 O1          0.8737   -6.5320    2.1259 O.3       1 <0>        -0.2739
     15 C13         1.6224   -5.5974    2.9871 C.3       1 <0>         0.1098
     16 H1          1.1810   -5.4536    3.9733 H         1 <0>         0.1503
     17 C14         3.0318   -6.2000    3.0118 C.3       1 <0>         0.1140
     18 H2          3.1649   -6.7248    3.9578 H         1 <0>         0.0812
     19 C15         4.1352   -5.2176    2.8617 C.2       1 <0>        -0.1574
     20 C16         4.0183   -3.9760    2.5115 C.2       1 <0>        -0.1302
     21 C17         2.6971   -3.3443    2.2737 C.3       1 <0>        -0.0482
     22 H3          2.4635   -2.7496    3.1568 H         1 <0>         0.1001
     23 C18         2.6550   -2.3903    1.0885 C.3       1 <0>         0.0513
     24 H4          3.4459   -1.6527    1.2245 H         1 <0>         0.1410
     25 C19         2.8726   -3.0395   -0.2677 C.3       1 <0>        -0.0921
     26 O2          3.1335   -7.1527    1.9516 O.3       1 <0>        -0.5426
     27 O3          0.7340   -8.3211   -0.3119 O.3       1 <0>        -0.4834
     28 H5          1.1592    1.8850    0.0144 H         1 <0>         0.1120
     29 H6         -0.6986    2.0350    0.1728 H         1 <0>         0.1237
     30 H7         -0.8903   -0.3473    0.1804 H         1 <0>         0.1340
     31 H8          1.2882   -1.2982   -0.9501 H         1 <0>         0.1381
     32 H9          2.2024   -0.1038    0.0018 H         1 <0>         0.1336
     33 H10        -0.6947   -2.0264    1.0520 H         1 <0>         0.1350
     34 H11         0.2872   -3.1376    0.0749 H         1 <0>         0.1329
     35 H12         0.1522   -3.0844    3.1299 H         1 <0>         0.0983
     36 H13        -0.5802   -4.3146    2.0623 H         1 <0>         0.1199
     37 H14         2.6612   -4.7997   -2.4372 H         1 <0>         0.1326
     38 H15         1.7286   -7.0502   -2.3812 H         1 <0>         0.1361
     39 H16         5.1343   -5.5735    3.0651 H         1 <0>         0.1230
     40 H17         4.9115   -3.3815    2.3883 H         1 <0>         0.1297
     41 H18         3.9443   -3.1096   -0.4540 H         1 <0>         0.1213
     42 H19         2.4277   -2.4053   -1.0345 H         1 <0>         0.1020
     43 H20         3.9964   -7.5851    1.8927 H         1 <0>         0.3861
     44 H21         1.3955   -8.9963   -0.1081 H         1 <0>         0.3961
     45 H22         1.2971   -1.1585    1.9766 H         1 <0>         0.4226
@<TRIPOS>BOND
     1    1    2 2
     2    1   28 1
     3    1   29 1
     4    2    3 1
     5    2   30 1
     6    3    4 1
     7    3   31 1
     8    3   32 1
     9    4   23 1
    10    4    5 1
    11    4   45 1
    12    5    6 1
    13    5   33 1
    14    5   34 1
    15    6    7 1
    16    6   35 1
    17    6   36 1
    18    7   15 1
    19    7   21 1
    20    7    8 1
    21    8   13 ar
    22    8    9 ar
    23    9   25 1
    24    9   10 ar
    25   10   11 ar
    26   10   37 1
    27   11   12 ar
    28   11   38 1
    29   12   13 ar
    30   12   27 1
    31   13   14 1
    32   14   15 1
    33   15   16 1
    34   15   17 1
    35   17   18 1
    36   17   19 1
    37   17   26 1
    38   19   20 2
    39   19   39 1
    40   20   21 1
    41   20   40 1
    42   21   22 1
    43   21   23 1
    44   23   24 1
    45   23   25 1
    46   25   41 1
    47   25   42 1
    48   26   43 1
    49   27   44 1
@<TRIPOS>MOLECULE
ZINC00643032
   51    53     0     0     0
SMALL
USER_CHARGES

@<TRIPOS>ATOM
      1 C1          0.1306    1.7085    0.1467 C.3       1 <0>         0.0574
      2 N1          0.0612    0.2513    0.0119 N.am      1 <0>        -0.6347
      3 C2          0.1236   -0.5984    1.2037 C.3       1 <0>         0.1238
      4 H1          0.1481   -1.6456    0.9024 H         1 <0>         0.1243
      5 C3         -1.1091   -0.3469    2.0745 C.3       1 <0>        -0.1255
      6 C4         -1.0439   -1.2343    3.3191 C.3       1 <0>        -0.1279
      7 C5          0.2196   -0.9032    4.1159 C.3       1 <0>        -0.1185
      8 C6          1.4522   -1.1547    3.2452 C.3       1 <0>        -0.1397
      9 C7          1.3870   -0.2673    2.0005 C.3       1 <0>         0.0187
     10 H2          1.3626    0.7800    2.3018 H         1 <0>         0.1398
     11 N2          2.5705   -0.5087    1.1645 N.4       1 <0>        -0.3894
     12 C8          3.8089   -0.2489    1.9425 C.3       1 <0>        -0.0140
     13 C9          4.8859   -1.0554    1.1743 C.3       1 <0>        -0.1435
     14 C10         4.1220   -2.3279    0.7419 C.3       1 <0>        -0.1414
     15 C11         2.6339   -1.9326    0.7693 C.3       1 <0>        -0.0209
     16 C12        -0.0601   -0.3075   -1.2085 C.2       1 <0>         0.5142
     17 O1         -0.1176   -1.5138   -1.3201 O.2       1 <0>        -0.5086
     18 C13        -0.1243    0.5666   -2.4345 C.3       1 <0>        -0.0996
     19 C14        -0.2585   -0.2981   -3.6614 C.ar      1 <0>        -0.0664
     20 C15         0.8729   -0.7471   -4.3173 C.ar      1 <0>        -0.0908
     21 C16         0.7513   -1.5398   -5.4429 C.ar      1 <0>        -0.0952
     22 C17        -0.5030   -1.8848   -5.9137 C.ar      1 <0>        -0.0261
     23 C18        -1.6358   -1.4355   -5.2567 C.ar      1 <0>        -0.0280
     24 C19        -1.5122   -0.6464   -4.1271 C.ar      1 <0>        -0.0826
     25 Cl1        -3.2105   -1.8671   -5.8466 Cl        1 <0>        -0.0367
     26 Cl2        -0.6564   -2.8799   -7.3279 Cl        1 <0>        -0.0364
     27 H3          1.1744    2.0216    0.1725 H         1 <0>         0.0581
     28 H4         -0.3681    2.1761   -0.7022 H         1 <0>         0.0929
     29 H5         -0.3627    2.0118    1.0702 H         1 <0>         0.0851
     30 H6         -1.1336    0.7003    2.3758 H         1 <0>         0.0783
     31 H7         -2.0092   -0.5828    1.5068 H         1 <0>         0.0881
     32 H8         -1.9221   -1.0551    3.9395 H         1 <0>         0.0857
     33 H9         -1.0194   -2.2815    3.0178 H         1 <0>         0.0734
     34 H10         0.1951    0.1440    4.4172 H         1 <0>         0.0767
     35 H11         0.2660   -1.5354    5.0027 H         1 <0>         0.0893
     36 H12         2.3523   -0.9188    3.8129 H         1 <0>         0.0948
     37 H13         1.4767   -2.2019    2.9439 H         1 <0>         0.0913
     38 H14         4.0492    0.8143    1.9393 H         1 <0>         0.1348
     39 H15         3.7067   -0.6182    2.9629 H         1 <0>         0.1394
     40 H16         5.2351   -0.5006    0.3035 H         1 <0>         0.0970
     41 H17         5.7185   -1.3095    1.8304 H         1 <0>         0.1179
     42 H18         4.4168   -2.6223   -0.2653 H         1 <0>         0.1047
     43 H19         4.3108   -3.1396    1.4446 H         1 <0>         0.1045
     44 H20         2.1006   -2.5440    1.4971 H         1 <0>         0.1344
     45 H21         2.1968   -2.0630   -0.2207 H         1 <0>         0.1322
     46 H22        -0.9854    1.2310   -2.3623 H         1 <0>         0.1159
     47 H23         0.7873    1.1598   -2.5059 H         1 <0>         0.1122
     48 H24         1.8522   -0.4780   -3.9500 H         1 <0>         0.1333
     49 H25         1.6354   -1.8896   -5.9551 H         1 <0>         0.1461
     50 H26        -2.3954   -0.2990   -3.6118 H         1 <0>         0.1406
     51 H27         2.5438    0.0790    0.3448 H         1 <0>         0.4210
@<TRIPOS>BOND
     1    1    2 1
     2    1   27 1
     3    1   28 1
     4    1   29 1
     5    2    3 1
     6    2   16 am
     7    3    4 1
     8    3    9 1
     9    3    5 1
    10    5    6 1
    11    5   30 1
    12    5   31 1
    13    6    7 1
    14    6   32 1
    15    6   33 1
    16    7    8 1
    17    7   34 1
    18    7   35 1
    19    8    9 1
    20    8   36 1
    21    8   37 1
    22    9   10 1
    23    9   11 1
    24   11   15 1
    25   11   12 1
    26   11   51 1
    27   12   13 1
    28   12   38 1
    29   12   39 1
    30   13   14 1
    31   13   40 1
    32   13   41 1
    33   14   15 1
    34   14   42 1
    35   14   43 1
    36   15   44 1
    37   15   45 1
    38   16   17 2
    39   16   18 1
    40   18   19 1
    41   18   46 1
    42   18   47 1
    43   19   24 ar
    44   19   20 ar
    45   20   21 ar
    46   20   48 1
    47   21   22 ar
    48   21   49 1
    49   22   23 ar
    50   22   26 1
    51   23   24 ar
    52   23   25 1
    53   24   50 1
@<TRIPOS>MOLECULE
ZINC00001600
   40    41     0     0     0
SMALL
USER_CHARGES
1-[4-(3-hydroxyphenyl)-1-methyl-4-piperidyl]propan-1-one
@<TRIPOS>ATOM
      1 C1         -2.6767    6.0824    2.8361 C.3       1 <0>        -0.1504
      2 C2         -2.2062    5.4601    1.5200 C.3       1 <0>        -0.1788
      3 C3         -0.7694    5.8400    1.2701 C.2       1 <0>         0.3647
      4 O1         -0.1824    6.5366    2.0629 O.2       1 <0>        -0.4337
      5 C4         -0.0652    5.3506    0.0309 C.3       1 <0>        -0.0694
      6 C5         -0.8008    5.8613   -1.2111 C.3       1 <0>        -0.1332
      7 C6         -0.7596    7.3911   -1.2294 C.3       1 <0>        -0.0080
      8 C7          1.3493    7.4070   -0.0357 C.3       1 <0>        -0.0137
      9 C8          1.3723    5.8777    0.0174 C.3       1 <0>        -0.1324
     10 C9          0.7143    9.3041   -1.3990 C.3       1 <0>        -0.0423
     11 C10        -0.0492    3.8437    0.0227 C.ar      1 <0>        -0.0752
     12 C11         1.1560    3.1657    0.0080 C.ar      1 <0>        -0.1229
     13 C12         1.1741    1.7834    0.0004 C.ar      1 <0>        -0.0914
     14 C13        -0.0126    1.0758    0.0080 C.ar      1 <0>        -0.1325
     15 C14        -1.2228    1.7536    0.0174 C.ar      1 <0>         0.1202
     16 C15        -1.2382    3.1410    0.0302 C.ar      1 <0>        -0.1495
     17 O2         -2.3914    1.0598    0.0191 O.3       1 <0>        -0.4957
     18 H1         -2.5931    7.1675    2.7753 H         1 <0>         0.0609
     19 H2         -3.7159    5.8076    3.0169 H         1 <0>         0.0711
     20 H3         -2.0564    5.7154    3.6538 H         1 <0>         0.0652
     21 H4         -2.7754    5.7968    0.7699 H         1 <0>         0.0927
     22 H5         -2.2898    4.3750    1.5808 H         1 <0>         0.1132
     23 H6         -0.3148    5.4743   -2.1067 H         1 <0>         0.1072
     24 H7         -1.8372    5.5246   -1.1844 H         1 <0>         0.1214
     25 H8         -1.2589    7.7776   -0.3409 H         1 <0>         0.1260
     26 H9         -1.2691    7.7574   -2.1206 H         1 <0>         0.1395
     27 H10         0.8401    7.7934    0.8472 H         1 <0>         0.1453
     28 H11         2.3714    7.7850   -0.0601 H         1 <0>         0.1343
     29 H12         1.8876    5.5527    0.9212 H         1 <0>         0.1213
     30 H13         1.8937    5.4905   -0.8580 H         1 <0>         0.1015
     31 H14         1.7585    9.6057   -1.4806 H         1 <0>         0.1239
     32 H15         0.1786    9.6018   -2.3004 H         1 <0>         0.1234
     33 H16         0.2633    9.7869   -0.5321 H         1 <0>         0.1226
     34 H17         2.0847    3.7171    0.0021 H         1 <0>         0.1309
     35 H18         2.1166    1.2562   -0.0110 H         1 <0>         0.1360
     36 H19         0.0021   -0.0041    0.0020 H         1 <0>         0.1372
     37 H20        -2.1792    3.6709    0.0421 H         1 <0>         0.1380
     38 H21        -2.7254    0.8543    0.9030 H         1 <0>         0.3988
     39 N1          0.6506    7.8339   -1.2666 N.4       1 <0>        -0.3950
     40 H22         1.1128    7.4058   -2.0773 H         1 <0>         0.4288
@<TRIPOS>BOND
     1    1    2 1
     2    1   18 1
     3    1   19 1
     4    1   20 1
     5    2    3 1
     6    2   21 1
     7    2   22 1
     8    3    4 2
     9    3    5 1
    10    5    9 1
    11    5    6 1
    12    5   11 1
    13    6    7 1
    14    6   23 1
    15    6   24 1
    16    7   25 1
    17    7   26 1
    18    7   39 1
    19    8    9 1
    20    8   27 1
    21    8   28 1
    22    8   39 1
    23    9   29 1
    24    9   30 1
    25   10   31 1
    26   10   32 1
    27   10   33 1
    28   10   39 1
    29   11   16 ar
    30   11   12 ar
    31   12   13 ar
    32   12   34 1
    33   13   14 ar
    34   13   35 1
    35   14   15 ar
    36   14   36 1
    37   15   16 ar
    38   15   17 1
    39   16   37 1
    40   17   38 1
    41   39   40 1
@<TRIPOS>MOLECULE
ZINC03874479
   58    65     0     0     0
SMALL
USER_CHARGES
cyclopropylmethylBLAHdiol
@<TRIPOS>ATOM
      1 C1          2.9104    3.8420   -0.0057 C.ar      1 <0>        -0.1324
      2 C2          3.3419    2.5263   -0.0286 C.ar      1 <0>        -0.0968
      3 C3          2.4593    1.4607   -0.0259 C.ar      1 <0>        -0.1183
      4 C4          1.1008    1.7658    0.0010 C.ar      1 <0>         0.0897
      5 C5          0.6593    3.1181    0.0309 C.ar      1 <0>        -0.0740
      6 C6          1.5800    4.1739    0.0245 C.ar      1 <0>        -0.0773
      7 C7         -0.7700    3.0646    0.0598 C.2       1 <0>        -0.1678
      8 C8         -1.1262    1.7230    0.0162 C.2       1 <0>         0.0837
      9 N1         -0.0111    0.9658    0.0074 N.pl3     1 <0>        -0.5457
     10 H1          0.0021   -0.0041    0.0020 H         1 <0>         0.4221
     11 C9         -2.5816    1.5112   -0.0422 C.3       1 <0>         0.1626
     12 H2         -2.9244    2.0520   -0.9243 H         1 <0>         0.0952
     13 C10        -3.2046    2.2676    1.1373 C.3       1 <0>        -0.0563
     14 C11        -3.1720    1.6846    2.5425 C.3       1 <0>        -0.0910
     15 C12        -4.2373    2.5141    3.2967 C.3       1 <0>         0.0044
     16 C13        -3.9101    4.5273    1.8149 C.3       1 <0>         0.0571
     17 H3         -3.6274    5.5791    1.8584 H         1 <0>         0.1526
     18 C14        -2.7672    3.7006    1.2598 C.3       1 <0>         0.1355
     19 C15        -1.8510    4.1372    0.1494 C.3       1 <0>        -0.0443
     20 O1         -1.8811    3.6185    2.3779 O.3       1 <0>        -0.5614
     21 C16        -5.2504    4.4002    1.1160 C.3       1 <0>        -0.0933
     22 C17        -5.6062    3.0317    0.6566 C.ar      1 <0>        -0.0633
     23 C18        -4.6108    2.0940    0.6387 C.ar      1 <0>        -0.1732
     24 C19        -4.6380    0.8223    0.0560 C.ar      1 <0>         0.0717
     25 C20        -5.8678    0.3938   -0.4305 C.ar      1 <0>         0.1324
     26 C21        -6.9291    1.2962   -0.3389 C.ar      1 <0>        -0.1100
     27 C22        -6.8205    2.5836    0.1710 C.ar      1 <0>        -0.0947
     28 O2         -6.0291   -0.8442   -0.9698 O.3       1 <0>        -0.4801
     29 O3         -3.3534    0.3148    0.0205 O.3       1 <0>        -0.2585
     30 C23        -5.1376    4.6559    3.9286 C.3       1 <0>         0.0229
     31 C24        -5.1135    4.2203    5.3951 C.3       1 <0>        -0.2112
     32 C25        -6.3404    3.4811    5.9328 C.3       1 <0>        -0.1672
     33 C26        -6.0703    4.9267    6.3577 C.3       1 <0>        -0.1500
     34 H4          3.6459    4.6329   -0.0115 H         1 <0>         0.1235
     35 H5          4.4028    2.3253   -0.0496 H         1 <0>         0.1274
     36 H6          2.8081    0.4388   -0.0442 H         1 <0>         0.1326
     37 H7          1.2564    5.2041    0.0422 H         1 <0>         0.1293
     38 H8         -3.4418    0.6286    2.5279 H         1 <0>         0.1075
     39 H9         -2.1901    1.8240    2.9948 H         1 <0>         0.1214
     40 H10        -4.2192    2.2407    4.3517 H         1 <0>         0.1228
     41 H11        -5.2110    2.2438    2.8880 H         1 <0>         0.1230
     42 H12        -1.4044    5.1025    0.3877 H         1 <0>         0.1001
     43 H13        -2.4004    4.1970   -0.7902 H         1 <0>         0.0913
     44 H14        -1.4455    4.4537    2.5967 H         1 <0>         0.3794
     45 H15        -5.2463    5.0605    0.2487 H         1 <0>         0.1291
     46 H16        -6.0293    4.7446    1.7963 H         1 <0>         0.1068
     47 H17        -7.8984    0.9720   -0.6879 H         1 <0>         0.1444
     48 H18        -7.6832    3.2331    0.1888 H         1 <0>         0.1420
     49 H19        -6.2794   -1.5231   -0.3283 H         1 <0>         0.4014
     50 H20        -4.9723    5.7314    3.8662 H         1 <0>         0.1285
     51 H21        -6.1063    4.4113    3.4928 H         1 <0>         0.1331
     52 H22        -4.1382    3.9245    5.7816 H         1 <0>         0.1236
     53 H23        -7.1648    3.3051    5.2418 H         1 <0>         0.1050
     54 H24        -6.1724    2.6992    6.6734 H         1 <0>         0.1089
     55 H25        -5.7246    5.0952    7.3776 H         1 <0>         0.1113
     56 H26        -6.7166    5.7020    5.9462 H         1 <0>         0.1072
     57 N2         -4.0325    3.9897    3.2451 N.4       1 <0>        -0.3911
     58 H27        -3.1604    4.2067    3.7417 H         1 <0>         0.4282
@<TRIPOS>BOND
     1    1    6 ar
     2    1    2 ar
     3    1   34 1
     4    2    3 ar
     5    2   35 1
     6    3    4 ar
     7    3   36 1
     8    4    9 1
     9    4    5 ar
    10    5    6 ar
    11    5    7 1
    12    6   37 1
    13    7   19 1
    14    7    8 2
    15    8    9 1
    16    8   11 1
    17    9   10 1
    18   11   12 1
    19   11   29 1
    20   11   13 1
    21   13   18 1
    22   13   23 1
    23   13   14 1
    24   14   15 1
    25   14   38 1
    26   14   39 1
    27   15   40 1
    28   15   41 1
    29   15   57 1
    30   16   17 1
    31   16   18 1
    32   16   21 1
    33   16   57 1
    34   18   19 1
    35   18   20 1
    36   19   42 1
    37   19   43 1
    38   20   44 1
    39   21   22 1
    40   21   45 1
    41   21   46 1
    42   22   27 ar
    43   22   23 ar
    44   23   24 ar
    45   24   25 ar
    46   24   29 1
    47   25   26 ar
    48   25   28 1
    49   26   27 ar
    50   26   47 1
    51   27   48 1
    52   28   49 1
    53   30   31 1
    54   30   50 1
    55   30   51 1
    56   30   57 1
    57   31   33 1
    58   31   32 1
    59   31   52 1
    60   32   33 1
    61   32   53 1
    62   32   54 1
    63   33   55 1
    64   33   56 1
    65   57   58 1
@<TRIPOS>MOLECULE
ZINC03995590
   94   106     0     0     0
SMALL
USER_CHARGES
bis(cyclopropylmethyl)BLAHtetrol
@<TRIPOS>ATOM
      1 C1         -4.2408    4.0532   -3.2394 C.ar      1 <0>        -0.1134
      2 C2         -3.9584    2.9337   -4.0047 C.ar      1 <0>        -0.0957
      3 C3         -3.4900    1.7383   -3.4645 C.ar      1 <0>         0.1094
      4 C4         -3.3426    1.6840   -2.0731 C.ar      1 <0>         0.1114
      5 C5         -3.7142    2.7988   -1.3374 C.ar      1 <0>        -0.1823
      6 C6         -4.0855    4.0158   -1.8650 C.ar      1 <0>        -0.0582
      7 C7         -4.2780    5.1826   -0.9520 C.3       1 <0>        -0.0880
      8 C8         -4.0391    4.8548    0.5130 C.3       1 <0>         0.0115
      9 H1         -3.6893    5.7683    0.9939 H         1 <0>         0.1392
     10 C9         -2.9780    3.7683    0.7399 C.3       1 <0>         0.1527
     11 C10        -3.5100    2.4821    0.1226 C.3       1 <0>        -0.0219
     12 C11        -4.8355    2.0867    0.7671 C.3       1 <0>        -0.1286
     13 C12        -5.8408    3.2279    0.5811 C.3       1 <0>        -0.0020
     14 C13        -6.2781    5.5492    1.1099 C.3       1 <0>         0.0260
     15 C14        -7.4603    5.2115    2.0206 C.3       1 <0>        -0.2142
     16 C15        -8.8285    5.0242    1.3619 C.3       1 <0>        -0.1670
     17 C16        -8.5446    6.2768    2.1948 C.3       1 <0>        -0.1470
     18 C17        -2.5614    1.2894    0.0418 C.3       1 <0>         0.1736
     19 H2         -2.7499    0.5782    0.8460 H         1 <0>         0.1394
     20 O1         -2.8749    0.7162   -1.2570 O.3       1 <0>        -0.2785
     21 C18        -1.1278    1.7451    0.0163 C.2       1 <0>         0.0152
     22 C19        -0.7352    3.0399    0.0193 C.2       1 <0>        -0.1254
     23 C20         0.6630    3.0595    0.0048 C.2       1 <0>        -0.1242
     24 C21         1.0842    1.7753    0.0012 C.2       1 <0>         0.0123
     25 N1         -0.0111    0.9658    0.0074 N.pl3     1 <0>        -0.5109
     26 H3          0.0021   -0.0041    0.0020 H         1 <0>         0.4259
     27 C22         2.5295    1.3513   -0.0087 C.3       1 <0>         0.1722
     28 H4          2.7638    0.7176   -0.8640 H         1 <0>         0.1455
     29 C23         3.4428    2.5749    0.0709 C.3       1 <0>        -0.0234
     30 C24         4.8494    2.2442   -0.4175 C.3       1 <0>        -0.1282
     31 C25         5.7854    3.4013   -0.0504 C.3       1 <0>        -0.0016
     32 C26         3.9344    4.9735   -0.1492 C.3       1 <0>         0.0088
     33 H5          3.6143    5.8881   -0.6483 H         1 <0>         0.1384
     34 C27         2.9439    3.8686   -0.5553 C.3       1 <0>         0.1542
     35 C28         1.5707    4.2581    0.0037 C.3       1 <0>        -0.0683
     36 O2          2.8992    3.7431   -1.9781 O.3       1 <0>        -0.5369
     37 C29         3.9583    5.2454    1.3465 C.3       1 <0>        -0.0866
     38 C30         3.6963    4.0323    2.1788 C.ar      1 <0>        -0.0592
     39 C31         3.4539    2.8277    1.5575 C.ar      1 <0>        -0.1765
     40 C32         3.0679    1.6548    2.1891 C.ar      1 <0>         0.1085
     41 C33         3.0234    1.6495    3.5874 C.ar      1 <0>         0.1115
     42 C34         3.3380    2.8428    4.2339 C.ar      1 <0>        -0.0980
     43 C35         3.6585    4.0111    3.5616 C.ar      1 <0>        -0.1114
     44 O3          2.6878    0.5306    4.2839 O.3       1 <0>        -0.4777
     45 O4          2.7993    0.6991    1.2704 O.3       1 <0>        -0.2801
     46 C36         6.2059    5.7573   -0.4118 C.3       1 <0>         0.0258
     47 C37         7.5054    5.4992   -1.1771 C.3       1 <0>        -0.2144
     48 C38         8.7843    5.3184   -0.3570 C.3       1 <0>        -0.1670
     49 C39         8.5655    6.6022   -1.1614 C.3       1 <0>        -0.1470
     50 C40        -1.6879    4.2064    0.0330 C.3       1 <0>        -0.0685
     51 O5         -2.7343    3.5798    2.1353 O.3       1 <0>        -0.5353
     52 O6         -3.1890    0.6720   -4.2531 O.3       1 <0>        -0.4775
     53 H6         -4.5841    4.9588   -3.7174 H         1 <0>         0.1408
     54 H7         -4.1084    2.9906   -5.0728 H         1 <0>         0.1447
     55 H8         -5.2981    5.5495   -1.0653 H         1 <0>         0.1062
     56 H9         -3.5889    5.9731   -1.2493 H         1 <0>         0.1253
     57 H10        -5.2172    1.1832    0.2915 H         1 <0>         0.1198
     58 H11        -4.6833    1.9025    1.8306 H         1 <0>         0.1075
     59 H12        -6.0270    3.3786   -0.4823 H         1 <0>         0.1343
     60 H13        -6.7754    2.9741    1.0813 H         1 <0>         0.1389
     61 H14        -5.8132    6.4758    1.4465 H         1 <0>         0.1326
     62 H15        -6.6315    5.6711    0.0860 H         1 <0>         0.1327
     63 H16        -7.2265    4.5858    2.8819 H         1 <0>         0.1250
     64 H17        -8.8864    5.1415    0.2798 H         1 <0>         0.1064
     65 H18        -9.4950    4.2755    1.7902 H         1 <0>         0.1115
     66 H19        -9.0245    6.3516    3.1706 H         1 <0>         0.1136
     67 H20        -8.4156    7.2183    1.6609 H         1 <0>         0.1081
     68 H21         5.1962    1.3281    0.0607 H         1 <0>         0.1205
     69 H22         4.8383    2.1099   -1.4992 H         1 <0>         0.1079
     70 H23         5.8294    3.5037    1.0339 H         1 <0>         0.1339
     71 H24         6.7840    3.1984   -0.4375 H         1 <0>         0.1386
     72 H25         1.6857    4.6264    1.0231 H         1 <0>         0.0973
     73 H26         1.1352    5.0407   -0.6175 H         1 <0>         0.0881
     74 H27         2.5883    4.5376   -2.4334 H         1 <0>         0.3928
     75 H28         4.9364    5.6462    1.6125 H         1 <0>         0.1059
     76 H29         3.2008    5.9945    1.5770 H         1 <0>         0.1246
     77 H30         3.3314    2.8581    5.3137 H         1 <0>         0.1437
     78 H31         3.8802    4.9090    4.1195 H         1 <0>         0.1402
     79 H32         1.7406    0.4455    4.4588 H         1 <0>         0.3963
     80 H33         5.7558    6.6859   -0.7628 H         1 <0>         0.1325
     81 H34         6.4217    5.8381    0.6536 H         1 <0>         0.1325
     82 H35         7.4049    4.9107   -2.0891 H         1 <0>         0.1252
     83 H36         8.6999    5.3833    0.7278 H         1 <0>         0.1062
     84 H37         9.5253    4.6112   -0.7296 H         1 <0>         0.1114
     85 H38         9.1628    6.7392   -2.0628 H         1 <0>         0.1136
     86 H39         8.3371    7.5119   -0.6061 H         1 <0>         0.1080
     87 H40        -1.2390    5.0408    0.5719 H         1 <0>         0.0875
     88 H41        -1.9132    4.5085   -0.9897 H         1 <0>         0.0978
     89 H42        -2.4218    4.3736    2.5907 H         1 <0>         0.3912
     90 H43        -2.2713    0.6546   -4.5575 H         1 <0>         0.3970
     91 N2         -5.2894    4.4569    1.1948 N.4       1 <0>        -0.3861
     92 H44        -5.0834    4.2703    2.1832 H         1 <0>         0.4321
     93 N3          5.2765    4.6435   -0.6752 N.4       1 <0>        -0.3850
     94 H45         5.2085    4.4998   -1.6896 H         1 <0>         0.4327
@<TRIPOS>BOND
     1    1    6 ar
     2    1    2 ar
     3    1   53 1
     4    2    3 ar
     5    2   54 1
     6    3    4 ar
     7    3   52 1
     8    4   20 1
     9    4    5 ar
    10    5   11 1
    11    5    6 ar
    12    6    7 1
    13    7    8 1
    14    7   55 1
    15    7   56 1
    16    8    9 1
    17    8   10 1
    18    8   91 1
    19   10   50 1
    20   10   11 1
    21   10   51 1
    22   11   12 1
    23   11   18 1
    24   12   13 1
    25   12   57 1
    26   12   58 1
    27   13   59 1
    28   13   60 1
    29   13   91 1
    30   14   15 1
    31   14   61 1
    32   14   62 1
    33   14   91 1
    34   15   17 1
    35   15   16 1
    36   15   63 1
    37   16   17 1
    38   16   64 1
    39   16   65 1
    40   17   66 1
    41   17   67 1
    42   18   19 1
    43   18   20 1
    44   18   21 1
    45   21   25 1
    46   21   22 2
    47   22   23 1
    48   22   50 1
    49   23   35 1
    50   23   24 2
    51   24   25 1
    52   24   27 1
    53   25   26 1
    54   27   28 1
    55   27   45 1
    56   27   29 1
    57   29   34 1
    58   29   39 1
    59   29   30 1
    60   30   31 1
    61   30   68 1
    62   30   69 1
    63   31   70 1
    64   31   71 1
    65   31   93 1
    66   32   33 1
    67   32   34 1
    68   32   37 1
    69   32   93 1
    70   34   35 1
    71   34   36 1
    72   35   72 1
    73   35   73 1
    74   36   74 1
    75   37   38 1
    76   37   75 1
    77   37   76 1
    78   38   43 ar
    79   38   39 ar
    80   39   40 ar
    81   40   41 ar
    82   40   45 1
    83   41   42 ar
    84   41   44 1
    85   42   43 ar
    86   42   77 1
    87   43   78 1
    88   44   79 1
    89   46   47 1
    90   46   80 1
    91   46   81 1
    92   46   93 1
    93   47   49 1
    94   47   48 1
    95   47   82 1
    96   48   49 1
    97   48   83 1
    98   48   84 1
    99   49   85 1
   100   49   86 1
   101   50   87 1
   102   50   88 1
   103   51   89 1
   104   52   90 1
   105   91   92 1
   106   93   94 1
@<TRIPOS>MOLECULE
ZINC03812984
   43    46     0     0     0
SMALL
USER_CHARGES
methylBLAHol
@<TRIPOS>ATOM
      1 C1         -2.7983    1.5746    2.5117 C.3       1 <0>        -0.0492
      2 C2         -2.8836    1.5590    0.0946 C.3       1 <0>        -0.0137
      3 C3         -2.1794    1.0201   -1.2058 C.3       1 <0>        -0.1260
      4 C4         -0.7576    1.5994   -1.2263 C.3       1 <0>        -0.0184
      5 C5         -0.0471    1.1494   -2.4971 C.3       1 <0>        -0.1096
      6 C6          1.3879    1.6819   -2.5009 C.3       1 <0>        -0.1248
      7 C7          2.1311    1.1511   -1.2732 C.3       1 <0>        -0.1197
      8 C8          1.4200    1.6218   -0.0028 C.3       1 <0>        -0.1140
      9 C9         -0.0127    1.0858    0.0080 C.3       1 <0>        -0.0868
     10 H1          0.0021   -0.0041    0.0020 H         1 <0>         0.1005
     11 C10        -0.7376    1.5857    1.2587 C.3       1 <0>         0.0368
     12 H2         -0.2470    1.1454    2.1268 H         1 <0>         0.1322
     13 C11        -0.6296    3.0942    1.3559 C.3       1 <0>        -0.0906
     14 C12        -0.8275    3.7825    0.0324 C.ar      1 <0>        -0.1118
     15 C13        -0.8645    3.1019   -1.1649 C.ar      1 <0>        -0.0525
     16 C14        -1.0059    3.7971   -2.3554 C.ar      1 <0>        -0.1389
     17 C15        -1.1227    5.1776   -2.3507 C.ar      1 <0>         0.1246
     18 C16        -1.1001    5.8624   -1.1445 C.ar      1 <0>        -0.1373
     19 C17        -0.9542    5.1667    0.0366 C.ar      1 <0>        -0.0934
     20 O1         -1.2582    5.8565   -3.5201 O.3       1 <0>        -0.4965
     21 H3         -2.7772    2.6625    2.5756 H         1 <0>         0.1254
     22 H4         -3.8328    1.2313    2.5006 H         1 <0>         0.1236
     23 H5         -2.2838    1.1498    3.3736 H         1 <0>         0.1231
     24 H6         -3.8977    1.1640    0.1553 H         1 <0>         0.1274
     25 H7         -2.9199    2.6475    0.0505 H         1 <0>         0.1324
     26 H8         -2.7194    1.3346   -2.0989 H         1 <0>         0.1139
     27 H9         -2.1344   -0.0682   -1.1643 H         1 <0>         0.0929
     28 H10        -0.5796    1.5352   -3.3664 H         1 <0>         0.0775
     29 H11        -0.0300    0.0602   -2.5361 H         1 <0>         0.0764
     30 H12         1.3713    2.7714   -2.4727 H         1 <0>         0.0675
     31 H13         1.8966    1.3495   -3.4057 H         1 <0>         0.0729
     32 H14         3.1542    1.5269   -1.2774 H         1 <0>         0.0739
     33 H15         2.1443    0.0615   -1.2996 H         1 <0>         0.0675
     34 H16         1.4005    2.7114    0.0201 H         1 <0>         0.0786
     35 H17         1.9539    1.2495    0.8716 H         1 <0>         0.0744
     36 H18         0.3629    3.3369    1.7355 H         1 <0>         0.1193
     37 H19        -1.3763    3.4612    2.0602 H         1 <0>         0.0962
     38 H20        -1.0247    3.2597   -3.2921 H         1 <0>         0.1368
     39 H21        -1.1963    6.9380   -1.1308 H         1 <0>         0.1364
     40 H22        -0.9386    5.7022    0.9743 H         1 <0>         0.1313
     41 H23        -0.4191    6.1273   -3.9172 H         1 <0>         0.4003
     42 N1         -2.1333    1.0997    1.2905 N.4       1 <0>        -0.3877
     43 H24        -2.1230    0.0730    1.2965 H         1 <0>         0.4294
@<TRIPOS>BOND
     1    1   21 1
     2    1   22 1
     3    1   23 1
     4    1   42 1
     5    2    3 1
     6    2   24 1
     7    2   25 1
     8    2   42 1
     9    3    4 1
    10    3   26 1
    11    3   27 1
    12    4    9 1
    13    4   15 1
    14    4    5 1
    15    5    6 1
    16    5   28 1
    17    5   29 1
    18    6    7 1
    19    6   30 1
    20    6   31 1
    21    7    8 1
    22    7   32 1
    23    7   33 1
    24    8    9 1
    25    8   34 1
    26    8   35 1
    27    9   10 1
    28    9   11 1
    29   11   12 1
    30   11   13 1
    31   11   42 1
    32   13   14 1
    33   13   36 1
    34   13   37 1
    35   14   19 ar
    36   14   15 ar
    37   15   16 ar
    38   16   17 ar
    39   16   38 1
    40   17   18 ar
    41   17   20 1
    42   18   19 ar
    43   18   39 1
    44   19   40 1
    45   20   41 1
    46   42   43 1
@<TRIPOS>MOLECULE
ZINC00001681
   40    41     0     0     0
SMALL
USER_CHARGES
ethyl 1-methyl-4-phenyl-piperidine-4-carboxylate
@<TRIPOS>ATOM
      1 C1          3.5677    2.0652   -0.0209 C.3       1 <0>        -0.1571
      2 C2          2.3672    1.1168   -0.0145 C.3       1 <0>         0.0617
      3 O1          1.1389    1.8910    0.0013 O.3       1 <0>        -0.3457
      4 C3         -0.0143    1.2041    0.0087 C.2       1 <0>         0.4691
      5 O2          0.0021   -0.0041    0.0020 O.2       1 <0>        -0.4997
      6 C4         -1.3295    1.9397    0.0189 C.3       1 <0>        -0.0092
      7 C5         -1.4192    2.8101    1.2755 C.3       1 <0>        -0.1353
      8 C6         -1.3795    1.9111    2.5150 C.3       1 <0>        -0.0071
      9 C7         -2.4095    0.0867    1.2971 C.3       1 <0>        -0.0155
     10 C8         -2.4806    0.9300    0.0221 C.3       1 <0>        -0.1304
     11 C9         -2.5751    0.1785    3.7106 C.3       1 <0>        -0.0419
     12 C10        -1.4281    2.8121   -1.2060 C.ar      1 <0>        -0.1077
     13 C11        -2.4513    2.6149   -2.1144 C.ar      1 <0>        -0.1098
     14 C12        -2.5445    3.4182   -3.2355 C.ar      1 <0>        -0.1151
     15 C13        -1.6086    4.4119   -3.4536 C.ar      1 <0>        -0.1002
     16 C14        -0.5824    4.6057   -2.5478 C.ar      1 <0>        -0.1135
     17 C15        -0.4922    3.8058   -1.4241 C.ar      1 <0>        -0.0965
     18 H1          3.5259    2.6984   -0.9071 H         1 <0>         0.0712
     19 H2          3.5429    2.6889    0.8727 H         1 <0>         0.0689
     20 H3          4.4898    1.4841   -0.0328 H         1 <0>         0.0877
     21 H4          2.4091    0.4836    0.8717 H         1 <0>         0.0733
     22 H5          2.3921    0.4932   -0.9082 H         1 <0>         0.0766
     23 H6         -0.5779    3.5027    1.2993 H         1 <0>         0.1270
     24 H7         -2.3533    3.3716    1.2633 H         1 <0>         0.1104
     25 H8         -1.4581    2.5258    3.4117 H         1 <0>         0.1406
     26 H9         -0.4392    1.3601    2.5336 H         1 <0>         0.1245
     27 H10        -3.2361   -0.6236    1.3093 H         1 <0>         0.1363
     28 H11        -1.4643   -0.4555    1.3217 H         1 <0>         0.1477
     29 H12        -3.4314    1.4620   -0.0098 H         1 <0>         0.1089
     30 H13        -2.3971    0.2803   -0.8491 H         1 <0>         0.1247
     31 H14        -1.6814   -0.4384    3.8039 H         1 <0>         0.1222
     32 H15        -2.6420    0.8527    4.5645 H         1 <0>         0.1236
     33 H16        -3.4571   -0.4613    3.6829 H         1 <0>         0.1244
     34 H17        -3.1799    1.8356   -1.9463 H         1 <0>         0.1276
     35 H18        -3.3460    3.2666   -3.9433 H         1 <0>         0.1307
     36 H19        -1.6789    5.0366   -4.3317 H         1 <0>         0.1305
     37 H20         0.1490    5.3818   -2.7184 H         1 <0>         0.1310
     38 H21         0.3097    3.9569   -0.7166 H         1 <0>         0.1329
     39 N1         -2.5265    0.9792    2.4698 N.4       1 <0>        -0.3958
     40 H22        -3.3940    1.5225    2.3895 H         1 <0>         0.4289
@<TRIPOS>BOND
     1    1    2 1
     2    1   18 1
     3    1   19 1
     4    1   20 1
     5    2    3 1
     6    2   21 1
     7    2   22 1
     8    3    4 1
     9    4    5 2
    10    4    6 1
    11    6   10 1
    12    6    7 1
    13    6   12 1
    14    7    8 1
    15    7   23 1
    16    7   24 1
    17    8   25 1
    18    8   26 1
    19    8   39 1
    20    9   10 1
    21    9   27 1
    22    9   28 1
    23    9   39 1
    24   10   29 1
    25   10   30 1
    26   11   31 1
    27   11   32 1
    28   11   33 1
    29   11   39 1
    30   12   17 ar
    31   12   13 ar
    32   13   14 ar
    33   13   34 1
    34   14   15 ar
    35   14   35 1
    36   15   16 ar
    37   15   36 1
    38   16   17 ar
    39   16   37 1
    40   17   38 1
    41   39   40 1
@<TRIPOS>MOLECULE
ZINC03812983
   41    45     0     0     0
SMALL
USER_CHARGES
methylBLAHdiol
@<TRIPOS>ATOM
      1 C1          2.5532   -4.0281   -1.2929 C.3       1 <0>        -0.0484
      2 C2          3.5947   -1.8745   -0.9415 C.3       1 <0>        -0.0043
      3 C3          3.6019   -0.5992   -0.0995 C.3       1 <0>        -0.1260
      4 C4          2.2189    0.0434   -0.2379 C.3       1 <0>        -0.0574
      5 C5          1.9436    0.2694   -1.7033 C.ar      1 <0>        -0.1864
      6 C6          1.3321   -0.5987   -2.5755 C.ar      1 <0>        -0.0564
      7 C7          1.2190   -0.1564   -3.8812 C.ar      1 <0>        -0.1265
      8 C8          1.6669    1.1083   -4.2290 C.ar      1 <0>        -0.1009
      9 C9          2.2257    2.0020   -3.3175 C.ar      1 <0>         0.1075
     10 C10         2.3451    1.5675   -1.9939 C.ar      1 <0>         0.1517
     11 O1          2.7949    2.1721   -0.8702 O.3       1 <0>        -0.2745
     12 C11         2.1727    1.4792    0.2740 C.3       1 <0>         0.1100
     13 H1          2.6983    1.6223    1.2181 H         1 <0>         0.1502
     14 C12         0.7367    2.0155    0.2661 C.3       1 <0>         0.1097
     15 H2          0.6482    2.7733    1.0446 H         1 <0>         0.0803
     16 C13        -0.3150    0.9908    0.4879 C.2       1 <0>        -0.1525
     17 C14        -0.1527   -0.2942    0.4717 C.2       1 <0>        -0.1355
     18 C15         1.1799   -0.9197    0.2862 C.3       1 <0>        -0.0479
     19 H3          1.5192   -1.2471    1.2689 H         1 <0>         0.1004
     20 C16         1.1821   -2.1468   -0.6151 C.3       1 <0>         0.0590
     21 H4          0.4619   -2.8606   -0.2153 H         1 <0>         0.1363
     22 C17         0.8134   -1.9003   -2.0558 C.3       1 <0>        -0.0882
     23 O2          0.4964    2.6425   -0.9953 O.3       1 <0>        -0.5359
     24 O3          2.6371    3.2410   -3.6984 O.3       1 <0>        -0.4796
     25 H5          2.4612   -3.8104   -2.3570 H         1 <0>         0.1267
     26 H6          3.4994   -4.5361   -1.1065 H         1 <0>         0.1256
     27 H7          1.7289   -4.6694   -0.9807 H         1 <0>         0.1244
     28 H8          4.5493   -2.3884   -0.8287 H         1 <0>         0.1314
     29 H9          3.4563   -1.6019   -1.9877 H         1 <0>         0.1340
     30 H10         4.3670    0.0825   -0.4709 H         1 <0>         0.1194
     31 H11         3.7955   -0.8428    0.9451 H         1 <0>         0.0984
     32 H12         0.7809   -0.7981   -4.6314 H         1 <0>         0.1324
     33 H13         1.5779    1.4173   -5.2600 H         1 <0>         0.1363
     34 H14        -1.3148    1.3526    0.6772 H         1 <0>         0.1225
     35 H15        -1.0158   -0.9312    0.5970 H         1 <0>         0.1292
     36 H16        -0.2725   -1.9066   -2.1492 H         1 <0>         0.1227
     37 H17         1.2210   -2.7075   -2.6645 H         1 <0>         0.1017
     38 H18        -0.3623    3.0826   -1.0586 H         1 <0>         0.3865
     39 H19         3.5594    3.2780   -3.9865 H         1 <0>         0.3923
     40 N1          2.5173   -2.7921   -0.4927 N.4       1 <0>        -0.3970
     41 H20         2.6774   -3.0298    0.4933 H         1 <0>         0.4294
@<TRIPOS>BOND
     1    1   25 1
     2    1   26 1
     3    1   27 1
     4    1   40 1
     5    2    3 1
     6    2   28 1
     7    2   29 1
     8    2   40 1
     9    3    4 1
    10    3   30 1
    11    3   31 1
    12    4   12 1
    13    4   18 1
    14    4    5 1
    15    5   10 ar
    16    5    6 ar
    17    6   22 1
    18    6    7 ar
    19    7    8 ar
    20    7   32 1
    21    8    9 ar
    22    8   33 1
    23    9   10 ar
    24    9   24 1
    25   10   11 1
    26   11   12 1
    27   12   13 1
    28   12   14 1
    29   14   15 1
    30   14   16 1
    31   14   23 1
    32   16   17 2
    33   16   34 1
    34   17   18 1
    35   17   35 1
    36   18   19 1
    37   18   20 1
    38   20   21 1
    39   20   22 1
    40   20   40 1
    41   22   36 1
    42   22   37 1
    43   23   38 1
    44   24   39 1
    45   40   41 1
@<TRIPOS>MOLECULE
ZINC14952116
   76    77     0     0     0
SMALL
USER_CHARGES

@<TRIPOS>ATOM
      1 C1         -0.0187    1.5258    0.0104 C.3       1 <0>        -0.1447
      2 C2          0.0021   -0.0041    0.0020 C.3       1 <0>        -0.0967
      3 C3          0.7421   -0.5109    1.2415 C.3       1 <0>        -0.1473
      4 C4         -1.4333   -0.5336    0.0129 C.3       1 <0>        -0.1054
      5 C5         -1.4157   -2.0577   -0.1212 C.3       1 <0>         0.0745
      6 H1         -0.7891   -2.4841    0.6622 H         1 <0>         0.0870
      7 C6         -2.8192   -2.5900    0.0125 C.2       1 <0>         0.4905
      8 O1         -3.3892   -3.0569   -0.9588 O.co2     1 <0>        -0.6874
      9 O2         -3.3846   -2.5537    1.0921 O.co2     1 <0>        -0.6962
     10 N1         -0.8765   -2.4263   -1.4325 N.am      1 <0>        -0.6830
     11 C7         -0.2982   -3.6308   -1.6090 C.2       1 <0>         0.5110
     12 O3         -0.2242   -4.4096   -0.6822 O.2       1 <0>        -0.5434
     13 C8          0.2565   -4.0101   -2.9579 C.3       1 <0>         0.1410
     14 H2          1.0331   -3.3007   -3.2439 H         1 <0>         0.1113
     15 C9         -0.8664   -3.9833   -3.9969 C.3       1 <0>        -0.0906
     16 C10        -0.2907   -4.2419   -5.3654 C.ar      1 <0>        -0.0564
     17 C11         0.1466   -3.1854   -6.1422 C.ar      1 <0>        -0.1049
     18 C12         0.6746   -3.4227   -7.3975 C.ar      1 <0>        -0.1132
     19 C13         0.7657   -4.7164   -7.8758 C.ar      1 <0>        -0.1244
     20 C14         0.3292   -5.7730   -7.0986 C.ar      1 <0>        -0.1144
     21 C15        -0.1948   -5.5361   -5.8416 C.ar      1 <0>        -0.1104
     22 N2          0.8270   -5.3577   -2.8901 N.am      1 <0>        -0.7019
     23 C16         1.7936   -5.7246   -3.7546 C.2       1 <0>         0.5103
     24 O4          2.1912   -4.9391   -4.5888 O.2       1 <0>        -0.5220
     25 C17         2.3805   -7.1108   -3.6848 C.3       1 <0>         0.1013
     26 N3          3.4040   -7.2606   -4.7222 N.am      1 <0>        -0.7065
     27 C18         4.0686   -8.4262   -4.8498 C.2       1 <0>         0.5125
     28 O5          3.8194   -9.3510   -4.1058 O.2       1 <0>        -0.5389
     29 C19         5.1215   -8.5803   -5.9170 C.3       1 <0>         0.1024
     30 N4          5.6920   -9.9279   -5.8491 N.am      1 <0>        -0.7178
     31 C20         6.6587  -10.2948   -6.7136 C.2       1 <0>         0.5243
     32 O6          7.0562   -9.5093   -7.5478 O.2       1 <0>        -0.5267
     33 C21         7.2456  -11.6811   -6.6438 C.3       1 <0>         0.0854
     34 H3          6.4524  -12.4018   -6.4452 H         1 <0>         0.1063
     35 C22         8.2817  -11.7402   -5.5196 C.3       1 <0>        -0.1125
     36 C23         8.7791  -13.1547   -5.3688 C.ar      1 <0>        -0.0942
     37 C24         8.1319  -14.0263   -4.5124 C.ar      1 <0>        -0.0953
     38 C25         8.5862  -15.3233   -4.3721 C.ar      1 <0>        -0.1400
     39 C26         9.6924  -15.7513   -5.0916 C.ar      1 <0>         0.1037
     40 C27        10.3397  -14.8750   -5.9506 C.ar      1 <0>        -0.1404
     41 C28         9.8784  -13.5805   -6.0913 C.ar      1 <0>        -0.1033
     42 O7         10.1415  -17.0266   -4.9550 O.3       1 <0>        -0.5002
     43 N5          7.8918  -12.0042   -7.9228 N.3       1 <0>        -0.8255
     44 H4          1.0039    1.9031    0.0027 H         1 <0>         0.0490
     45 H5         -0.5459    1.8868   -0.8726 H         1 <0>         0.0520
     46 H6         -0.5289    1.8773    0.9072 H         1 <0>         0.0538
     47 H7          0.5123   -0.3556   -0.8948 H         1 <0>         0.0651
     48 H8          0.7568   -1.6008    1.2356 H         1 <0>         0.0579
     49 H9          1.7647   -0.1336    1.2338 H         1 <0>         0.0467
     50 H10         0.2319   -0.1594    2.1383 H         1 <0>         0.0546
     51 H11        -1.9156   -0.2570    0.9504 H         1 <0>         0.0807
     52 H12        -1.9862   -0.1019   -0.8214 H         1 <0>         0.0611
     53 H13        -0.9356   -1.8035   -2.1738 H         1 <0>         0.3916
     54 H14        -1.5995   -4.7542   -3.7595 H         1 <0>         0.0864
     55 H15        -1.3495   -3.0063   -3.9847 H         1 <0>         0.0914
     56 H16         0.0754   -2.1747   -5.7685 H         1 <0>         0.1162
     57 H17         1.0157   -2.5972   -8.0047 H         1 <0>         0.1146
     58 H18         1.1776   -4.9017   -8.8569 H         1 <0>         0.1130
     59 H19         0.4001   -6.7838   -7.4725 H         1 <0>         0.1117
     60 H20        -0.5324   -6.3619   -5.2329 H         1 <0>         0.1103
     61 H21         0.5090   -5.9859   -2.2229 H         1 <0>         0.4131
     62 H22         2.8314   -7.2656   -2.7045 H         1 <0>         0.1015
     63 H23         1.5926   -7.8473   -3.8427 H         1 <0>         0.1009
     64 H24         3.6034   -6.5210   -5.3172 H         1 <0>         0.4161
     65 H25         4.6706   -8.4255   -6.8972 H         1 <0>         0.1029
     66 H26         5.9094   -7.8438   -5.7591 H         1 <0>         0.1017
     67 H27         5.3741  -10.5561   -5.1819 H         1 <0>         0.4123
     68 H28         9.1183  -11.0848   -5.7617 H         1 <0>         0.0822
     69 H29         7.8235  -11.4147   -4.5857 H         1 <0>         0.0865
     70 H30         7.2708  -13.6926   -3.9525 H         1 <0>         0.1304
     71 H31         8.0808  -16.0035   -3.7025 H         1 <0>         0.1306
     72 H32        11.2012  -15.2058   -6.5118 H         1 <0>         0.1298
     73 H33        10.3793  -12.8992   -6.7631 H         1 <0>         0.1258
     74 H34         9.7431  -17.6525   -5.5751 H         1 <0>         0.3917
     75 H35         8.6314  -11.3498   -8.1298 H         1 <0>         0.3515
     76 H36         8.2370  -12.9523   -7.9242 H         1 <0>         0.3495
@<TRIPOS>BOND
     1    1    2 1
     2    1   44 1
     3    1   45 1
     4    1   46 1
     5    2    3 1
     6    2    4 1
     7    2   47 1
     8    3   48 1
     9    3   49 1
    10    3   50 1
    11    4    5 1
    12    4   51 1
    13    4   52 1
    14    5    6 1
    15    5    7 1
    16    5   10 1
    17    7    8 2
    18    7    9 1
    19   10   11 am
    20   10   53 1
    21   11   12 2
    22   11   13 1
    23   13   14 1
    24   13   15 1
    25   13   22 1
    26   15   16 1
    27   15   54 1
    28   15   55 1
    29   16   21 ar
    30   16   17 ar
    31   17   18 ar
    32   17   56 1
    33   18   19 ar
    34   18   57 1
    35   19   20 ar
    36   19   58 1
    37   20   21 ar
    38   20   59 1
    39   21   60 1
    40   22   23 am
    41   22   61 1
    42   23   24 2
    43   23   25 1
    44   25   26 1
    45   25   62 1
    46   25   63 1
    47   26   27 am
    48   26   64 1
    49   27   28 2
    50   27   29 1
    51   29   30 1
    52   29   65 1
    53   29   66 1
    54   30   31 am
    55   30   67 1
    56   31   32 2
    57   31   33 1
    58   33   34 1
    59   33   35 1
    60   33   43 1
    61   35   36 1
    62   35   68 1
    63   35   69 1
    64   36   41 ar
    65   36   37 ar
    66   37   38 ar
    67   37   70 1
    68   38   39 ar
    69   38   71 1
    70   39   40 ar
    71   39   42 1
    72   40   41 ar
    73   40   72 1
    74   41   73 1
    75   42   74 1
    76   43   75 1
    77   43   76 1
