@<TRIPOS>MOLECULE
ZINC00000596
   49    51     0     0     0
SMALL
USER_CHARGES
dimethyl-(3-methylbut-2-enyl)BLAHol
@<TRIPOS>ATOM
      1 C1          1.1810    0.6734   -0.4602 C.3       1 <0>        -0.1552
      2 C2         -0.3103    0.3734   -0.2964 C.3       1 <0>        -0.0889
      3 H1         -0.4566   -0.6974   -0.1546 H         1 <0>         0.1007
      4 C3         -0.8596    1.1333    0.9106 C.3       1 <0>         0.0339
      5 H2         -0.3716    0.7400    1.8024 H         1 <0>         0.1315
      6 C4         -0.4886    2.6026    0.8088 C.3       1 <0>        -0.0890
      7 C5         -0.7124    3.1461   -0.5773 C.ar      1 <0>        -0.1105
      8 C6         -0.6417    4.5245   -0.7476 C.ar      1 <0>        -0.0947
      9 C7         -0.8037    5.0868   -1.9953 C.ar      1 <0>        -0.1368
     10 C8         -1.0399    4.2730   -3.0941 C.ar      1 <0>         0.1240
     11 C9         -1.1181    2.9007   -2.9238 C.ar      1 <0>        -0.1397
     12 C10        -0.9596    2.3404   -1.6653 C.ar      1 <0>        -0.0583
     13 C11        -1.0712    0.8387   -1.5424 C.3       1 <0>        -0.0213
     14 C12        -2.5604    0.5047   -1.3358 C.3       1 <0>        -0.1334
     15 C13        -3.0578    1.3124   -0.1317 C.3       1 <0>        -0.0053
     16 C14        -2.8018    1.6243    2.2533 C.3       1 <0>         0.0259
     17 C15        -4.2991    1.4695    2.3258 C.2       1 <0>        -0.2563
     18 C16        -5.0630    2.5289    2.4263 C.2       1 <0>        -0.0381
     19 C17        -4.4429    3.8911    2.6019 C.3       1 <0>        -0.1488
     20 C18        -6.5620    2.3854    2.3663 C.3       1 <0>        -0.1379
     21 C19        -0.5306    0.1432   -2.7933 C.3       1 <0>        -0.1469
     22 O1         -1.1938    4.8189   -4.3291 O.3       1 <0>        -0.4948
     23 H3          1.7168    0.3508    0.4325 H         1 <0>         0.0686
     24 H4          1.5661    0.1382   -1.3282 H         1 <0>         0.0801
     25 H5          1.3227    1.7449   -0.6017 H         1 <0>         0.0720
     26 H6         -1.0945    3.1709    1.5146 H         1 <0>         0.0928
     27 H7          0.5628    2.7216    1.0708 H         1 <0>         0.1221
     28 H8         -0.4582    5.1602    0.1059 H         1 <0>         0.1313
     29 H9         -0.7465    6.1583   -2.1177 H         1 <0>         0.1363
     30 H10        -1.3033    2.2635   -3.7759 H         1 <0>         0.1374
     31 H11        -2.6758   -0.5611   -1.1388 H         1 <0>         0.0935
     32 H12        -3.1280    0.7795   -2.2249 H         1 <0>         0.1121
     33 H13        -4.1155    1.1061    0.0322 H         1 <0>         0.1284
     34 H14        -2.9211    2.3761   -0.3263 H         1 <0>         0.1309
     35 H15        -2.3482    1.1918    3.1451 H         1 <0>         0.1302
     36 H16        -2.5484    2.6828    2.1938 H         1 <0>         0.1348
     37 H17        -4.7423    0.4851    2.2948 H         1 <0>         0.1345
     38 H18        -4.1823    4.3003    1.6258 H         1 <0>         0.0808
     39 H19        -5.1543    4.5533    3.0953 H         1 <0>         0.0842
     40 H20        -3.5435    3.8050    3.2116 H         1 <0>         0.0726
     41 H21        -6.8215    1.3347    2.2372 H         1 <0>         0.0712
     42 H22        -6.9998    2.7566    3.2929 H         1 <0>         0.0829
     43 H23        -6.9487    2.9612    1.5255 H         1 <0>         0.0838
     44 H24        -0.6488   -0.9354   -2.6891 H         1 <0>         0.0700
     45 H25        -1.0835    0.4866   -3.6676 H         1 <0>         0.0708
     46 H26         0.5259    0.3828   -2.9143 H         1 <0>         0.0738
     47 H27        -2.1084    5.0436   -4.5486 H         1 <0>         0.3984
     48 N1         -2.3079    0.8926    1.0783 N.4       1 <0>        -0.3801
     49 H28        -2.4589   -0.1122    1.2258 H         1 <0>         0.4267
@<TRIPOS>BOND
     1    1    2 1
     2    1   23 1
     3    1   24 1
     4    1   25 1
     5    2    3 1
     6    2   13 1
     7    2    4 1
     8    4    5 1
     9    4    6 1
    10    4   48 1
    11    6    7 1
    12    6   26 1
    13    6   27 1
    14    7   12 ar
    15    7    8 ar
    16    8    9 ar
    17    8   28 1
    18    9   10 ar
    19    9   29 1
    20   10   11 ar
    21   10   22 1
    22   11   12 ar
    23   11   30 1
    24   12   13 1
    25   13   14 1
    26   13   21 1
    27   14   15 1
    28   14   31 1
    29   14   32 1
    30   15   33 1
    31   15   34 1
    32   15   48 1
    33   16   17 1
    34   16   35 1
    35   16   36 1
    36   16   48 1
    37   17   18 2
    38   17   37 1
    39   18   19 1
    40   18   20 1
    41   19   38 1
    42   19   39 1
    43   19   40 1
    44   20   41 1
    45   20   42 1
    46   20   43 1
    47   21   44 1
    48   21   45 1
    49   21   46 1
    50   22   47 1
    51   48   49 1
@<TRIPOS>MOLECULE
ZINC00020242
   49    51     0     0     0
SMALL
USER_CHARGES
dimethyl-(3-methylbut-2-enyl)BLAHol
@<TRIPOS>ATOM
      1 C1          2.8748   -2.7998    3.4003 C.3       1 <0>        -0.1737
      2 C2          2.5408   -3.5945    2.1363 C.3       1 <0>        -0.0925
      3 H1          3.3163   -4.3382    1.9531 H         1 <0>         0.1211
      4 C3          2.4432   -2.6461    0.9416 C.3       1 <0>         0.0366
      5 H2          3.3814   -2.0951    0.8759 H         1 <0>         0.1324
      6 C4          2.2913   -3.4593   -0.3321 C.3       1 <0>        -0.0887
      7 C5          1.3040   -4.5835   -0.1696 C.ar      1 <0>        -0.1114
      8 C6          0.8805   -5.2403   -1.3201 C.ar      1 <0>        -0.0941
      9 C7         -0.0116   -6.2878   -1.2424 C.ar      1 <0>        -0.1365
     10 C8         -0.4923   -6.6949   -0.0060 C.ar      1 <0>         0.1235
     11 C9         -0.0749   -6.0379    1.1396 C.ar      1 <0>        -0.1393
     12 C10         0.8163   -4.9790    1.0549 C.ar      1 <0>        -0.0634
     13 C11         1.2029   -4.2779    2.3364 C.3       1 <0>        -0.0189
     14 C12         0.1456   -3.1917    2.6027 C.3       1 <0>        -0.1361
     15 C13         0.0605   -2.3041    1.3361 C.3       1 <0>        -0.0094
     16 C14         1.3172   -0.7397   -0.0145 C.3       1 <0>         0.0286
     17 C15         0.1425    0.1888    0.1560 C.2       1 <0>        -0.2623
     18 C16         0.3257    1.4858    0.1437 C.2       1 <0>        -0.0336
     19 C17         1.7110    2.0495   -0.0411 C.3       1 <0>        -0.1494
     20 C18        -0.8499    2.4144    0.3080 C.3       1 <0>        -0.1391
     21 C19         1.2570   -5.2724    3.4979 C.3       1 <0>        -0.1466
     22 O1         -1.3672   -7.7313    0.0802 O.3       1 <0>        -0.4949
     23 H3          2.0911   -2.0653    3.5854 H         1 <0>         0.0560
     24 H4          2.9434   -3.4798    4.2494 H         1 <0>         0.0886
     25 H5          3.8280   -2.2883    3.2666 H         1 <0>         0.0738
     26 H6          1.9520   -2.8027   -1.1333 H         1 <0>         0.0954
     27 H7          3.2608   -3.8771   -0.6035 H         1 <0>         0.1212
     28 H8          1.2539   -4.9261   -2.2835 H         1 <0>         0.1318
     29 H9         -0.3361   -6.7904   -2.1416 H         1 <0>         0.1365
     30 H10        -0.4454   -6.3523    2.1042 H         1 <0>         0.1376
     31 H11        -0.8225   -3.6565    2.7893 H         1 <0>         0.1108
     32 H12         0.4406   -2.5925    3.4641 H         1 <0>         0.0984
     33 H13        -0.6913   -1.5303    1.4912 H         1 <0>         0.1285
     34 H14        -0.2082   -2.9023    0.4654 H         1 <0>         0.1342
     35 H15         1.2081   -1.2965   -0.9452 H         1 <0>         0.1358
     36 H16         2.2386   -0.1582   -0.0449 H         1 <0>         0.1290
     37 H17        -0.8503   -0.2152    0.2884 H         1 <0>         0.1344
     38 H18         2.1137    1.7176   -0.9981 H         1 <0>         0.0817
     39 H19         1.6655    3.1384   -0.0241 H         1 <0>         0.0817
     40 H20         2.3559    1.7002    0.7652 H         1 <0>         0.0757
     41 H21        -0.9983    2.6289    1.3663 H         1 <0>         0.0852
     42 H22        -0.6563    3.3439   -0.2275 H         1 <0>         0.0794
     43 H23        -1.7453    1.9420   -0.0961 H         1 <0>         0.0751
     44 H24         1.9950   -6.0446    3.2810 H         1 <0>         0.0711
     45 H25         1.5370   -4.7486    4.4119 H         1 <0>         0.0722
     46 H26         0.2774   -5.7323    3.6283 H         1 <0>         0.0715
     47 H27        -2.2959   -7.4673    0.0279 H         1 <0>         0.3984
     48 N1          1.3757   -1.6443    1.1423 N.4       1 <0>        -0.3817
     49 H28         1.5942   -1.0952    1.9820 H         1 <0>         0.4253
@<TRIPOS>BOND
     1    1    2 1
     2    1   23 1
     3    1   24 1
     4    1   25 1
     5    2    3 1
     6    2   13 1
     7    2    4 1
     8    4    5 1
     9    4    6 1
    10    4   48 1
    11    6    7 1
    12    6   26 1
    13    6   27 1
    14    7   12 ar
    15    7    8 ar
    16    8    9 ar
    17    8   28 1
    18    9   10 ar
    19    9   29 1
    20   10   11 ar
    21   10   22 1
    22   11   12 ar
    23   11   30 1
    24   12   13 1
    25   13   14 1
    26   13   21 1
    27   14   15 1
    28   14   31 1
    29   14   32 1
    30   15   33 1
    31   15   34 1
    32   15   48 1
    33   16   17 1
    34   16   35 1
    35   16   36 1
    36   16   48 1
    37   17   18 2
    38   17   37 1
    39   18   19 1
    40   18   20 1
    41   19   38 1
    42   19   39 1
    43   19   40 1
    44   20   41 1
    45   20   42 1
    46   20   43 1
    47   21   44 1
    48   21   45 1
    49   21   46 1
    50   22   47 1
    51   48   49 1
@<TRIPOS>MOLECULE
ZINC02534401
   36    38     0     0     0
SMALL
USER_CHARGES
dimethylBLAHol
@<TRIPOS>ATOM
      1 C1         -1.5660    3.5822    2.4837 C.3       1 <0>        -0.1713
      2 C2         -1.0584    3.0545    1.1403 C.3       1 <0>        -0.0877
      3 H1         -0.1899    3.6317    0.8229 H         1 <0>         0.1214
      4 C3         -0.6989    1.5633    1.2760 C.3       1 <0>         0.0328
      5 H2          0.0129    1.4691    2.0961 H         1 <0>         0.1356
      6 C4         -0.0127    1.0858    0.0080 C.3       1 <0>        -0.0882
      7 C5         -0.7165    1.5724   -1.2301 C.ar      1 <0>        -0.1149
      8 C6         -0.3426    1.0107   -2.4463 C.ar      1 <0>        -0.0932
      9 C7         -0.9388    1.4171   -3.6203 C.ar      1 <0>        -0.1362
     10 C8         -1.9207    2.3972   -3.5926 C.ar      1 <0>         0.1248
     11 C9         -2.2962    2.9544   -2.3815 C.ar      1 <0>        -0.1397
     12 C10        -1.6977    2.5370   -1.2023 C.ar      1 <0>        -0.0649
     13 C11        -2.1668    3.1674    0.0882 C.3       1 <0>        -0.0211
     14 C12        -3.3825    2.3603    0.5776 C.3       1 <0>        -0.1371
     15 C13        -2.9615    0.8891    0.6611 C.3       1 <0>        -0.0093
     16 C14        -2.5479    4.6321   -0.1362 C.3       1 <0>        -0.1477
     17 O1         -2.5104    2.8074   -4.7463 O.3       1 <0>        -0.4966
     18 H3         -2.4275    2.9954    2.8025 H         1 <0>         0.0558
     19 H4         -0.7746    3.5000    3.2288 H         1 <0>         0.0754
     20 H5         -1.8574    4.6271    2.3770 H         1 <0>         0.0871
     21 H6          0.0021   -0.0041    0.0020 H         1 <0>         0.0959
     22 H7          1.0132    1.4539    0.0002 H         1 <0>         0.1214
     23 H8          0.4227    0.2490   -2.4708 H         1 <0>         0.1326
     24 H9         -0.6424    0.9742   -4.5596 H         1 <0>         0.1372
     25 H10        -3.0591    3.7184   -2.3554 H         1 <0>         0.1376
     26 H11        -3.6903    2.7155    1.5610 H         1 <0>         0.0986
     27 H12        -4.2056    2.4671   -0.1290 H         1 <0>         0.1133
     28 H13        -2.6339    0.5457   -0.3202 H         1 <0>         0.1334
     29 H14        -3.8079    0.2877    0.9925 H         1 <0>         0.1314
     30 H15        -3.3516    4.6900   -0.8703 H         1 <0>         0.0715
     31 H16        -2.8832    5.0685    0.8047 H         1 <0>         0.0722
     32 H17        -1.6806    5.1811   -0.5028 H         1 <0>         0.0706
     33 H18        -2.0621    3.5492   -5.1749 H         1 <0>         0.4011
     34 N1         -1.8611    0.7376    1.6400 N.4       1 <0>        -0.5089
     35 H19        -2.1971    1.0245    2.5669 H         1 <0>         0.4318
     36 H20        -1.5742   -0.2478    1.6698 H         1 <0>         0.4349
@<TRIPOS>BOND
     1    1    2 1
     2    1   18 1
     3    1   19 1
     4    1   20 1
     5    2    3 1
     6    2   13 1
     7    2    4 1
     8    4    5 1
     9    4    6 1
    10    4   34 1
    11    6    7 1
    12    6   21 1
    13    6   22 1
    14    7   12 ar
    15    7    8 ar
    16    8    9 ar
    17    8   23 1
    18    9   10 ar
    19    9   24 1
    20   10   11 ar
    21   10   17 1
    22   11   12 ar
    23   11   25 1
    24   12   13 1
    25   13   14 1
    26   13   16 1
    27   14   15 1
    28   14   26 1
    29   14   27 1
    30   15   28 1
    31   15   29 1
    32   15   34 1
    33   16   30 1
    34   16   31 1
    35   16   32 1
    36   17   33 1
    37   34   35 1
    38   34   36 1
@<TRIPOS>MOLECULE
ZINC03806721
   44    48     0     0     0
SMALL
USER_CHARGES
methoxy-methyl-BLAHol
@<TRIPOS>ATOM
      1 C1         -0.8103    1.9703    1.1371 C.3       1 <0>        -0.0519
      2 C2          0.0021   -0.0041    0.0020 C.3       1 <0>        -0.0053
      3 C3          0.7830   -0.5498    1.2073 C.3       1 <0>        -0.1198
      4 C4          2.1880    0.0553    1.1444 C.3       1 <0>        -0.0562
      5 C5          2.7934   -0.2869   -0.1938 C.ar      1 <0>        -0.1617
      6 C6          2.7205    0.4513   -1.3504 C.ar      1 <0>        -0.0883
      7 C7          3.3525   -0.0962   -2.4523 C.ar      1 <0>        -0.0979
      8 C8          4.0417   -1.2931   -2.3362 C.ar      1 <0>        -0.1669
      9 C9          4.1591   -1.9981   -1.1400 C.ar      1 <0>         0.1331
     10 C10         3.5186   -1.4592   -0.0199 C.ar      1 <0>         0.1444
     11 O1          3.4796   -1.8367    1.2788 O.3       1 <0>        -0.2728
     12 C11         3.1798   -0.6327    2.0762 C.3       1 <0>         0.1100
     13 H1          2.7725   -0.8462    3.0644 H         1 <0>         0.1492
     14 C12         4.5186    0.1135    2.0967 C.3       1 <0>         0.1115
     15 H2          4.9949   -0.0609    3.0615 H         1 <0>         0.0799
     16 C13         4.4208    1.5795    1.8805 C.2       1 <0>        -0.1553
     17 C14         3.3759    2.2287    1.4750 C.2       1 <0>        -0.1333
     18 C15         2.0744    1.5590    1.2318 C.3       1 <0>        -0.0459
     19 H3          1.4367    1.7792    2.0879 H         1 <0>         0.1000
     20 C16         1.3294    2.0558    0.0004 C.3       1 <0>         0.0567
     21 H4          1.2195    3.1369    0.0858 H         1 <0>         0.1381
     22 C17         2.0183    1.7703   -1.3238 C.3       1 <0>        -0.0821
     23 O2          5.3577   -0.4374    1.0796 O.3       1 <0>        -0.5362
     24 O3          4.8646   -3.1583   -1.0654 O.3       1 <0>        -0.3013
     25 C18         5.4800   -3.6219   -2.2689 C.3       1 <0>         0.0240
     26 H5         -0.3364    1.6805    2.0750 H         1 <0>         0.1238
     27 H6         -0.8670    3.0573    1.0794 H         1 <0>         0.1230
     28 H7         -1.8155    1.5512    1.0933 H         1 <0>         0.1253
     29 H8         -1.0217   -0.3763    0.0403 H         1 <0>         0.1309
     30 H9          0.4741   -0.3508   -0.9173 H         1 <0>         0.1319
     31 H10         0.2916   -0.2527    2.1338 H         1 <0>         0.0967
     32 H11         0.8436   -1.6366    1.1497 H         1 <0>         0.1203
     33 H12         3.3091    0.4103   -3.4052 H         1 <0>         0.1308
     34 H13         4.5127   -1.7003   -3.2186 H         1 <0>         0.1340
     35 H14         5.3081    2.1616    2.0814 H         1 <0>         0.1225
     36 H15         3.4547    3.2928    1.3080 H         1 <0>         0.1288
     37 H16         2.7462    2.5584   -1.5167 H         1 <0>         0.1192
     38 H17         1.2713    1.7853   -2.1174 H         1 <0>         0.0957
     39 H18         6.2292   -0.0226    1.0213 H         1 <0>         0.3842
     40 H19         6.0093   -4.5539   -2.0706 H         1 <0>         0.1070
     41 H20         4.7146   -3.7927   -3.0259 H         1 <0>         0.0577
     42 H21         6.1856   -2.8727   -2.6281 H         1 <0>         0.0589
     43 N1         -0.0435    1.4784   -0.0201 N.4       1 <0>        -0.3952
     44 H22        -0.5132    1.7795   -0.8821 H         1 <0>         0.4329
@<TRIPOS>BOND
     1    1   26 1
     2    1   27 1
     3    1   28 1
     4    1   43 1
     5    2    3 1
     6    2   29 1
     7    2   30 1
     8    2   43 1
     9    3    4 1
    10    3   31 1
    11    3   32 1
    12    4   12 1
    13    4   18 1
    14    4    5 1
    15    5   10 ar
    16    5    6 ar
    17    6   22 1
    18    6    7 ar
    19    7    8 ar
    20    7   33 1
    21    8    9 ar
    22    8   34 1
    23    9   10 ar
    24    9   24 1
    25   10   11 1
    26   11   12 1
    27   12   13 1
    28   12   14 1
    29   14   15 1
    30   14   16 1
    31   14   23 1
    32   16   17 2
    33   16   35 1
    34   17   18 1
    35   17   36 1
    36   18   19 1
    37   18   20 1
    38   20   21 1
    39   20   22 1
    40   20   43 1
    41   22   37 1
    42   22   38 1
    43   23   39 1
    44   24   25 1
    45   25   40 1
    46   25   41 1
    47   25   42 1
    48   43   44 1
@<TRIPOS>MOLECULE
ZINC00537822
   50    52     0     0     0
SMALL
USER_CHARGES

@<TRIPOS>ATOM
      1 C1         -0.0169    1.3952    0.0097 C.ar      1 <0>        -0.0260
      2 C2          1.1683    2.0970    0.0022 C.ar      1 <0>        -0.1650
      3 C3          2.3789    1.4198   -0.0130 C.ar      1 <0>         0.1439
      4 C4          2.4047    0.0329   -0.0212 C.ar      1 <0>        -0.1670
      5 C5          1.2267   -0.6810   -0.0142 C.ar      1 <0>        -0.0432
      6 C6          0.0021   -0.0041    0.0020 C.ar      1 <0>        -0.1967
      7 C7         -1.2591   -0.7596    0.0105 C.2       1 <0>         0.4038
      8 O1         -2.3189   -0.1702    0.0242 O.2       1 <0>        -0.4483
      9 C8         -1.2348   -2.2664    0.0022 C.3       1 <0>        -0.1653
     10 C9         -2.6689   -2.7996    0.0135 C.3       1 <0>        -0.1429
     11 C10        -2.6443   -4.3293    0.0051 C.3       1 <0>        -0.0092
     12 N1         -4.0211   -4.8413    0.0160 N.4       1 <0>        -0.3830
     13 C11        -4.6726   -4.4620    1.2755 C.3       1 <0>        -0.0093
     14 C12        -6.1318   -4.9225    1.2582 C.3       1 <0>        -0.1330
     15 C13        -6.1791   -6.4445    1.0954 C.3       1 <0>         0.1746
     16 C14        -5.4322   -6.8346   -0.1834 C.3       1 <0>        -0.1706
     17 C15        -3.9990   -6.3033   -0.1127 C.3       1 <0>        -0.0017
     18 C16        -7.6135   -6.8966    0.9991 C.ar      1 <0>        -0.1262
     19 C17        -8.5661   -6.0599    0.4482 C.ar      1 <0>        -0.1006
     20 C18        -9.8818   -6.4740    0.3596 C.ar      1 <0>        -0.1039
     21 C19       -10.2453   -7.7262    0.8224 C.ar      1 <0>        -0.0247
     22 C20        -9.2914   -8.5631    1.3735 C.ar      1 <0>        -0.1016
     23 C21        -7.9750   -8.1501    1.4564 C.ar      1 <0>        -0.0934
     24 Cl1       -11.8977   -8.2468    0.7119 Cl        1 <0>        -0.0500
     25 O2         -5.5554   -7.0652    2.2213 O.3       1 <0>        -0.5474
     26 F1          3.5378    2.1141   -0.0204 F         1 <0>        -0.1258
     27 H1         -0.9587    1.9236    0.0260 H         1 <0>         0.1459
     28 H2          1.1551    3.1769    0.0077 H         1 <0>         0.1477
     29 H3          3.3506   -0.4883   -0.0334 H         1 <0>         0.1469
     30 H4          1.2482   -1.7608   -0.0213 H         1 <0>         0.1412
     31 H5         -0.7241   -2.6166   -0.8948 H         1 <0>         0.1127
     32 H6         -0.7064   -2.6261    0.8850 H         1 <0>         0.1127
     33 H7         -3.1796   -2.4493    0.9105 H         1 <0>         0.0952
     34 H8         -3.1973   -2.4398   -0.8693 H         1 <0>         0.0947
     35 H9         -2.1335   -4.6796   -0.8919 H         1 <0>         0.1333
     36 H10        -2.1158   -4.6891    0.8880 H         1 <0>         0.1327
     37 H11        -4.1530   -4.9339    2.1093 H         1 <0>         0.1388
     38 H12        -4.6353   -3.3788    1.3915 H         1 <0>         0.1356
     39 H13        -6.6132   -4.6415    2.1949 H         1 <0>         0.1238
     40 H14        -6.6524   -4.4509    0.4248 H         1 <0>         0.1045
     41 H15        -5.4137   -7.9204   -0.2771 H         1 <0>         0.1175
     42 H16        -5.9384   -6.4027   -1.0467 H         1 <0>         0.1009
     43 H17        -3.4644   -6.5795   -1.0215 H         1 <0>         0.1329
     44 H18        -3.4937   -6.7360    0.7507 H         1 <0>         0.1354
     45 H19        -8.2824   -5.0823    0.0874 H         1 <0>         0.1334
     46 H20       -10.6260   -5.8201   -0.0704 H         1 <0>         0.1408
     47 H21        -9.5746   -9.5405    1.7352 H         1 <0>         0.1414
     48 H22        -7.2294   -8.8051    1.8823 H         1 <0>         0.1323
     49 H23        -5.5495   -8.0314    2.1846 H         1 <0>         0.3907
     50 H24        -4.5327   -4.4442   -0.7578 H         1 <0>         0.4215
@<TRIPOS>BOND
     1    1    6 ar
     2    1    2 ar
     3    1   27 1
     4    2    3 ar
     5    2   28 1
     6    3    4 ar
     7    3   26 1
     8    4    5 ar
     9    4   29 1
    10    5    6 ar
    11    5   30 1
    12    6    7 1
    13    7    8 2
    14    7    9 1
    15    9   10 1
    16    9   31 1
    17    9   32 1
    18   10   11 1
    19   10   33 1
    20   10   34 1
    21   11   12 1
    22   11   35 1
    23   11   36 1
    24   12   17 1
    25   12   13 1
    26   12   50 1
    27   13   14 1
    28   13   37 1
    29   13   38 1
    30   14   15 1
    31   14   39 1
    32   14   40 1
    33   15   16 1
    34   15   18 1
    35   15   25 1
    36   16   17 1
    37   16   41 1
    38   16   42 1
    39   17   43 1
    40   17   44 1
    41   18   23 ar
    42   18   19 ar
    43   19   20 ar
    44   19   45 1
    45   20   21 ar
    46   20   46 1
    47   21   22 ar
    48   21   24 1
    49   22   23 ar
    50   22   47 1
    51   23   48 1
    52   25   49 1
@<TRIPOS>MOLECULE
ZINC03812984
   43    46     0     0     0
SMALL
USER_CHARGES
methylBLAHol
@<TRIPOS>ATOM
      1 C1         -2.7983    1.5746    2.5117 C.3       1 <0>        -0.0492
      2 C2         -2.8836    1.5590    0.0946 C.3       1 <0>        -0.0137
      3 C3         -2.1794    1.0201   -1.2058 C.3       1 <0>        -0.1260
      4 C4         -0.7576    1.5994   -1.2263 C.3       1 <0>        -0.0184
      5 C5         -0.0471    1.1494   -2.4971 C.3       1 <0>        -0.1096
      6 C6          1.3879    1.6819   -2.5009 C.3       1 <0>        -0.1248
      7 C7          2.1311    1.1511   -1.2732 C.3       1 <0>        -0.1197
      8 C8          1.4200    1.6218   -0.0028 C.3       1 <0>        -0.1140
      9 C9         -0.0127    1.0858    0.0080 C.3       1 <0>        -0.0868
     10 H1          0.0021   -0.0041    0.0020 H         1 <0>         0.1005
     11 C10        -0.7376    1.5857    1.2587 C.3       1 <0>         0.0368
     12 H2         -0.2470    1.1454    2.1268 H         1 <0>         0.1322
     13 C11        -0.6296    3.0942    1.3559 C.3       1 <0>        -0.0906
     14 C12        -0.8275    3.7825    0.0324 C.ar      1 <0>        -0.1118
     15 C13        -0.8645    3.1019   -1.1649 C.ar      1 <0>        -0.0525
     16 C14        -1.0059    3.7971   -2.3554 C.ar      1 <0>        -0.1389
     17 C15        -1.1227    5.1776   -2.3507 C.ar      1 <0>         0.1246
     18 C16        -1.1001    5.8624   -1.1445 C.ar      1 <0>        -0.1373
     19 C17        -0.9542    5.1667    0.0366 C.ar      1 <0>        -0.0934
     20 O1         -1.2582    5.8565   -3.5201 O.3       1 <0>        -0.4965
     21 H3         -2.7772    2.6625    2.5756 H         1 <0>         0.1254
     22 H4         -3.8328    1.2313    2.5006 H         1 <0>         0.1236
     23 H5         -2.2838    1.1498    3.3736 H         1 <0>         0.1231
     24 H6         -3.8977    1.1640    0.1553 H         1 <0>         0.1274
     25 H7         -2.9199    2.6475    0.0505 H         1 <0>         0.1324
     26 H8         -2.7194    1.3346   -2.0989 H         1 <0>         0.1139
     27 H9         -2.1344   -0.0682   -1.1643 H         1 <0>         0.0929
     28 H10        -0.5796    1.5352   -3.3664 H         1 <0>         0.0775
     29 H11        -0.0300    0.0602   -2.5361 H         1 <0>         0.0764
     30 H12         1.3713    2.7714   -2.4727 H         1 <0>         0.0675
     31 H13         1.8966    1.3495   -3.4057 H         1 <0>         0.0729
     32 H14         3.1542    1.5269   -1.2774 H         1 <0>         0.0739
     33 H15         2.1443    0.0615   -1.2996 H         1 <0>         0.0675
     34 H16         1.4005    2.7114    0.0201 H         1 <0>         0.0786
     35 H17         1.9539    1.2495    0.8716 H         1 <0>         0.0744
     36 H18         0.3629    3.3369    1.7355 H         1 <0>         0.1193
     37 H19        -1.3763    3.4612    2.0602 H         1 <0>         0.0962
     38 H20        -1.0247    3.2597   -3.2921 H         1 <0>         0.1368
     39 H21        -1.1963    6.9380   -1.1308 H         1 <0>         0.1364
     40 H22        -0.9386    5.7022    0.9743 H         1 <0>         0.1313
     41 H23        -0.4191    6.1273   -3.9172 H         1 <0>         0.4003
     42 N1         -2.1333    1.0997    1.2905 N.4       1 <0>        -0.3877
     43 H24        -2.1230    0.0730    1.2965 H         1 <0>         0.4294
@<TRIPOS>BOND
     1    1   21 1
     2    1   22 1
     3    1   23 1
     4    1   42 1
     5    2    3 1
     6    2   24 1
     7    2   25 1
     8    2   42 1
     9    3    4 1
    10    3   26 1
    11    3   27 1
    12    4    9 1
    13    4   15 1
    14    4    5 1
    15    5    6 1
    16    5   28 1
    17    5   29 1
    18    6    7 1
    19    6   30 1
    20    6   31 1
    21    7    8 1
    22    7   32 1
    23    7   33 1
    24    8    9 1
    25    8   34 1
    26    8   35 1
    27    9   10 1
    28    9   11 1
    29   11   12 1
    30   11   13 1
    31   11   42 1
    32   13   14 1
    33   13   36 1
    34   13   37 1
    35   14   19 ar
    36   14   15 ar
    37   15   16 ar
    38   16   17 ar
    39   16   38 1
    40   17   18 ar
    41   17   20 1
    42   18   19 ar
    43   18   39 1
    44   19   40 1
    45   20   41 1
    46   42   43 1
@<TRIPOS>MOLECULE
ZINC38321402
   76    82     0     0     0
SMALL
USER_CHARGES

@<TRIPOS>ATOM
      1 C1          0.4310    1.5076   -1.3639 C.3       1 <0>        -0.1699
      2 C2         -0.0188    0.3493   -0.4713 C.3       1 <0>         0.1576
      3 C3          0.8533    0.3050    0.7849 C.3       1 <0>        -0.1001
      4 H1          0.9533   -0.7284    1.1169 H         1 <0>         0.0974
      5 C4          2.2417    0.8672    0.4567 C.3       1 <0>        -0.1345
      6 C5          2.5263    2.0512    1.3689 C.3       1 <0>        -0.0586
      7 C6          1.4722    3.1390    1.1281 C.3       1 <0>        -0.1114
      8 C7          0.0822    2.5870    1.4447 C.3       1 <0>        -0.1498
      9 C8          0.1872    1.1290    1.8917 C.3       1 <0>         0.1392
     10 C9          1.0327    1.0439    3.1653 C.3       1 <0>         0.0737
     11 H2          1.0947    0.0154    3.5210 H         1 <0>         0.1169
     12 C10         2.4211    1.5903    2.8308 C.3       1 <0>        -0.0454
     13 C11         3.5334    0.6459    3.2104 C.3       1 <0>        -0.1211
     14 C12         4.8977    1.2224    2.8250 C.3       1 <0>        -0.0107
     15 N1          4.9039    1.5632    1.3942 N.4       1 <0>        -0.3880
     16 C13         3.9169    2.6439    1.1753 C.3       1 <0>         0.0573
     17 H3          4.0109    3.0155    0.1550 H         1 <0>         0.1466
     18 C14         4.2611    3.7755    2.1430 C.3       1 <0>        -0.0941
     19 C15         3.3087    3.9382    3.2785 C.ar      1 <0>        -0.0530
     20 C16         2.4464    2.8973    3.5666 C.ar      1 <0>        -0.1746
     21 C17         1.3619    2.9528    4.4179 C.ar      1 <0>         0.1067
     22 C18         1.2530    4.0777    5.2475 C.ar      1 <0>         0.1057
     23 C19         2.1993    5.0849    5.0689 C.ar      1 <0>        -0.1016
     24 C20         3.1915    5.0414    4.1010 C.ar      1 <0>        -0.1156
     25 O1          0.2703    4.1813    6.1819 O.3       1 <0>        -0.4801
     26 O2          0.5194    1.9113    4.1927 O.3       1 <0>        -0.2684
     27 C21         6.2414    2.0255    1.0000 C.3       1 <0>         0.0212
     28 C22         7.2410    0.8761    1.1433 C.3       1 <0>        -0.2106
     29 C23         8.3675    1.0428    2.1650 C.3       1 <0>        -0.1682
     30 C24         8.6743    1.1230    0.6683 C.3       1 <0>        -0.1475
     31 O3         -1.1209    0.6142    2.1484 O.3       1 <0>        -0.3618
     32 C25        -1.8316    1.3163    3.1702 C.3       1 <0>         0.0249
     33 C26         0.1216   -0.9683   -1.2363 C.3       1 <0>        -0.0923
     34 C27         1.5655   -1.1278   -1.7166 C.3       1 <0>        -0.1503
     35 C28        -0.2410   -2.1344   -0.3145 C.3       1 <0>        -0.1511
     36 C29        -0.8193   -0.9603   -2.4428 C.3       1 <0>        -0.1409
     37 O4         -1.3846    0.5392   -0.0965 O.3       1 <0>        -0.5375
     38 H4          1.4583    1.3396   -1.6870 H         1 <0>         0.0768
     39 H5         -0.2192    1.5675   -2.2367 H         1 <0>         0.0727
     40 H6          0.3742    2.4411   -0.8040 H         1 <0>         0.0769
     41 H7          2.9945    0.0951    0.6157 H         1 <0>         0.0626
     42 H8          2.2663    1.1937   -0.5830 H         1 <0>         0.1156
     43 H9          1.6787    3.9934    1.7726 H         1 <0>         0.0852
     44 H10         1.5083    3.4547    0.0854 H         1 <0>         0.0824
     45 H11        -0.3688    3.1782    2.2417 H         1 <0>         0.0742
     46 H12        -0.5427    2.6480    0.5537 H         1 <0>         0.1053
     47 H13         3.5075    0.4765    4.2868 H         1 <0>         0.1160
     48 H14         3.3878   -0.3039    2.6958 H         1 <0>         0.0964
     49 H15         5.0916    2.1197    3.4126 H         1 <0>         0.1353
     50 H16         5.6736    0.4834    3.0253 H         1 <0>         0.1376
     51 H17         5.2547    3.5897    2.5508 H         1 <0>         0.1003
     52 H18         4.2922    4.7101    1.5830 H         1 <0>         0.1186
     53 H19         2.1577    5.9460    5.7194 H         1 <0>         0.1408
     54 H20         3.8735    5.8714    3.9904 H         1 <0>         0.1369
     55 H21         0.5111    3.8231    7.0472 H         1 <0>         0.3974
     56 H22         6.2190    2.3604   -0.0370 H         1 <0>         0.1355
     57 H23         6.5440    2.8524    1.6425 H         1 <0>         0.1310
     58 H24         6.8303   -0.1241    1.0052 H         1 <0>         0.1241
     59 H25         8.3965    1.9714    2.7352 H         1 <0>         0.1057
     60 H26         8.6981    0.1522    2.6995 H         1 <0>         0.1101
     61 H27         9.2067    0.2852    0.2180 H         1 <0>         0.1125
     62 H28         8.9051    2.1044    0.2537 H         1 <0>         0.1080
     63 H29        -2.8145    0.8648    3.3049 H         1 <0>         0.0882
     64 H30        -1.2743    1.2592    4.1052 H         1 <0>         0.0627
     65 H31        -1.9481    2.3605    2.8799 H         1 <0>         0.0458
     66 H32         2.1889   -1.4642   -0.8881 H         1 <0>         0.0512
     67 H33         1.6018   -1.8631   -2.5205 H         1 <0>         0.0620
     68 H34         1.9343   -0.1699   -2.0833 H         1 <0>         0.0601
     69 H35        -1.2697   -2.0207    0.0277 H         1 <0>         0.0606
     70 H36        -0.1410   -3.0730   -0.8595 H         1 <0>         0.0624
     71 H37         0.4292   -2.1401    0.5450 H         1 <0>         0.0560
     72 H38        -0.5609   -0.1296   -3.0995 H         1 <0>         0.0572
     73 H39        -0.7193   -1.8990   -2.9878 H         1 <0>         0.0552
     74 H40        -1.8479   -0.8467   -2.1006 H         1 <0>         0.0645
     75 H41        -1.7375   -0.1594    0.4713 H         1 <0>         0.3835
     76 H42         4.6485    0.7530    0.8497 H         1 <0>         0.4222
@<TRIPOS>BOND
     1    1    2 1
     2    1   38 1
     3    1   39 1
     4    1   40 1
     5    2    3 1
     6    2   33 1
     7    2   37 1
     8    3    4 1
     9    3    9 1
    10    3    5 1
    11    5    6 1
    12    5   41 1
    13    5   42 1
    14    6   12 1
    15    6   16 1
    16    6    7 1
    17    7    8 1
    18    7   43 1
    19    7   44 1
    20    8    9 1
    21    8   45 1
    22    8   46 1
    23    9   10 1
    24    9   31 1
    25   10   11 1
    26   10   26 1
    27   10   12 1
    28   12   20 1
    29   12   13 1
    30   13   14 1
    31   13   47 1
    32   13   48 1
    33   14   15 1
    34   14   49 1
    35   14   50 1
    36   15   16 1
    37   15   27 1
    38   15   76 1
    39   16   17 1
    40   16   18 1
    41   18   19 1
    42   18   51 1
    43   18   52 1
    44   19   24 ar
    45   19   20 ar
    46   20   21 ar
    47   21   22 ar
    48   21   26 1
    49   22   23 ar
    50   22   25 1
    51   23   24 ar
    52   23   53 1
    53   24   54 1
    54   25   55 1
    55   27   28 1
    56   27   56 1
    57   27   57 1
    58   28   30 1
    59   28   29 1
    60   28   58 1
    61   29   30 1
    62   29   59 1
    63   29   60 1
    64   30   61 1
    65   30   62 1
    66   31   32 1
    67   32   63 1
    68   32   64 1
    69   32   65 1
    70   33   34 1
    71   33   35 1
    72   33   36 1
    73   34   66 1
    74   34   67 1
    75   34   68 1
    76   35   69 1
    77   35   70 1
    78   35   71 1
    79   36   72 1
    80   36   73 1
    81   36   74 1
    82   37   75 1
@<TRIPOS>MOLECULE
ZINC00001614
   46    49     0     0     0
SMALL
USER_CHARGES

@<TRIPOS>ATOM
      1 C1         -0.0178    1.4648    0.0101 C.3       1 <0>        -0.0546
      2 N1          0.0021   -0.0041    0.0020 N.4       1 <0>        -0.3711
      3 C2          0.5276   -0.4665   -1.2851 C.3       1 <0>        -0.0157
      4 C3          0.5582   -1.9993   -1.3067 C.3       1 <0>        -0.1372
      5 C4          1.4914   -2.4626   -0.1781 C.3       1 <0>        -0.0146
      6 C5          1.6112   -3.9813   -0.1907 C.3       1 <0>        -0.1097
      7 C6          0.2224   -4.6007   -0.0089 C.3       1 <0>        -0.1264
      8 C7         -0.3806   -4.1326    1.3165 C.3       1 <0>        -0.1213
      9 C8         -0.4944   -2.6061    1.3228 C.3       1 <0>        -0.1282
     10 C9          0.8981   -1.9972    1.1546 C.3       1 <0>        -0.0879
     11 H1          1.5404   -2.3187    1.9744 H         1 <0>         0.1208
     12 C10         0.8087   -0.4729    1.1195 C.3       1 <0>         0.0288
     13 H2          0.3213   -0.1491    2.0391 H         1 <0>         0.1350
     14 C11         2.2047    0.1253    1.1251 C.3       1 <0>        -0.0874
     15 C12         3.1489   -0.6083    0.2114 C.ar      1 <0>        -0.1435
     16 C13         2.8331   -1.8104   -0.3852 C.ar      1 <0>        -0.0384
     17 C14         3.7550   -2.4459   -1.2010 C.ar      1 <0>        -0.1466
     18 C15         4.9960   -1.8749   -1.4327 C.ar      1 <0>         0.1453
     19 C16         5.3106   -0.6594   -0.8431 C.ar      1 <0>        -0.1990
     20 C17         4.3921   -0.0338   -0.0277 C.ar      1 <0>        -0.0688
     21 O1          5.8990   -2.5017   -2.2318 O.3       1 <0>        -0.3119
     22 C18         7.1570   -1.8515   -2.4236 C.3       1 <0>         0.0235
     23 H3          0.9779    1.8429   -0.2216 H         1 <0>         0.1240
     24 H4         -0.7255    1.8227   -0.7377 H         1 <0>         0.1264
     25 H5         -0.3206    1.8186    0.9956 H         1 <0>         0.1256
     26 H6         -0.1126   -0.1049   -2.0897 H         1 <0>         0.1311
     27 H7          1.5377   -0.0812   -1.4243 H         1 <0>         0.1326
     28 H8         -0.4452   -2.3915   -1.1410 H         1 <0>         0.1000
     29 H9          0.9382   -2.3480   -2.2670 H         1 <0>         0.1138
     30 H10         2.0322   -4.3050   -1.1426 H         1 <0>         0.0792
     31 H11         2.2619   -4.3016    0.6230 H         1 <0>         0.0774
     32 H12        -0.4233   -4.2910   -0.8306 H         1 <0>         0.0666
     33 H13         0.3076   -5.6873   -0.0050 H         1 <0>         0.0762
     34 H14        -1.3713   -4.5705    1.4387 H         1 <0>         0.0751
     35 H15         0.2597   -4.4518    2.1388 H         1 <0>         0.0723
     36 H16        -1.1340   -2.2852    0.5005 H         1 <0>         0.0612
     37 H17        -0.9239   -2.2769    2.2690 H         1 <0>         0.0808
     38 H18         2.1437    1.1661    0.8072 H         1 <0>         0.0949
     39 H19         2.5989    0.0912    2.1407 H         1 <0>         0.1164
     40 H20         3.5052   -3.3918   -1.6585 H         1 <0>         0.1387
     41 H21         6.2735   -0.2042   -1.0223 H         1 <0>         0.1357
     42 H22         4.6406    0.9122    0.4301 H         1 <0>         0.1296
     43 H23         6.9951   -0.8731   -2.8759 H         1 <0>         0.0595
     44 H24         7.6532   -1.7291   -1.4608 H         1 <0>         0.0604
     45 H25         7.7822   -2.4564   -3.0803 H         1 <0>         0.1085
     46 H26        -0.9410   -0.3455    0.1120 H         1 <0>         0.4229
@<TRIPOS>BOND
     1    1    2 1
     2    1   23 1
     3    1   24 1
     4    1   25 1
     5    2   12 1
     6    2    3 1
     7    2   46 1
     8    3    4 1
     9    3   26 1
    10    3   27 1
    11    4    5 1
    12    4   28 1
    13    4   29 1
    14    5   10 1
    15    5   16 1
    16    5    6 1
    17    6    7 1
    18    6   30 1
    19    6   31 1
    20    7    8 1
    21    7   32 1
    22    7   33 1
    23    8    9 1
    24    8   34 1
    25    8   35 1
    26    9   10 1
    27    9   36 1
    28    9   37 1
    29   10   11 1
    30   10   12 1
    31   12   13 1
    32   12   14 1
    33   14   15 1
    34   14   38 1
    35   14   39 1
    36   15   20 ar
    37   15   16 ar
    38   16   17 ar
    39   17   18 ar
    40   17   40 1
    41   18   19 ar
    42   18   21 1
    43   19   20 ar
    44   19   41 1
    45   20   42 1
    46   21   22 1
    47   22   43 1
    48   22   44 1
    49   22   45 1
@<TRIPOS>MOLECULE
ZINC00402848
   46    49     0     0     0
SMALL
USER_CHARGES

@<TRIPOS>ATOM
      1 C1         -0.0178    1.4648    0.0101 C.3       1 <0>        -0.0541
      2 N1          0.0021   -0.0041    0.0020 N.4       1 <0>        -0.3705
      3 C2          0.5234   -0.4656   -1.2868 C.3       1 <0>        -0.0154
      4 C3          0.5608   -1.9988   -1.3105 C.3       1 <0>        -0.1325
      5 C4          1.4982   -2.4553   -0.1831 C.3       1 <0>        -0.0190
      6 C5          1.6504   -3.9707   -0.2017 C.3       1 <0>        -0.1087
      7 C6          2.5586   -4.4098    0.9497 C.3       1 <0>        -0.1256
      8 C7          1.9474   -3.9633    2.2794 C.3       1 <0>        -0.1195
      9 C8          1.8115   -2.4393    2.2944 C.3       1 <0>        -0.1147
     10 C9          0.8985   -1.9981    1.1490 C.3       1 <0>        -0.0848
     11 H1         -0.0910   -2.4368    1.2771 H         1 <0>         0.1022
     12 C10         0.8090   -0.4720    1.1199 C.3       1 <0>         0.0267
     13 H2          0.3176   -0.1530    2.0390 H         1 <0>         0.1343
     14 C11         2.2014    0.1317    1.1325 C.3       1 <0>        -0.0881
     15 C12         3.1457   -0.5879    0.2080 C.ar      1 <0>        -0.1438
     16 C13         2.8340   -1.7881   -0.3923 C.ar      1 <0>        -0.0304
     17 C14         3.7561   -2.4140   -1.2158 C.ar      1 <0>        -0.1475
     18 C15         4.9914   -1.8329   -1.4526 C.ar      1 <0>         0.1453
     19 C16         5.3005   -0.6171   -0.8605 C.ar      1 <0>        -0.2001
     20 C17         4.3825   -0.0022   -0.0362 C.ar      1 <0>        -0.0688
     21 O1          5.8940   -2.4497   -2.2599 O.3       1 <0>        -0.3119
     22 C18         7.1460   -1.7895   -2.4566 C.3       1 <0>         0.0236
     23 H3          0.9779    1.8429   -0.2213 H         1 <0>         0.1235
     24 H4         -0.7253    1.8227   -0.7379 H         1 <0>         0.1263
     25 H5         -0.3209    1.8186    0.9955 H         1 <0>         0.1253
     26 H6         -0.1216   -0.1061   -2.0886 H         1 <0>         0.1313
     27 H7          1.5311   -0.0759   -1.4308 H         1 <0>         0.1323
     28 H8         -0.4403   -2.3962   -1.1433 H         1 <0>         0.0950
     29 H9          0.9416   -2.3449   -2.2714 H         1 <0>         0.1146
     30 H10         0.6708   -4.4353   -0.0888 H         1 <0>         0.0756
     31 H11         2.0910   -4.2796   -1.1496 H         1 <0>         0.0783
     32 H12         2.6569   -5.4953    0.9413 H         1 <0>         0.0726
     33 H13         3.5419   -3.9548    0.8307 H         1 <0>         0.0692
     34 H14         0.9632   -4.4167    2.3971 H         1 <0>         0.0669
     35 H15         2.5925   -4.2784    3.0995 H         1 <0>         0.0732
     36 H16         1.3816   -2.1222    3.2445 H         1 <0>         0.0738
     37 H17         2.7948   -1.9856    2.1708 H         1 <0>         0.0798
     38 H18         2.1362    1.1762    0.8278 H         1 <0>         0.0939
     39 H19         2.5970    0.0858    2.1472 H         1 <0>         0.1169
     40 H20         3.5108   -3.3601   -1.6753 H         1 <0>         0.1386
     41 H21         6.2584   -0.1534   -1.0446 H         1 <0>         0.1351
     42 H22         4.6266    0.9436    0.4245 H         1 <0>         0.1291
     43 H23         6.9742   -0.8104   -2.9037 H         1 <0>         0.0594
     44 H24         7.6472   -1.6675   -1.4963 H         1 <0>         0.0602
     45 H25         7.7716   -2.3870   -3.1197 H         1 <0>         0.1083
     46 H26        -0.9411   -0.3448    0.1135 H         1 <0>         0.4244
@<TRIPOS>BOND
     1    1    2 1
     2    1   23 1
     3    1   24 1
     4    1   25 1
     5    2   12 1
     6    2    3 1
     7    2   46 1
     8    3    4 1
     9    3   26 1
    10    3   27 1
    11    4    5 1
    12    4   28 1
    13    4   29 1
    14    5   10 1
    15    5   16 1
    16    5    6 1
    17    6    7 1
    18    6   30 1
    19    6   31 1
    20    7    8 1
    21    7   32 1
    22    7   33 1
    23    8    9 1
    24    8   34 1
    25    8   35 1
    26    9   10 1
    27    9   36 1
    28    9   37 1
    29   10   11 1
    30   10   12 1
    31   12   13 1
    32   12   14 1
    33   14   15 1
    34   14   38 1
    35   14   39 1
    36   15   20 ar
    37   15   16 ar
    38   16   17 ar
    39   17   18 ar
    40   17   40 1
    41   18   19 ar
    42   18   21 1
    43   19   20 ar
    44   19   41 1
    45   20   42 1
    46   21   22 1
    47   22   43 1
    48   22   44 1
    49   22   45 1
@<TRIPOS>MOLECULE
ZINC00000853
   45    46     0     0     0
SMALL
USER_CHARGES

@<TRIPOS>ATOM
      1 C1         -0.0178    1.4648    0.0101 C.3       1 <0>        -0.0563
      2 N1          0.0021   -0.0041    0.0020 N.4       1 <0>        -0.3878
      3 C2          0.7126   -0.4907    1.1921 C.3       1 <0>        -0.0471
      4 C3         -1.3761   -0.5125    0.0124 C.3       1 <0>        -0.0103
      5 C4         -2.0780   -0.1101   -1.2861 C.3       1 <0>        -0.0949
      6 H1         -2.0144    0.9705   -1.4137 H         1 <0>         0.1057
      7 C5         -1.3995   -0.8041   -2.4688 C.3       1 <0>        -0.1251
      8 C6         -2.1014   -0.4017   -3.7674 C.3       1 <0>        -0.1201
      9 C7         -3.5711   -0.8221   -3.7042 C.3       1 <0>        -0.1213
     10 C8         -4.2497   -0.1281   -2.5214 C.3       1 <0>        -0.1420
     11 C9         -3.5477   -0.5306   -1.2229 C.3       1 <0>         0.1949
     12 C10        -4.2161    0.1530   -0.0579 C.ar      1 <0>        -0.0843
     13 C11        -3.7786    1.3977    0.3564 C.ar      1 <0>        -0.1707
     14 C12        -4.3896    2.0274    1.4247 C.ar      1 <0>        -0.0707
     15 C13        -5.4390    1.4140    2.0816 C.ar      1 <0>        -0.2039
     16 C14        -5.8796    0.1655    1.6680 C.ar      1 <0>         0.1450
     17 C15        -5.2687   -0.4618    0.5916 C.ar      1 <0>        -0.1429
     18 O1         -6.9117   -0.4400    2.3124 O.3       1 <0>        -0.3132
     19 C16        -7.4965    0.2669    3.4080 C.3       1 <0>         0.0238
     20 O2         -3.6311   -1.9473   -1.0556 O.3       1 <0>        -0.5509
     21 H2          1.0047    1.8421    0.0024 H         1 <0>         0.1265
     22 H3         -0.5450    1.8259   -0.8730 H         1 <0>         0.1223
     23 H4         -0.5280    1.8163    0.9069 H         1 <0>         0.1237
     24 H5          0.2024   -0.1392    2.0889 H         1 <0>         0.1216
     25 H6          0.7273   -1.5806    1.1861 H         1 <0>         0.1240
     26 H7          1.7352   -0.1134    1.1844 H         1 <0>         0.1249
     27 H8         -1.3618   -1.5992    0.0961 H         1 <0>         0.1405
     28 H9         -1.9129   -0.0898    0.8617 H         1 <0>         0.1336
     29 H10        -0.3524   -0.5046   -2.5139 H         1 <0>         0.0574
     30 H11        -1.4631   -1.8847   -2.3413 H         1 <0>         0.0907
     31 H12        -2.0378    0.6790   -3.8950 H         1 <0>         0.0659
     32 H13        -1.6180   -0.8961   -4.6100 H         1 <0>         0.0759
     33 H14        -4.0712   -0.5354   -4.6293 H         1 <0>         0.0732
     34 H15        -3.6347   -1.9028   -3.5766 H         1 <0>         0.0755
     35 H16        -4.1861    0.9525   -2.6490 H         1 <0>         0.0782
     36 H17        -5.2967   -0.4277   -2.4764 H         1 <0>         0.0788
     37 H18        -2.9581    1.8786   -0.1553 H         1 <0>         0.1199
     38 H19        -4.0462    2.9995    1.7463 H         1 <0>         0.1301
     39 H20        -5.9155    1.9060    2.9166 H         1 <0>         0.1343
     40 H21        -5.6131   -1.4318    0.2646 H         1 <0>         0.1327
     41 H22        -7.8899    1.2207    3.0566 H         1 <0>         0.0603
     42 H23        -8.3067   -0.3263    3.8321 H         1 <0>         0.1081
     43 H24        -6.7389    0.4453    4.1712 H         1 <0>         0.0591
     44 H25        -4.5359   -2.2851   -1.0074 H         1 <0>         0.3908
     45 H26         0.4743   -0.3295   -0.8281 H         1 <0>         0.4241
@<TRIPOS>BOND
     1    1    2 1
     2    1   21 1
     3    1   22 1
     4    1   23 1
     5    2    3 1
     6    2    4 1
     7    2   45 1
     8    3   24 1
     9    3   25 1
    10    3   26 1
    11    4    5 1
    12    4   27 1
    13    4   28 1
    14    5    6 1
    15    5   11 1
    16    5    7 1
    17    7    8 1
    18    7   29 1
    19    7   30 1
    20    8    9 1
    21    8   31 1
    22    8   32 1
    23    9   10 1
    24    9   33 1
    25    9   34 1
    26   10   11 1
    27   10   35 1
    28   10   36 1
    29   11   12 1
    30   11   20 1
    31   12   17 ar
    32   12   13 ar
    33   13   14 ar
    34   13   37 1
    35   14   15 ar
    36   14   38 1
    37   15   16 ar
    38   15   39 1
    39   16   17 ar
    40   16   18 1
    41   17   40 1
    42   18   19 1
    43   19   41 1
    44   19   42 1
    45   19   43 1
    46   20   44 1
@<TRIPOS>MOLECULE
ZINC00002200
   45    46     0     0     0
SMALL
USER_CHARGES
2-(dimethylaminomethyl)-1-(3-methoxyphenyl)-cyclohexan-1-ol
@<TRIPOS>ATOM
      1 C1         -4.3360    0.0060   -2.3149 C.3       1 <0>        -0.0424
      2 C2         -3.4265   -2.0815   -1.4917 C.3       1 <0>        -0.0505
      3 H1         -2.8695   -2.5368   -0.6728 H         1 <0>         0.1199
      4 H2         -4.4311   -2.5031   -1.5264 H         1 <0>         0.1245
      5 H3         -2.9159   -2.2814   -2.4337 H         1 <0>         0.1245
      6 C3         -2.1733   -0.0268   -1.2266 C.3       1 <0>        -0.0051
      7 C4         -1.4333   -0.5336    0.0129 C.3       1 <0>        -0.0960
      8 H4         -1.4185   -1.6235    0.0069 H         1 <0>         0.1055
      9 C5         -2.1494   -0.0402    1.2717 C.3       1 <0>        -0.1250
     10 C6         -1.4095   -0.5471    2.5112 C.3       1 <0>        -0.1199
     11 C7          0.0259   -0.0175    2.5003 C.3       1 <0>        -0.1213
     12 C8          0.7421   -0.5109    1.2415 C.3       1 <0>        -0.1421
     13 C9          0.0021   -0.0041    0.0020 C.3       1 <0>         0.1949
     14 C10         0.7074   -0.4901   -1.2379 C.ar      1 <0>        -0.0845
     15 C11         0.3564   -1.7029   -1.8018 C.ar      1 <0>        -0.1701
     16 C12         0.9977   -2.1489   -2.9425 C.ar      1 <0>        -0.0708
     17 C13         1.9991   -1.3887   -3.5154 C.ar      1 <0>        -0.2038
     18 C14         2.3570   -0.1744   -2.9483 C.ar      1 <0>         0.1449
     19 C15         1.7079    0.2736   -1.8068 C.ar      1 <0>        -0.1430
     20 O1          3.3419    0.5750   -3.5097 O.3       1 <0>        -0.3132
     21 C16         3.9663    0.0515   -4.6837 C.3       1 <0>         0.0239
     22 O2         -0.0173    1.4248    0.0099 O.3       1 <0>        -0.5510
     23 H5         -3.8583   -0.1182   -3.2867 H         1 <0>         0.1227
     24 H6         -5.3213   -0.4598   -2.3321 H         1 <0>         0.1229
     25 H7         -4.4402    1.0684   -2.0944 H         1 <0>         0.1221
     26 H8         -2.2658    1.0581   -1.1763 H         1 <0>         0.1388
     27 H9         -1.6150   -0.3027   -2.1212 H         1 <0>         0.1348
     28 H10        -2.1642    1.0497    1.2777 H         1 <0>         0.0911
     29 H11        -3.1720   -0.4175    1.2794 H         1 <0>         0.0569
     30 H12        -1.9196   -0.1955    3.4080 H         1 <0>         0.0760
     31 H13        -1.3947   -1.6369    2.5052 H         1 <0>         0.0661
     32 H14         0.0111    1.0724    2.5063 H         1 <0>         0.0755
     33 H15         0.5531   -0.3786    3.3834 H         1 <0>         0.0733
     34 H16         0.7568   -1.6008    1.2356 H         1 <0>         0.0782
     35 H17         1.7647   -0.1336    1.2338 H         1 <0>         0.0788
     36 H18        -0.4228   -2.3009   -1.3528 H         1 <0>         0.1201
     37 H19         0.7185   -3.0942   -3.3838 H         1 <0>         0.1301
     38 H20         2.5031   -1.7397   -4.4037 H         1 <0>         0.1342
     39 H21         1.9845    1.2189   -1.3636 H         1 <0>         0.1326
     40 H22         4.7322    0.7462   -5.0284 H         1 <0>         0.1081
     41 H23         4.4251   -0.9100   -4.4531 H         1 <0>         0.0603
     42 H24         3.2178   -0.0811   -5.4649 H         1 <0>         0.0591
     43 H25         0.8606    1.8301    0.0037 H         1 <0>         0.3908
     44 N1         -3.5242   -0.6260   -1.2536 N.4       1 <0>        -0.3993
     45 H26        -3.9782   -0.4662   -0.3467 H         1 <0>         0.4275
@<TRIPOS>BOND
     1    1   23 1
     2    1   24 1
     3    1   25 1
     4    1   44 1
     5    2    3 1
     6    2    4 1
     7    2    5 1
     8    2   44 1
     9    6    7 1
    10    6   26 1
    11    6   27 1
    12    6   44 1
    13    7    8 1
    14    7   13 1
    15    7    9 1
    16    9   10 1
    17    9   28 1
    18    9   29 1
    19   10   11 1
    20   10   30 1
    21   10   31 1
    22   11   12 1
    23   11   32 1
    24   11   33 1
    25   12   13 1
    26   12   34 1
    27   12   35 1
    28   13   14 1
    29   13   22 1
    30   14   19 ar
    31   14   15 ar
    32   15   16 ar
    33   15   36 1
    34   16   17 ar
    35   16   37 1
    36   17   18 ar
    37   17   38 1
    38   18   19 ar
    39   18   20 1
    40   19   39 1
    41   20   21 1
    42   21   40 1
    43   21   41 1
    44   21   42 1
    45   22   43 1
    46   44   45 1
@<TRIPOS>MOLECULE
ZINC01849532
   45    46     0     0     0
SMALL
USER_CHARGES
2-(dimethylaminomethyl)-1-(3-methoxyphenyl)-cyclohexan-1-ol
@<TRIPOS>ATOM
      1 C1         -3.8545    4.1975    2.4202 C.3       1 <0>        -0.0487
      2 C2         -5.0373    5.1687    0.5440 C.3       1 <0>        -0.0439
      3 C3         -3.7850    3.1167    0.2547 C.3       1 <0>        -0.0176
      4 C4         -3.5513    1.7292    0.8556 C.3       1 <0>        -0.0934
      5 H1         -3.0656    1.8307    1.8261 H         1 <0>         0.1035
      6 C5         -4.8937    1.0160    1.0293 C.3       1 <0>        -0.1270
      7 C6         -5.5755    0.8735   -0.3329 C.3       1 <0>        -0.1281
      8 C7         -4.6813    0.0568   -1.2679 C.3       1 <0>        -0.1218
      9 C8         -3.3389    0.7700   -1.4416 C.3       1 <0>        -0.1522
     10 C9         -2.6571    0.9125   -0.0793 C.3       1 <0>         0.1978
     11 C10        -1.3348    1.6150   -0.2504 C.ar      1 <0>        -0.0976
     12 C11        -0.2551    1.2563    0.5357 C.ar      1 <0>        -0.1395
     13 C12         0.9577    1.9025    0.3848 C.ar      1 <0>        -0.0702
     14 C13         1.0951    2.9054   -0.5555 C.ar      1 <0>        -0.1995
     15 C14         0.0151    3.2634   -1.3489 C.ar      1 <0>         0.1329
     16 C15        -1.2009    2.6130   -1.1958 C.ar      1 <0>        -0.1616
     17 O1          0.1480    4.2492   -2.2748 O.3       1 <0>        -0.3174
     18 C16         1.4286    4.8749   -2.3771 C.3       1 <0>         0.0239
     19 O2         -2.4388   -0.3834    0.4819 O.3       1 <0>        -0.5426
     20 H2         -2.9421    4.7457    2.1854 H         1 <0>         0.1239
     21 H3         -4.4756    4.7948    3.0878 H         1 <0>         0.1246
     22 H4         -3.5980    3.2568    2.9074 H         1 <0>         0.1221
     23 H5         -5.6407    4.9340   -0.3329 H         1 <0>         0.1217
     24 H6         -5.6333    5.7454    1.2513 H         1 <0>         0.1248
     25 H7         -4.1678    5.7520    0.2411 H         1 <0>         0.1241
     26 H8         -2.8257    3.6071    0.0889 H         1 <0>         0.1395
     27 H9         -4.3112    3.0175   -0.6947 H         1 <0>         0.1358
     28 H10        -5.5308    1.5978    1.6954 H         1 <0>         0.0579
     29 H11        -4.7272    0.0275    1.4574 H         1 <0>         0.1029
     30 H12        -5.7420    1.8620   -0.7611 H         1 <0>         0.0553
     31 H13        -6.5319    0.3654   -0.2092 H         1 <0>         0.0800
     32 H14        -5.1670   -0.0447   -2.2384 H         1 <0>         0.0735
     33 H15        -4.5148   -0.9317   -0.8398 H         1 <0>         0.0797
     34 H16        -3.5053    1.7585   -1.8697 H         1 <0>         0.0739
     35 H17        -2.7018    0.1882   -2.1077 H         1 <0>         0.0819
     36 H18        -0.3606    0.4726    1.2713 H         1 <0>         0.1350
     37 H19         1.7983    1.6233    1.0028 H         1 <0>         0.1321
     38 H20         2.0426    3.4104   -0.6725 H         1 <0>         0.1336
     39 H21        -2.0433    2.8899   -1.8124 H         1 <0>         0.1307
     40 H22         1.6864    5.3332   -1.4223 H         1 <0>         0.0586
     41 H23         2.1786    4.1274   -2.6356 H         1 <0>         0.0608
     42 H24         1.3977    5.6414   -3.1515 H         1 <0>         0.1069
     43 H25        -1.8788   -0.9570   -0.0588 H         1 <0>         0.3925
     44 N1         -4.6162    3.9064    1.1875 N.4       1 <0>        -0.3966
     45 H26        -5.4517    3.3620    1.4324 H         1 <0>         0.4276
@<TRIPOS>BOND
     1    1   20 1
     2    1   21 1
     3    1   22 1
     4    1   44 1
     5    2   23 1
     6    2   24 1
     7    2   25 1
     8    2   44 1
     9    3    4 1
    10    3   26 1
    11    3   27 1
    12    3   44 1
    13    4    5 1
    14    4   10 1
    15    4    6 1
    16    6    7 1
    17    6   28 1
    18    6   29 1
    19    7    8 1
    20    7   30 1
    21    7   31 1
    22    8    9 1
    23    8   32 1
    24    8   33 1
    25    9   10 1
    26    9   34 1
    27    9   35 1
    28   10   11 1
    29   10   19 1
    30   11   16 ar
    31   11   12 ar
    32   12   13 ar
    33   12   36 1
    34   13   14 ar
    35   13   37 1
    36   14   15 ar
    37   14   38 1
    38   15   16 ar
    39   15   17 1
    40   16   39 1
    41   17   18 1
    42   18   40 1
    43   18   41 1
    44   18   42 1
    45   19   43 1
    46   44   45 1
@<TRIPOS>MOLECULE
ZINC02015652
   45    46     0     0     0
SMALL
USER_CHARGES

@<TRIPOS>ATOM
      1 C1         -0.0525   -2.0814   -0.7853 C.3       1 <0>        -0.0566
      2 N1         -1.1008   -1.9115    0.2297 N.4       1 <0>        -0.3982
      3 C2         -0.6157   -2.4114    1.5230 C.3       1 <0>        -0.0511
      4 C3         -1.4389   -0.4871    0.3509 C.3       1 <0>        -0.0131
      5 C4         -2.0436    0.0072   -0.9648 C.3       1 <0>        -0.0949
      6 H1         -1.4830   -0.4095   -1.8015 H         1 <0>         0.1020
      7 C5         -1.9752    1.5349   -1.0153 C.3       1 <0>        -0.1098
      8 C6         -2.7620    2.1198    0.1593 C.3       1 <0>        -0.1278
      9 C7         -4.2221    1.6714    0.0688 C.3       1 <0>        -0.1224
     10 C8         -4.2905    0.1438    0.1193 C.3       1 <0>        -0.1519
     11 C9         -3.5036   -0.4411   -1.0552 C.3       1 <0>         0.1809
     12 C10        -3.5711   -1.9458   -1.0054 C.ar      1 <0>        -0.1268
     13 C11        -4.0597   -2.5785    0.1230 C.ar      1 <0>        -0.1791
     14 C12        -4.1228   -3.9586    0.1718 C.ar      1 <0>        -0.0733
     15 C13        -3.6972   -4.7094   -0.9072 C.ar      1 <0>        -0.1994
     16 C14        -3.2067   -4.0772   -2.0402 C.ar      1 <0>         0.1380
     17 C15        -3.1500   -2.6916   -2.0891 C.ar      1 <0>        -0.1464
     18 O1         -2.7875   -4.8134   -3.1028 O.3       1 <0>        -0.3079
     19 C16        -2.8803   -6.2345   -2.9846 C.3       1 <0>         0.0205
     20 O2         -4.0684    0.0206   -2.2840 O.3       1 <0>        -0.5352
     21 H2          0.2849   -3.1178   -0.7893 H         1 <0>         0.1230
     22 H3         -0.4521   -1.8256   -1.7667 H         1 <0>         0.1225
     23 H4          0.7875   -1.4267   -0.5532 H         1 <0>         0.1268
     24 H5          0.2712   -1.8514    1.8195 H         1 <0>         0.1254
     25 H6         -1.3935   -2.2854    2.2762 H         1 <0>         0.1219
     26 H7         -0.3648   -3.4683    1.4331 H         1 <0>         0.1225
     27 H8         -2.1612   -0.3523    1.1560 H         1 <0>         0.1354
     28 H9         -0.5367    0.0828    0.5729 H         1 <0>         0.1394
     29 H10        -0.9350    1.8543   -0.9508 H         1 <0>         0.0760
     30 H11        -2.4060    1.8871   -1.9526 H         1 <0>         0.0943
     31 H12        -2.3312    1.7676    1.0965 H         1 <0>         0.0602
     32 H13        -2.7133    3.2081    0.1233 H         1 <0>         0.0785
     33 H14        -4.7826    2.0881    0.9056 H         1 <0>         0.0733
     34 H15        -4.6529    2.0236   -0.8685 H         1 <0>         0.0791
     35 H16        -3.8597   -0.2084    1.0566 H         1 <0>         0.0721
     36 H17        -5.3307   -0.1756    0.0549 H         1 <0>         0.0827
     37 H18        -4.3922   -1.9934    0.9677 H         1 <0>         0.1418
     38 H19        -4.5048   -4.4504    1.0542 H         1 <0>         0.1412
     39 H20        -3.7461   -5.7876   -0.8683 H         1 <0>         0.1424
     40 H21        -2.7729   -2.1969   -2.9719 H         1 <0>         0.1470
     41 H22        -3.9202   -6.5185   -2.8235 H         1 <0>         0.0639
     42 H23        -2.5141   -6.6999   -3.8997 H         1 <0>         0.1121
     43 H24        -2.2774   -6.5690   -2.1404 H         1 <0>         0.0606
     44 H25        -4.9946   -0.2278   -2.4091 H         1 <0>         0.3912
     45 H26        -1.9218   -2.4299   -0.0447 H         1 <0>         0.4189
@<TRIPOS>BOND
     1    1    2 1
     2    1   21 1
     3    1   22 1
     4    1   23 1
     5    2    3 1
     6    2    4 1
     7    2   45 1
     8    3   24 1
     9    3   25 1
    10    3   26 1
    11    4    5 1
    12    4   27 1
    13    4   28 1
    14    5    6 1
    15    5   11 1
    16    5    7 1
    17    7    8 1
    18    7   29 1
    19    7   30 1
    20    8    9 1
    21    8   31 1
    22    8   32 1
    23    9   10 1
    24    9   33 1
    25    9   34 1
    26   10   11 1
    27   10   35 1
    28   10   36 1
    29   11   12 1
    30   11   20 1
    31   12   17 ar
    32   12   13 ar
    33   13   14 ar
    34   13   37 1
    35   14   15 ar
    36   14   38 1
    37   15   16 ar
    38   15   39 1
    39   16   17 ar
    40   16   18 1
    41   17   40 1
    42   18   19 1
    43   19   41 1
    44   19   42 1
    45   19   43 1
    46   20   44 1
@<TRIPOS>MOLECULE
ZINC03802871
   58    65     0     0     0
SMALL
USER_CHARGES

@<TRIPOS>ATOM
      1 C1         -0.1787    1.3963    0.6547 C.ar      1 <0>        -0.1414
      2 C2          0.9728    2.1631    0.5824 C.ar      1 <0>        -0.0890
      3 C3          2.2258    1.5999    0.4142 C.ar      1 <0>        -0.1279
      4 C4          2.2859    0.2109    0.3195 C.ar      1 <0>         0.1099
      5 C5          1.1035   -0.5694    0.3934 C.ar      1 <0>        -0.1040
      6 C6         -0.1499    0.0266    0.5636 C.ar      1 <0>        -0.0690
      7 C7          1.5272   -1.9471    0.2600 C.2       1 <0>        -0.1416
      8 C8          2.8698   -1.9430    0.1215 C.2       1 <0>         0.0479
      9 N1          3.3313   -0.6509    0.1562 N.pl3     1 <0>        -0.5699
     10 H1          4.2619   -0.3893    0.0767 H         1 <0>         0.4203
     11 C9          3.7090   -3.1833   -0.0427 C.3       1 <0>         0.1683
     12 H2          4.5253   -3.2040    0.6793 H         1 <0>         0.1385
     13 C10         2.8539   -4.4413    0.0546 C.3       1 <0>        -0.0264
     14 C11         3.6747   -5.6375    0.5294 C.3       1 <0>        -0.1248
     15 C12         2.8403   -6.9102    0.3481 C.3       1 <0>        -0.0083
     16 N2          1.5888   -6.7900    1.1042 N.4       1 <0>        -0.3731
     17 C13         0.7919   -5.6659    0.6064 C.3       1 <0>         0.0054
     18 H3         -0.1248   -5.6260    1.1949 H         1 <0>         0.1447
     19 C14         1.5496   -4.3510    0.8352 C.3       1 <0>         0.1508
     20 C15         0.6852   -3.1963    0.2658 C.3       1 <0>        -0.0639
     21 O1          1.8215   -4.1764    2.2272 O.3       1 <0>        -0.5343
     22 C16         0.3994   -5.8867   -0.8449 C.3       1 <0>        -0.0912
     23 C17         1.3583   -5.2881   -1.8218 C.ar      1 <0>        -0.0541
     24 C18         2.4439   -4.6354   -1.3838 C.ar      1 <0>        -0.1636
     25 C19         3.3196   -3.9124   -2.1787 C.ar      1 <0>         0.0971
     26 C20         3.1491   -3.9765   -3.5672 C.ar      1 <0>         0.1099
     27 C21         2.0807   -4.7357   -4.0387 C.ar      1 <0>        -0.0939
     28 C22         1.2266   -5.3471   -3.1978 C.ar      1 <0>        -0.1178
     29 O2          3.9886   -3.3265   -4.4170 O.3       1 <0>        -0.4798
     30 O3          4.2102   -3.2159   -1.4071 O.3       1 <0>        -0.2775
     31 C23         0.8164   -8.0315    0.9629 C.3       1 <0>         0.0189
     32 C24         1.5621   -9.1771    1.6501 C.3       1 <0>        -0.2105
     33 C25         2.0486  -10.3311    0.7711 C.3       1 <0>        -0.1681
     34 C26         0.8628  -10.5364    1.7158 C.3       1 <0>        -0.1476
     35 H4         -1.1288    1.8913    0.7915 H         1 <0>         0.1236
     36 H5          0.8898    3.2371    0.6595 H         1 <0>         0.1275
     37 H6          3.1159    2.2089    0.3585 H         1 <0>         0.1328
     38 H7         -1.0530   -0.5629    0.6211 H         1 <0>         0.1285
     39 H8          4.5878   -5.7118   -0.0613 H         1 <0>         0.1185
     40 H9          3.9271   -5.5128    1.5824 H         1 <0>         0.1083
     41 H10         2.6138   -7.0482   -0.7091 H         1 <0>         0.1318
     42 H11         3.4039   -7.7688    0.7132 H         1 <0>         0.1394
     43 H12        -0.1813   -3.0510    0.9109 H         1 <0>         0.0907
     44 H13         0.3565   -3.4213   -0.7488 H         1 <0>         0.1001
     45 H14         1.0291   -4.1120    2.7777 H         1 <0>         0.3942
     46 H15         0.3369   -6.9590   -1.0299 H         1 <0>         0.1059
     47 H16        -0.5853   -5.4493   -1.0102 H         1 <0>         0.1283
     48 H17         1.9459   -4.8247   -5.1065 H         1 <0>         0.1471
     49 H18         0.4150   -5.9082   -3.6368 H         1 <0>         0.1336
     50 H19         4.7521   -3.8515   -4.6937 H         1 <0>         0.3978
     51 H20        -0.1621   -7.9053    1.4263 H         1 <0>         0.1355
     52 H21         0.6904   -8.2626   -0.0948 H         1 <0>         0.1320
     53 H22         2.1865   -8.8909    2.4965 H         1 <0>         0.1255
     54 H23         1.8374  -10.2741   -0.2967 H         1 <0>         0.1058
     55 H24         2.9933  -10.8042    1.0390 H         1 <0>         0.1104
     56 H25         1.0273  -11.1445    2.6053 H         1 <0>         0.1126
     57 H26        -0.1286  -10.6144    1.2696 H         1 <0>         0.1079
     58 H27         1.8022   -6.6407    2.0790 H         1 <0>         0.4282
@<TRIPOS>BOND
     1    1    6 ar
     2    1    2 ar
     3    1   35 1
     4    2    3 ar
     5    2   36 1
     6    3    4 ar
     7    3   37 1
     8    4    9 1
     9    4    5 ar
    10    5    6 ar
    11    5    7 1
    12    6   38 1
    13    7   20 1
    14    7    8 2
    15    8    9 1
    16    8   11 1
    17    9   10 1
    18   11   12 1
    19   11   30 1
    20   11   13 1
    21   13   19 1
    22   13   24 1
    23   13   14 1
    24   14   15 1
    25   14   39 1
    26   14   40 1
    27   15   16 1
    28   15   41 1
    29   15   42 1
    30   16   17 1
    31   16   31 1
    32   16   58 1
    33   17   18 1
    34   17   19 1
    35   17   22 1
    36   19   20 1
    37   19   21 1
    38   20   43 1
    39   20   44 1
    40   21   45 1
    41   22   23 1
    42   22   46 1
    43   22   47 1
    44   23   28 ar
    45   23   24 ar
    46   24   25 ar
    47   25   26 ar
    48   25   30 1
    49   26   27 ar
    50   26   29 1
    51   27   28 ar
    52   27   48 1
    53   28   49 1
    54   29   50 1
    55   31   32 1
    56   31   51 1
    57   31   52 1
    58   32   34 1
    59   32   33 1
    60   32   53 1
    61   33   34 1
    62   33   54 1
    63   33   55 1
    64   34   56 1
    65   34   57 1
@<TRIPOS>MOLECULE
ZINC27215004
   94    95     0     0     0
SMALL
USER_CHARGES

@<TRIPOS>ATOM
      1 C1          0.2143    3.1279    0.7130 C.3       1 <0>        -0.1823
      2 C2         -0.0544    1.7150    0.1911 C.3       1 <0>         0.1075
      3 H1         -1.1298    1.5467    0.1351 H         1 <0>         0.0698
      4 C3          0.5730    0.6926    1.1409 C.3       1 <0>         0.0768
      5 H2          0.0743    0.7421    2.1089 H         1 <0>         0.0937
      6 C4          0.4154   -0.6910    0.5649 C.2       1 <0>         0.5020
      7 O1          1.3906   -1.2928    0.1487 O.co2     1 <0>        -0.6745
      8 O2         -0.6874   -1.2086    0.5150 O.co2     1 <0>        -0.7003
      9 N1          1.9971    0.9921    1.3093 N.am      1 <0>        -0.6784
     10 C5          2.6421    0.5948    2.4240 C.2       1 <0>         0.5121
     11 O3          2.0310    0.0411    3.3134 O.2       1 <0>        -0.5489
     12 C6          4.1225    0.8384    2.5653 C.3       1 <0>         0.1286
     13 H3          4.3478    1.8712    2.2996 H         1 <0>         0.1085
     14 C7          4.8859   -0.1059    1.6344 C.3       1 <0>        -0.1123
     15 C8          4.4973    0.1842    0.1833 C.3       1 <0>        -0.1240
     16 C9          4.9897    1.5791   -0.2074 C.3       1 <0>        -0.1484
     17 C10         5.1385   -0.8586   -0.7345 C.3       1 <0>        -0.1322
     18 N2          4.5280    0.5912    3.9512 N.am      1 <0>        -0.7014
     19 C11         5.6619    1.1406    4.4298 C.2       1 <0>         0.5147
     20 O4          6.2993    1.9108    3.7432 O.2       1 <0>        -0.5354
     21 C12         6.1376    0.7980    5.8181 C.3       1 <0>         0.1393
     22 H4          6.3157   -0.2752    5.8866 H         1 <0>         0.1203
     23 C13         5.0712    1.2040    6.8373 C.3       1 <0>        -0.0937
     24 C14         5.4918    0.7512    8.2118 C.ar      1 <0>        -0.0636
     25 C15         5.1279   -0.5019    8.6681 C.ar      1 <0>        -0.1023
     26 C16         5.5137   -0.9172    9.9289 C.ar      1 <0>        -0.1116
     27 C17         6.2637   -0.0797   10.7332 C.ar      1 <0>        -0.1203
     28 C18         6.6284    1.1731   10.2765 C.ar      1 <0>        -0.1150
     29 C19         6.2462    1.5868    9.0140 C.ar      1 <0>        -0.1103
     30 N3          7.3817    1.5184    6.0997 N.am      1 <0>        -0.7060
     31 C20         8.2505    1.0332    7.0087 C.2       1 <0>         0.5122
     32 O5          8.0023    0.0001    7.5935 O.2       1 <0>        -0.5157
     33 C21         9.5303    1.7743    7.2983 C.3       1 <0>         0.1040
     34 N4         10.2958    1.0481    8.3146 N.am      1 <0>        -0.7078
     35 C22        11.4837    1.5274    8.7337 C.2       1 <0>         0.5272
     36 O6         11.9189    2.5599    8.2696 O.2       1 <0>        -0.5316
     37 C23        12.2712    0.7804    9.7791 C.3       1 <0>         0.1338
     38 H5         11.6812    0.7035   10.6924 H         1 <0>         0.1290
     39 C24        12.5995   -0.6226    9.2645 C.3       1 <0>         0.0671
     40 O7         13.2718   -0.5235    8.0074 O.3       1 <0>        -0.5649
     41 N5         13.5153    1.5008   10.0607 N.am      1 <0>        -0.7040
     42 C25        14.1280    1.3478   11.2514 C.2       1 <0>         0.5263
     43 O8         13.6493    0.6136   12.0898 O.2       1 <0>        -0.5294
     44 C26        15.4078    2.0889   11.5411 C.3       1 <0>         0.0855
     45 H6         15.3411    3.0999   11.1393 H         1 <0>         0.1064
     46 C27        16.5807    1.3563   10.8865 C.3       1 <0>        -0.1112
     47 C28        17.8415    2.1607   11.0713 C.ar      1 <0>        -0.0943
     48 C29        18.2004    3.1074   10.1297 C.ar      1 <0>        -0.0951
     49 C30        19.3560    3.8458   10.2965 C.ar      1 <0>        -0.1400
     50 C31        20.1564    3.6371   11.4103 C.ar      1 <0>         0.1040
     51 C32        19.7938    2.6869   12.3539 C.ar      1 <0>        -0.1404
     52 C33        18.6346    1.9548   12.1851 C.ar      1 <0>        -0.1034
     53 O9         21.2939    4.3619   11.5765 O.3       1 <0>        -0.5002
     54 N6         15.6190    2.1521   12.9934 N.3       1 <0>        -0.8253
     55 O10         0.5187    1.5707   -1.1100 O.3       1 <0>        -0.5512
     56 H7          1.2898    3.2961    0.7690 H         1 <0>         0.0588
     57 H8         -0.2326    3.8562    0.0363 H         1 <0>         0.0550
     58 H9         -0.2228    3.2379    1.7054 H         1 <0>         0.0636
     59 H10         2.4758    1.4764    0.6186 H         1 <0>         0.4001
     60 H11         5.9577    0.0470    1.7611 H         1 <0>         0.0720
     61 H12         4.6348   -1.1381    1.8784 H         1 <0>         0.0726
     62 H13         3.4130    0.1400    0.0818 H         1 <0>         0.1164
     63 H14         4.6485    1.8158   -1.2152 H         1 <0>         0.0566
     64 H15         4.5923    2.3140    0.4927 H         1 <0>         0.0477
     65 H16         6.0791    1.6014   -0.1781 H         1 <0>         0.0528
     66 H17         4.7877   -1.8523   -0.4562 H         1 <0>         0.0573
     67 H18         4.8617   -0.6519   -1.7683 H         1 <0>         0.0537
     68 H19         6.2228   -0.8143   -0.6330 H         1 <0>         0.0422
     69 H20         3.9805    0.0321    4.5244 H         1 <0>         0.4128
     70 H21         4.9567    2.2880    6.8311 H         1 <0>         0.0830
     71 H22         4.1218    0.7369    6.5756 H         1 <0>         0.0925
     72 H23         4.5420   -1.1562    8.0398 H         1 <0>         0.1189
     73 H24         5.2288   -1.8960   10.2857 H         1 <0>         0.1170
     74 H25         6.5645   -0.4039   11.7184 H         1 <0>         0.1148
     75 H26         7.2140    1.8276   10.9050 H         1 <0>         0.1131
     76 H27         6.5342    2.5641    8.6558 H         1 <0>         0.1098
     77 H28         7.5802    2.3447    5.6319 H         1 <0>         0.4122
     78 H29        10.1203    1.8512    6.3850 H         1 <0>         0.1017
     79 H30         9.2964    2.7738    7.6650 H         1 <0>         0.0995
     80 H31         9.9478    0.2223    8.6858 H         1 <0>         0.4130
     81 H32        13.2435   -1.1313    9.9819 H         1 <0>         0.0647
     82 H33        11.6766   -1.1889    9.1393 H         1 <0>         0.0634
     83 H34        13.5110   -1.3771    7.6210 H         1 <0>         0.3847
     84 H35        13.8982    2.0880    9.3902 H         1 <0>         0.4134
     85 H36        16.7026    0.3777   11.3510 H         1 <0>         0.0812
     86 H37        16.3824    1.2310    9.8220 H         1 <0>         0.0871
     87 H38        17.5770    3.2695    9.2628 H         1 <0>         0.1300
     88 H39        19.6363    4.5847    9.5604 H         1 <0>         0.1306
     89 H40        20.4152    2.5226   13.2218 H         1 <0>         0.1298
     90 H41        18.3496    1.2180   12.9216 H         1 <0>         0.1255
     91 H42        21.1673    5.1855   12.0672 H         1 <0>         0.3919
     92 H43        15.6843    1.2266   13.3900 H         1 <0>         0.3512
     93 H44        16.4368    2.6995   13.2164 H         1 <0>         0.3498
     94 H45         0.1670    2.1887   -1.7654 H         1 <0>         0.3662
@<TRIPOS>BOND
     1    1    2 1
     2    1   56 1
     3    1   57 1
     4    1   58 1
     5    2    3 1
     6    2    4 1
     7    2   55 1
     8    4    5 1
     9    4    6 1
    10    4    9 1
    11    6    7 2
    12    6    8 1
    13    9   10 am
    14    9   59 1
    15   10   11 2
    16   10   12 1
    17   12   13 1
    18   12   14 1
    19   12   18 1
    20   14   15 1
    21   14   60 1
    22   14   61 1
    23   15   16 1
    24   15   17 1
    25   15   62 1
    26   16   63 1
    27   16   64 1
    28   16   65 1
    29   17   66 1
    30   17   67 1
    31   17   68 1
    32   18   19 am
    33   18   69 1
    34   19   20 2
    35   19   21 1
    36   21   22 1
    37   21   23 1
    38   21   30 1
    39   23   24 1
    40   23   70 1
    41   23   71 1
    42   24   29 ar
    43   24   25 ar
    44   25   26 ar
    45   25   72 1
    46   26   27 ar
    47   26   73 1
    48   27   28 ar
    49   27   74 1
    50   28   29 ar
    51   28   75 1
    52   29   76 1
    53   30   31 am
    54   30   77 1
    55   31   32 2
    56   31   33 1
    57   33   34 1
    58   33   78 1
    59   33   79 1
    60   34   35 am
    61   34   80 1
    62   35   36 2
    63   35   37 1
    64   37   38 1
    65   37   39 1
    66   37   41 1
    67   39   40 1
    68   39   81 1
    69   39   82 1
    70   40   83 1
    71   41   42 am
    72   41   84 1
    73   42   43 2
    74   42   44 1
    75   44   45 1
    76   44   46 1
    77   44   54 1
    78   46   47 1
    79   46   85 1
    80   46   86 1
    81   47   52 ar
    82   47   48 ar
    83   48   49 ar
    84   48   87 1
    85   49   50 ar
    86   49   88 1
    87   50   51 ar
    88   50   53 1
    89   51   52 ar
    90   51   89 1
    91   52   90 1
    92   53   91 1
    93   54   92 1
    94   54   93 1
    95   55   94 1
@<TRIPOS>MOLECULE
ZINC27215004
   95    96     0     0     0
SMALL
USER_CHARGES

@<TRIPOS>ATOM
      1 C1         -0.0187    1.5258    0.0104 C.3       1 <0>        -0.1813
      2 C2          0.0021   -0.0041    0.0020 C.3       1 <0>         0.1074
      3 H1         -1.0205   -0.3814    0.0098 H         1 <0>         0.0699
      4 C3          0.7421   -0.5109    1.2415 C.3       1 <0>         0.0806
      5 H2          0.1838   -0.2350    2.1361 H         1 <0>         0.0931
      6 C4          0.8700   -2.0108    1.1719 C.2       1 <0>         0.5019
      7 O1          1.9609   -2.5215    0.9829 O.co2     1 <0>        -0.6796
      8 O2         -0.1174   -2.7137    1.3045 O.co2     1 <0>        -0.6992
      9 N1          2.0766    0.0911    1.2937 N.am      1 <0>        -0.6758
     10 C5          2.7121    0.2198    2.4753 C.2       1 <0>         0.5082
     11 O3          2.1791   -0.1628    3.4953 O.2       1 <0>        -0.5489
     12 C6          4.0849    0.8391    2.5290 C.3       1 <0>         0.1311
     13 H3          4.0397    1.8571    2.1421 H         1 <0>         0.1132
     14 C7          5.0510    0.0125    1.6778 C.3       1 <0>        -0.1218
     15 C8          6.4127    0.7083    1.6308 C.3       1 <0>        -0.0884
     16 C9          7.4128   -0.1777    0.8853 C.3       1 <0>        -0.1477
     17 C10         6.2764    2.0474    0.9033 C.3       1 <0>        -0.1387
     18 N2          4.5554    0.8643    3.9162 N.am      1 <0>        -0.6952
     19 C11         5.4705    1.7759    4.3009 C.2       1 <0>         0.5119
     20 O4          5.9046    2.5752    3.4988 O.2       1 <0>        -0.5275
     21 C12         5.9544    1.8018    5.7279 C.3       1 <0>         0.1392
     22 H4          6.4166    0.8454    5.9723 H         1 <0>         0.1187
     23 C13         4.7697    2.0497    6.6638 C.3       1 <0>        -0.0950
     24 C14         5.2315    1.9538    8.0951 C.ar      1 <0>        -0.0606
     25 C15         5.2038    0.7368    8.7502 C.ar      1 <0>        -0.1001
     26 C16         5.6274    0.6488   10.0631 C.ar      1 <0>        -0.1102
     27 C17         6.0791    1.7777   10.7207 C.ar      1 <0>        -0.1224
     28 C18         6.1077    2.9944   10.0653 C.ar      1 <0>        -0.1182
     29 C19         5.6881    3.0816    8.7511 C.ar      1 <0>        -0.1115
     30 N3          6.9381    2.8752    5.8905 N.am      1 <0>        -0.7022
     31 C20         7.8617    2.8002    6.8692 C.2       1 <0>         0.5111
     32 O5          7.8785    1.8442    7.6152 O.2       1 <0>        -0.5168
     33 C21         8.8736    3.9044    7.0365 C.3       1 <0>         0.1027
     34 N4          9.7590    3.5892    8.1603 N.am      1 <0>        -0.6999
     35 C22        10.7482    4.4400    8.4981 C.2       1 <0>         0.5250
     36 O6         10.9053    5.4666    7.8717 O.2       1 <0>        -0.5329
     37 C23        11.6590    4.1158    9.6541 C.3       1 <0>         0.1296
     38 H5         11.0693    4.0221   10.5660 H         1 <0>         0.1375
     39 C24        12.3840    2.7971    9.3778 C.3       1 <0>         0.0648
     40 O7         13.0632    2.8807    8.1233 O.3       1 <0>        -0.5665
     41 N5         12.6427    5.1892    9.8167 N.am      1 <0>        -0.6732
     42 C25        13.2156    5.4019   11.0179 C.2       1 <0>         0.5063
     43 O8         12.9168    4.7047   11.9643 O.2       1 <0>        -0.5250
     44 C26        14.2275    6.5061   11.1852 C.3       1 <0>         0.0160
     45 H6         13.9055    7.3823   10.6225 H         1 <0>         0.1686
     46 C27        15.5865    6.0357   10.6630 C.3       1 <0>        -0.0913
     47 C28        16.5679    7.1782   10.7164 C.ar      1 <0>        -0.1415
     48 C29        16.6983    8.0272    9.6329 C.ar      1 <0>        -0.0820
     49 C30        17.5975    9.0749    9.6792 C.ar      1 <0>        -0.1345
     50 C31        18.3697    9.2750   10.8143 C.ar      1 <0>         0.1302
     51 C32        18.2367    8.4220   11.9002 C.ar      1 <0>        -0.1371
     52 C33        17.3323    7.3789   11.8509 C.ar      1 <0>        -0.1198
     53 O9         19.2554   10.3047   10.8621 O.3       1 <0>        -0.4949
     54 N6         14.3429    6.8530   12.6080 N.4       1 <0>        -0.6209
     55 O10         0.6709   -0.4649   -1.1737 O.3       1 <0>        -0.5517
     56 H7          1.0039    1.9031    0.0027 H         1 <0>         0.0592
     57 H8         -0.5459    1.8868   -0.8726 H         1 <0>         0.0551
     58 H9         -0.5289    1.8773    0.9072 H         1 <0>         0.0629
     59 H10         2.5029    0.3971    0.4779 H         1 <0>         0.3975
     60 H11         5.1645   -0.9789    2.1164 H         1 <0>         0.0753
     61 H12         4.6555   -0.0807    0.6664 H         1 <0>         0.0832
     62 H13         6.7676    0.8814    2.6468 H         1 <0>         0.0706
     63 H14         7.0579   -0.3507   -0.1307 H         1 <0>         0.0555
     64 H15         8.3829    0.3181    0.8518 H         1 <0>         0.0489
     65 H16         7.5099   -1.1316    1.4036 H         1 <0>         0.0510
     66 H17         7.2466    2.5431    0.8698 H         1 <0>         0.0450
     67 H18         5.9215    1.8744   -0.1127 H         1 <0>         0.0439
     68 H19         5.5640    2.6786    1.4345 H         1 <0>         0.0703
     69 H20         4.2082    0.2249    4.5578 H         1 <0>         0.4125
     70 H21         4.3627    3.0439    6.4792 H         1 <0>         0.0836
     71 H22         3.9986    1.3015    6.4799 H         1 <0>         0.0957
     72 H23         4.8508   -0.1451    8.2364 H         1 <0>         0.1207
     73 H24         5.6051   -0.3018   10.5751 H         1 <0>         0.1181
     74 H25         6.4094    1.7090   11.7467 H         1 <0>         0.1134
     75 H26         6.4604    3.8764   10.5792 H         1 <0>         0.1099
     76 H27         5.7140    4.0315    8.2378 H         1 <0>         0.1090
     77 H28         6.9247    3.6398    5.2938 H         1 <0>         0.4128
     78 H29         9.4633    3.9980    6.1245 H         1 <0>         0.1046
     79 H30         8.3571    4.8438    7.2333 H         1 <0>         0.1019
     80 H31         9.6334    2.7681    8.6612 H         1 <0>         0.4151
     81 H32        13.1074    2.6072   10.1707 H         1 <0>         0.0660
     82 H33        11.6590    1.9839    9.3450 H         1 <0>         0.0736
     83 H34        13.5457    2.0779    7.8831 H         1 <0>         0.3931
     84 H35        12.8816    5.7468    9.0598 H         1 <0>         0.4234
     85 H36        15.9497    5.2156   11.2823 H         1 <0>         0.1085
     86 H37        15.4818    5.6946    9.6331 H         1 <0>         0.1286
     87 H38        16.0969    7.8709    8.7496 H         1 <0>         0.1378
     88 H39        17.6996    9.7373    8.8324 H         1 <0>         0.1404
     89 H40        18.8367    8.5758   12.7849 H         1 <0>         0.1390
     90 H41        17.2251    6.7172   12.6978 H         1 <0>         0.1288
     91 H42        18.8842   11.1269   11.2104 H         1 <0>         0.4010
     92 H43        15.0204    7.5923   12.7200 H         1 <0>         0.4398
     93 H44        13.4467    7.1632   12.9524 H         1 <0>         0.4415
     94 H45         0.2557   -0.1806   -1.9994 H         1 <0>         0.3668
     95 H46        14.6410    6.0419   13.1288 H         1 <0>         0.4413
@<TRIPOS>BOND
     1    1    2 1
     2    1   56 1
     3    1   57 1
     4    1   58 1
     5    2    3 1
     6    2    4 1
     7    2   55 1
     8    4    5 1
     9    4    6 1
    10    4    9 1
    11    6    7 2
    12    6    8 1
    13    9   10 am
    14    9   59 1
    15   10   11 2
    16   10   12 1
    17   12   13 1
    18   12   14 1
    19   12   18 1
    20   14   15 1
    21   14   60 1
    22   14   61 1
    23   15   16 1
    24   15   17 1
    25   15   62 1
    26   16   63 1
    27   16   64 1
    28   16   65 1
    29   17   66 1
    30   17   67 1
    31   17   68 1
    32   18   19 am
    33   18   69 1
    34   19   20 2
    35   19   21 1
    36   21   22 1
    37   21   23 1
    38   21   30 1
    39   23   24 1
    40   23   70 1
    41   23   71 1
    42   24   29 ar
    43   24   25 ar
    44   25   26 ar
    45   25   72 1
    46   26   27 ar
    47   26   73 1
    48   27   28 ar
    49   27   74 1
    50   28   29 ar
    51   28   75 1
    52   29   76 1
    53   30   31 am
    54   30   77 1
    55   31   32 2
    56   31   33 1
    57   33   34 1
    58   33   78 1
    59   33   79 1
    60   34   35 am
    61   34   80 1
    62   35   36 2
    63   35   37 1
    64   37   38 1
    65   37   39 1
    66   37   41 1
    67   39   40 1
    68   39   81 1
    69   39   82 1
    70   40   83 1
    71   41   42 am
    72   41   84 1
    73   42   43 2
    74   42   44 1
    75   44   45 1
    76   44   46 1
    77   44   54 1
    78   46   47 1
    79   46   85 1
    80   46   86 1
    81   47   52 ar
    82   47   48 ar
    83   48   49 ar
    84   48   87 1
    85   49   50 ar
    86   49   88 1
    87   50   51 ar
    88   50   53 1
    89   51   52 ar
    90   51   89 1
    91   52   90 1
    92   53   91 1
    93   54   92 1
    94   54   93 1
    95   54   95 1
    96   55   94 1
@<TRIPOS>MOLECULE
ZINC03875992
   47    50     0     0     0
SMALL
USER_CHARGES

@<TRIPOS>ATOM
      1 C1         -0.2085    1.4109   -0.0720 C.2       1 <0>        -0.1021
      2 C2         -0.0753    0.1078   -0.0873 C.2       1 <0>        -0.2370
      3 C3         -1.2926   -0.7753    0.0102 C.3       1 <0>         0.0228
      4 N1         -1.3177   -1.7022   -1.1291 N.4       1 <0>        -0.3670
      5 C4         -0.1540   -2.5882   -1.0471 C.3       1 <0>        -0.0161
      6 C5         -0.1681   -3.5710   -2.2247 C.3       1 <0>        -0.1316
      7 C6         -1.4555   -4.4013   -2.1178 C.3       1 <0>        -0.0192
      8 C7         -1.4950   -5.4605   -3.2116 C.3       1 <0>        -0.1082
      9 C8         -2.8003   -6.2539   -3.1112 C.3       1 <0>        -0.1259
     10 C9         -3.9882   -5.3017   -3.2639 C.3       1 <0>        -0.1194
     11 C10        -3.9479   -4.2503   -2.1531 C.3       1 <0>        -0.1147
     12 C11        -2.6476   -3.4510   -2.2553 C.3       1 <0>        -0.0846
     13 H1         -2.6033   -2.9418   -3.2180 H         1 <0>         0.1026
     14 C12        -2.5722   -2.4407   -1.1101 C.3       1 <0>         0.0270
     15 H2         -3.3807   -1.7231   -1.2498 H         1 <0>         0.1347
     16 C13        -2.8246   -3.1360    0.2151 C.3       1 <0>        -0.0930
     17 C14        -2.1009   -4.4512    0.3186 C.ar      1 <0>        -0.1124
     18 C15        -1.4782   -5.0478   -0.7559 C.ar      1 <0>        -0.0534
     19 C16        -0.8479   -6.2723   -0.6023 C.ar      1 <0>        -0.1387
     20 C17        -0.8270   -6.8991    0.6331 C.ar      1 <0>         0.1243
     21 C18        -1.4408   -6.2921    1.7190 C.ar      1 <0>        -0.1373
     22 C19        -2.0729   -5.0774    1.5592 C.ar      1 <0>        -0.0938
     23 O1         -0.2089   -8.1004    0.7802 O.3       1 <0>        -0.4948
     24 H3          0.6639    2.0437   -0.1419 H         1 <0>         0.1233
     25 H4         -1.1910    1.8524    0.0059 H         1 <0>         0.1119
     26 H5          0.9069   -0.3338   -0.1697 H         1 <0>         0.1333
     27 H6         -1.2561   -1.3431    0.9399 H         1 <0>         0.1354
     28 H7         -2.1911   -0.1583   -0.0035 H         1 <0>         0.1318
     29 H8          0.7583   -1.9927   -1.0826 H         1 <0>         0.1316
     30 H9         -0.1870   -3.1443   -0.1102 H         1 <0>         0.1311
     31 H10        -0.1593   -3.0211   -3.1658 H         1 <0>         0.0946
     32 H11         0.7009   -4.2267   -2.1700 H         1 <0>         0.1132
     33 H12        -1.4381   -4.9772   -4.1870 H         1 <0>         0.0758
     34 H13        -0.6489   -6.1372   -3.0923 H         1 <0>         0.0769
     35 H14        -2.8316   -7.0036   -3.9017 H         1 <0>         0.0728
     36 H15        -2.8522   -6.7468   -2.1404 H         1 <0>         0.0690
     37 H16        -3.9349   -4.8073   -4.2339 H         1 <0>         0.0672
     38 H17        -4.9177   -5.8668   -3.1954 H         1 <0>         0.0737
     39 H18        -4.7980   -3.5764   -2.2596 H         1 <0>         0.0744
     40 H19        -3.9953   -4.7447   -1.1829 H         1 <0>         0.0793
     41 H20        -2.4923   -2.4854    1.0241 H         1 <0>         0.0956
     42 H21        -3.8948   -3.3123    0.3232 H         1 <0>         0.1206
     43 H22        -0.3706   -6.7408   -1.4503 H         1 <0>         0.1371
     44 H23        -1.4239   -6.7702    2.6873 H         1 <0>         0.1362
     45 H24        -2.5512   -4.6080    2.4061 H         1 <0>         0.1312
     46 H25         0.7257   -8.0351    1.0196 H         1 <0>         0.3984
     47 H26        -1.2634   -1.1705   -1.9849 H         1 <0>         0.4231
@<TRIPOS>BOND
     1    1    2 2
     2    1   24 1
     3    1   25 1
     4    2    3 1
     5    2   26 1
     6    3    4 1
     7    3   27 1
     8    3   28 1
     9    4   14 1
    10    4    5 1
    11    4   47 1
    12    5    6 1
    13    5   29 1
    14    5   30 1
    15    6    7 1
    16    6   31 1
    17    6   32 1
    18    7   12 1
    19    7   18 1
    20    7    8 1
    21    8    9 1
    22    8   33 1
    23    8   34 1
    24    9   10 1
    25    9   35 1
    26    9   36 1
    27   10   11 1
    28   10   37 1
    29   10   38 1
    30   11   12 1
    31   11   39 1
    32   11   40 1
    33   12   13 1
    34   12   14 1
    35   14   15 1
    36   14   16 1
    37   16   17 1
    38   16   41 1
    39   16   42 1
    40   17   22 ar
    41   17   18 ar
    42   18   19 ar
    43   19   20 ar
    44   19   43 1
    45   20   21 ar
    46   20   23 1
    47   21   22 ar
    48   21   44 1
    49   22   45 1
    50   23   46 1
@<TRIPOS>MOLECULE
ZINC04102205
   43    47     0     0     0
SMALL
USER_CHARGES
methylBLAHdiol
@<TRIPOS>ATOM
      1 C1          4.1642   -1.7575   -3.5294 C.3       1 <0>        -0.0482
      2 C2          2.2493   -0.4297   -2.8777 C.3       1 <0>        -0.0030
      3 C3          1.8023    0.8353   -2.1347 C.3       1 <0>        -0.1286
      4 C4          2.2233    0.7046   -0.6700 C.3       1 <0>        -0.0533
      5 C5          1.6251   -0.5557   -0.0917 C.ar      1 <0>        -0.1801
      6 C6          2.1724   -1.8168   -0.1203 C.ar      1 <0>        -0.0588
      7 C7          1.4096   -2.8170    0.4569 C.ar      1 <0>        -0.1254
      8 C8          0.1941   -2.5139    1.0488 C.ar      1 <0>        -0.1009
      9 C9         -0.3204   -1.2212    1.1208 C.ar      1 <0>         0.1051
     10 C10         0.4450   -0.2005    0.5464 C.ar      1 <0>         0.1400
     11 O1          0.2667    1.1371    0.4791 O.3       1 <0>        -0.2725
     12 C11         1.5663    1.7567    0.2075 C.3       1 <0>         0.1122
     13 H1          1.4525    2.7001   -0.3264 H         1 <0>         0.1356
     14 C12         2.2419    1.9346    1.5584 C.3       1 <0>         0.0871
     15 H2          2.0120    2.9359    1.9227 H         1 <0>         0.0696
     16 C13         3.7431    1.7632    1.5578 C.3       1 <0>        -0.1481
     17 C14         4.1615    0.4613    0.8758 C.3       1 <0>        -0.1097
     18 C15         3.7290    0.5363   -0.5853 C.3       1 <0>        -0.0793
     19 H3          4.2151    1.3870   -1.0628 H         1 <0>         0.1007
     20 C16         4.1037   -0.7446   -1.3297 C.3       1 <0>         0.0485
     21 H4          5.1889   -0.8433   -1.3028 H         1 <0>         0.1371
     22 C17         3.5190   -2.0155   -0.7359 C.3       1 <0>        -0.0884
     23 O2          1.6828    0.9884    2.4717 O.3       1 <0>        -0.5515
     24 O3         -1.5117   -0.9629    1.7237 O.3       1 <0>        -0.4797
     25 H5          3.6390   -2.6577   -3.2104 H         1 <0>         0.1252
     26 H6          3.9637   -1.5746   -4.5851 H         1 <0>         0.1250
     27 H7          5.2358   -1.8901   -3.3808 H         1 <0>         0.1243
     28 H8          1.9979   -0.3362   -3.9342 H         1 <0>         0.1314
     29 H9          1.7340   -1.2949   -2.4607 H         1 <0>         0.1335
     30 H10         0.7188    0.9353   -2.1982 H         1 <0>         0.1164
     31 H11         2.2793    1.7096   -2.5776 H         1 <0>         0.0975
     32 H12         1.7633   -3.8374    0.4462 H         1 <0>         0.1331
     33 H13        -0.3840   -3.3203    1.4752 H         1 <0>         0.1373
     34 H14         4.1008    1.7563    2.5874 H         1 <0>         0.0860
     35 H15         4.1957    2.6027    1.0300 H         1 <0>         0.0778
     36 H16         3.6730   -0.3831    1.3620 H         1 <0>         0.0886
     37 H17         5.2437    0.3448    0.9344 H         1 <0>         0.0817
     38 H18         3.4360   -2.7636   -1.5243 H         1 <0>         0.0999
     39 H19         4.2006   -2.3903    0.0277 H         1 <0>         0.1211
     40 H20         1.9927    1.0900    3.3821 H         1 <0>         0.3856
     41 H21        -2.2721   -1.0096    1.1282 H         1 <0>         0.3931
     42 N1          3.7171   -0.5856   -2.7525 N.4       1 <0>        -0.3950
     43 H22         4.1723    0.2552   -3.1268 H         1 <0>         0.4293
@<TRIPOS>BOND
     1    1   25 1
     2    1   26 1
     3    1   27 1
     4    1   42 1
     5    2    3 1
     6    2   28 1
     7    2   29 1
     8    2   42 1
     9    3    4 1
    10    3   30 1
    11    3   31 1
    12    4   12 1
    13    4   18 1
    14    4    5 1
    15    5   10 ar
    16    5    6 ar
    17    6   22 1
    18    6    7 ar
    19    7    8 ar
    20    7   32 1
    21    8    9 ar
    22    8   33 1
    23    9   10 ar
    24    9   24 1
    25   10   11 1
    26   11   12 1
    27   12   13 1
    28   12   14 1
    29   14   15 1
    30   14   16 1
    31   14   23 1
    32   16   17 1
    33   16   34 1
    34   16   35 1
    35   17   18 1
    36   17   36 1
    37   17   37 1
    38   18   19 1
    39   18   20 1
    40   20   21 1
    41   20   22 1
    42   20   42 1
    43   22   38 1
    44   22   39 1
    45   23   40 1
    46   24   41 1
    47   42   43 1
@<TRIPOS>MOLECULE
ZINC22066510
   73    75     0     0     0
SMALL
USER_CHARGES

@<TRIPOS>ATOM
      1 C1          2.4910   -1.6080   -3.8112 C.3       1 <0>        -0.1682
      2 C2          1.7409   -0.5348   -3.0198 C.3       1 <0>         0.1082
      3 N1          0.4296   -1.0506   -2.6189 N.am      1 <0>        -0.6052
      4 C3          0.2957   -1.8338   -1.3881 C.3       1 <0>         0.0959
      5 C4          0.2625   -0.8901   -0.1842 C.3       1 <0>        -0.1789
      6 C5         -0.6534   -0.8047   -3.3824 C.2       1 <0>         0.5551
      7 O1         -0.5330   -0.2052   -4.4329 O.2       1 <0>        -0.5297
      8 C6         -1.9880   -1.2642   -2.9423 C.ar      1 <0>        -0.1172
      9 C7         -2.3958   -1.0698   -1.6217 C.ar      1 <0>        -0.0965
     10 C8         -3.6425   -1.5005   -1.2175 C.ar      1 <0>        -0.1206
     11 C9         -4.4878   -2.1244   -2.1179 C.ar      1 <0>        -0.0559
     12 C10        -4.0894   -2.3205   -3.4283 C.ar      1 <0>        -0.0954
     13 C11        -2.8477   -1.8890   -3.8470 C.ar      1 <0>        -0.0706
     14 C12        -5.8481   -2.5927   -1.6693 C.3       1 <0>         0.1758
     15 H1         -6.1289   -2.0701   -0.7549 H         1 <0>         0.0736
     16 C13        -5.8075   -4.0763   -1.4077 C.ar      1 <0>        -0.0583
     17 C14        -5.6865   -4.9609   -2.4637 C.ar      1 <0>        -0.1407
     18 C15        -5.6490   -6.3224   -2.2271 C.ar      1 <0>        -0.0770
     19 C16        -5.7329   -6.8027   -0.9343 C.ar      1 <0>        -0.1994
     20 C17        -5.8544   -5.9174    0.1266 C.ar      1 <0>         0.1361
     21 C18        -5.8856   -4.5511   -0.1130 C.ar      1 <0>        -0.1429
     22 O2         -5.9370   -6.3873    1.3991 O.3       1 <0>        -0.3155
     23 C19        -5.8925   -7.8052    1.5713 C.3       1 <0>         0.0249
     24 N2         -6.8351   -2.3074   -2.7192 N.3       1 <0>        -0.5260
     25 C20        -8.0333   -3.1429   -2.5568 C.3       1 <0>         0.0231
     26 C21        -9.0086   -2.8586   -3.7012 C.3       1 <0>         0.0323
     27 H2         -8.5345   -3.1030   -4.6518 H         1 <0>         0.1445
     28 N3         -9.3769   -1.4368   -3.6891 N.4       1 <0>        -0.3828
     29 C22        -8.1734   -0.6159   -3.8768 C.3       1 <0>         0.0016
     30 C23        -7.1911   -0.8815   -2.7339 C.3       1 <0>         0.0643
     31 H3         -7.6558   -0.6128   -1.7852 H         1 <0>         0.0669
     32 C24        -5.9286   -0.0422   -2.9404 C.3       1 <0>        -0.1606
     33 C25       -10.3271   -1.1681   -4.7766 C.3       1 <0>         0.0243
     34 C26       -10.7993    0.2604   -4.6897 C.2       1 <0>        -0.2350
     35 C27       -10.6767    1.0549   -5.7241 C.2       1 <0>        -0.1053
     36 C28       -10.2657   -3.7125   -3.5238 C.3       1 <0>        -0.1832
     37 H4          2.6235   -2.4927   -3.1884 H         1 <0>         0.0561
     38 H5          1.9172   -1.8718   -4.6997 H         1 <0>         0.0586
     39 H6          3.4666   -1.2242   -4.1095 H         1 <0>         0.0703
     40 H7          2.3147   -0.2710   -2.1314 H         1 <0>         0.0793
     41 H8          1.6084    0.3499   -3.6427 H         1 <0>         0.0876
     42 H9         -0.6286   -2.4105   -1.4232 H         1 <0>         0.0867
     43 H10         1.1438   -2.5120   -1.2949 H         1 <0>         0.0813
     44 H11         1.2763   -0.5666    0.0519 H         1 <0>         0.0652
     45 H12        -0.3505   -0.0205   -0.4210 H         1 <0>         0.0640
     46 H13        -0.1618   -1.4110    0.6741 H         1 <0>         0.0725
     47 H14        -1.7367   -0.5837   -0.9177 H         1 <0>         0.1429
     48 H15        -3.9594   -1.3508   -0.1959 H         1 <0>         0.1276
     49 H16        -4.7538   -2.8085   -4.1262 H         1 <0>         0.1342
     50 H17        -2.5399   -2.0384   -4.8714 H         1 <0>         0.1309
     51 H18        -5.6215   -4.5875   -3.4750 H         1 <0>         0.1305
     52 H19        -5.5545   -7.0113   -3.0535 H         1 <0>         0.1294
     53 H20        -5.7043   -7.8665   -0.7501 H         1 <0>         0.1321
     54 H21        -5.9754   -3.8596    0.7117 H         1 <0>         0.1302
     55 H22        -4.9515   -8.1896    1.1776 H         1 <0>         0.0594
     56 H23        -5.9676   -8.0450    2.6319 H         1 <0>         0.1059
     57 H24        -6.7243   -8.2626    1.0356 H         1 <0>         0.0581
     58 H25        -7.7483   -4.1948   -2.5747 H         1 <0>         0.1343
     59 H26        -8.5118   -2.9115   -1.6052 H         1 <0>         0.0619
     60 H27        -7.7036   -0.8717   -4.8265 H         1 <0>         0.1367
     61 H28        -8.4498    0.4385   -3.8807 H         1 <0>         0.1360
     62 H29        -5.3719   -0.4275   -3.7946 H         1 <0>         0.0844
     63 H30        -6.2082    0.9948   -3.1267 H         1 <0>         0.0700
     64 H31        -5.3065   -0.0959   -2.0470 H         1 <0>         0.0838
     65 H32        -9.8365   -1.3308   -5.7363 H         1 <0>         0.1301
     66 H33       -11.1813   -1.8392   -4.6869 H         1 <0>         0.1384
     67 H34       -11.2387    0.6292   -3.7746 H         1 <0>         0.1330
     68 H35       -10.2373    0.6861   -6.6391 H         1 <0>         0.1115
     69 H36       -11.0151    2.0786   -5.6617 H         1 <0>         0.1228
     70 H37       -10.7398   -3.4682   -2.5732 H         1 <0>         0.0809
     71 H38       -10.9604   -3.5101   -4.3390 H         1 <0>         0.0860
     72 H39        -9.9925   -4.7677   -3.5330 H         1 <0>         0.1076
     73 H40        -9.8052   -1.2080   -2.8046 H         1 <0>         0.4183
@<TRIPOS>BOND
     1    1    2 1
     2    1   37 1
     3    1   38 1
     4    1   39 1
     5    2    3 1
     6    2   40 1
     7    2   41 1
     8    3    4 1
     9    3    6 am
    10    4    5 1
    11    4   42 1
    12    4   43 1
    13    5   44 1
    14    5   45 1
    15    5   46 1
    16    6    7 2
    17    6    8 1
    18    8   13 ar
    19    8    9 ar
    20    9   10 ar
    21    9   47 1
    22   10   11 ar
    23   10   48 1
    24   11   12 ar
    25   11   14 1
    26   12   13 ar
    27   12   49 1
    28   13   50 1
    29   14   15 1
    30   14   16 1
    31   14   24 1
    32   16   21 ar
    33   16   17 ar
    34   17   18 ar
    35   17   51 1
    36   18   19 ar
    37   18   52 1
    38   19   20 ar
    39   19   53 1
    40   20   21 ar
    41   20   22 1
    42   21   54 1
    43   22   23 1
    44   23   55 1
    45   23   56 1
    46   23   57 1
    47   24   30 1
    48   24   25 1
    49   25   26 1
    50   25   58 1
    51   25   59 1
    52   26   27 1
    53   26   28 1
    54   26   36 1
    55   28   29 1
    56   28   33 1
    57   28   73 1
    58   29   30 1
    59   29   60 1
    60   29   61 1
    61   30   31 1
    62   30   32 1
    63   32   62 1
    64   32   63 1
    65   32   64 1
    66   33   34 1
    67   33   65 1
    68   33   66 1
    69   34   35 2
    70   34   67 1
    71   35   68 1
    72   35   69 1
    73   36   70 1
    74   36   71 1
    75   36   72 1
@<TRIPOS>MOLECULE
ZINC22066510
   73    75     0     0     0
SMALL
USER_CHARGES

@<TRIPOS>ATOM
      1 C1          2.0818   -4.4766    3.2676 C.3       1 <0>        -0.1689
      2 C2          1.7388   -3.0977    2.7003 C.3       1 <0>         0.1074
      3 N1          2.1743   -3.0222    1.3035 N.am      1 <0>        -0.6022
      4 C3          1.3002   -3.5147    0.2360 C.3       1 <0>         0.0926
      5 C4          0.2008   -2.4865   -0.0380 C.3       1 <0>        -0.1804
      6 C5          3.3792   -2.4997    1.0006 C.2       1 <0>         0.5507
      7 O1          4.1293   -2.1464    1.8895 O.2       1 <0>        -0.5215
      8 C6          3.7885   -2.3561   -0.4128 C.ar      1 <0>        -0.0969
      9 C7          2.8877   -1.8598   -1.3564 C.ar      1 <0>        -0.0885
     10 C8          3.2762   -1.7279   -2.6736 C.ar      1 <0>        -0.0986
     11 C9          4.5553   -2.0868   -3.0600 C.ar      1 <0>        -0.0985
     12 C10         5.4529   -2.5799   -2.1298 C.ar      1 <0>        -0.1217
     13 C11         5.0792   -2.7110   -0.8082 C.ar      1 <0>        -0.0542
     14 C12         4.9725   -1.9405   -4.5007 C.3       1 <0>         0.1312
     15 H1          4.2422   -1.3285   -5.0301 H         1 <0>         0.1530
     16 C13         5.0470   -3.3018   -5.1429 C.ar      1 <0>        -0.0894
     17 C14         6.1536   -4.1045   -4.9342 C.ar      1 <0>        -0.1656
     18 C15         6.2249   -5.3537   -5.5218 C.ar      1 <0>        -0.0582
     19 C16         5.1905   -5.8032   -6.3198 C.ar      1 <0>        -0.1869
     20 C17         4.0794   -5.0000   -6.5308 C.ar      1 <0>         0.1493
     21 C18         4.0075   -3.7489   -5.9349 C.ar      1 <0>        -0.1219
     22 O2          3.0606   -5.4398   -7.3152 O.3       1 <0>        -0.3093
     23 C19         3.2001   -6.7401   -7.8913 C.3       1 <0>         0.0219
     24 N2          6.2908   -1.2956   -4.5657 N.4       1 <0>        -0.3815
     25 C20         6.7880   -1.3363   -5.9472 C.3       1 <0>        -0.0063
     26 C21         8.1695   -0.6815   -6.0119 C.3       1 <0>         0.0612
     27 H2          8.8619   -1.2291   -5.3726 H         1 <0>         0.0642
     28 N3          8.0710    0.7101   -5.5492 N.3       1 <0>        -0.5312
     29 C22         7.5510    0.7680   -4.1758 C.3       1 <0>         0.0332
     30 C23         6.1745    0.1011   -4.1263 C.3       1 <0>         0.0365
     31 H3          5.4890    0.6335   -4.7856 H         1 <0>         0.1458
     32 C24         5.6392    0.1421   -2.6935 C.3       1 <0>        -0.1984
     33 C25         9.3686    1.3914   -5.6500 C.3       1 <0>         0.0780
     34 C26         9.1817    2.8666   -5.4050 C.2       1 <0>        -0.1649
     35 C27         9.8791    3.4695   -4.4743 C.2       1 <0>        -0.1715
     36 C28         8.6788   -0.7055   -7.4544 C.3       1 <0>        -0.1519
     37 H4          3.1591   -4.6339    3.2139 H         1 <0>         0.0588
     38 H5          1.7578   -4.5328    4.3068 H         1 <0>         0.0724
     39 H6          1.5730   -5.2455    2.6863 H         1 <0>         0.0568
     40 H7          0.6616   -2.9404    2.7540 H         1 <0>         0.0820
     41 H8          2.2477   -2.3288    3.2816 H         1 <0>         0.0896
     42 H9          1.8857   -3.6709   -0.6700 H         1 <0>         0.0853
     43 H10         0.8475   -4.4576    0.5431 H         1 <0>         0.0843
     44 H11        -0.3007   -2.7316   -0.9742 H         1 <0>         0.0751
     45 H12        -0.5230   -2.5026    0.7769 H         1 <0>         0.0685
     46 H13         0.6428   -1.4929   -0.1118 H         1 <0>         0.0633
     47 H14         1.8888   -1.5799   -1.0561 H         1 <0>         0.1541
     48 H15         2.5802   -1.3439   -3.4047 H         1 <0>         0.1427
     49 H16         6.4498   -2.8586   -2.4380 H         1 <0>         0.1243
     50 H17         5.7823   -3.0914   -0.0821 H         1 <0>         0.1428
     51 H18         6.9635   -3.7546   -4.3113 H         1 <0>         0.1167
     52 H19         7.0902   -5.9788   -5.3573 H         1 <0>         0.1385
     53 H20         5.2470   -6.7790   -6.7793 H         1 <0>         0.1409
     54 H21         3.1414   -3.1236   -6.0937 H         1 <0>         0.1422
     55 H22         4.0878   -6.7641   -8.5234 H         1 <0>         0.0622
     56 H23         3.2992   -7.4804   -7.0975 H         1 <0>         0.0621
     57 H24         2.3198   -6.9675   -8.4925 H         1 <0>         0.1108
     58 H25         6.8614   -2.3728   -6.2765 H         1 <0>         0.1408
     59 H26         6.0993   -0.7966   -6.5972 H         1 <0>         0.1402
     60 H27         8.2331    0.2441   -3.5062 H         1 <0>         0.0587
     61 H28         7.4623    1.8086   -3.8640 H         1 <0>         0.1262
     62 H29         6.1642   -0.5969   -2.0883 H         1 <0>         0.0840
     63 H30         5.7995    1.1354   -2.2741 H         1 <0>         0.1007
     64 H31         4.5727   -0.0829   -2.6975 H         1 <0>         0.0994
     65 H32        10.0521    0.9832   -4.9055 H         1 <0>         0.0490
     66 H33         9.7830    1.2382   -6.6464 H         1 <0>         0.1013
     67 H34         8.4728    3.4267   -5.9967 H         1 <0>         0.1193
     68 H35         9.7451    4.5267   -4.2988 H         1 <0>         0.1067
     69 H36        10.5880    2.9094   -3.8826 H         1 <0>         0.0969
     70 H37         7.9867   -0.1570   -8.0933 H         1 <0>         0.0789
     71 H38         9.6629   -0.2390   -7.5001 H         1 <0>         0.0796
     72 H39         8.7498   -1.7377   -7.7975 H         1 <0>         0.0752
     73 H40         6.9346   -1.7852   -3.9624 H         1 <0>         0.4129
@<TRIPOS>BOND
     1    1    2 1
     2    1   37 1
     3    1   38 1
     4    1   39 1
     5    2    3 1
     6    2   40 1
     7    2   41 1
     8    3    4 1
     9    3    6 am
    10    4    5 1
    11    4   42 1
    12    4   43 1
    13    5   44 1
    14    5   45 1
    15    5   46 1
    16    6    7 2
    17    6    8 1
    18    8   13 ar
    19    8    9 ar
    20    9   10 ar
    21    9   47 1
    22   10   11 ar
    23   10   48 1
    24   11   12 ar
    25   11   14 1
    26   12   13 ar
    27   12   49 1
    28   13   50 1
    29   14   15 1
    30   14   16 1
    31   14   24 1
    32   16   21 ar
    33   16   17 ar
    34   17   18 ar
    35   17   51 1
    36   18   19 ar
    37   18   52 1
    38   19   20 ar
    39   19   53 1
    40   20   21 ar
    41   20   22 1
    42   21   54 1
    43   22   23 1
    44   23   55 1
    45   23   56 1
    46   23   57 1
    47   24   30 1
    48   24   25 1
    49   24   73 1
    50   25   26 1
    51   25   58 1
    52   25   59 1
    53   26   27 1
    54   26   28 1
    55   26   36 1
    56   28   29 1
    57   28   33 1
    58   29   30 1
    59   29   60 1
    60   29   61 1
    61   30   31 1
    62   30   32 1
    63   32   62 1
    64   32   63 1
    65   32   64 1
    66   33   34 1
    67   33   65 1
    68   33   66 1
    69   34   35 2
    70   34   67 1
    71   35   68 1
    72   35   69 1
    73   36   70 1
    74   36   71 1
    75   36   72 1
@<TRIPOS>MOLECULE
ZINC22066510
   72    74     0     0     0
SMALL
USER_CHARGES

@<TRIPOS>ATOM
      1 C1          2.1295   -1.3205    3.8951 C.3       1 <0>        -0.1676
      2 C2          1.6862   -0.2597    2.8856 C.3       1 <0>         0.1092
      3 N1          1.9679   -0.7304    1.5272 N.am      1 <0>        -0.6081
      4 C3          0.9979   -1.5784    0.8299 C.3       1 <0>         0.0967
      5 C4         -0.1181   -0.7066    0.2506 C.3       1 <0>        -0.1783
      6 C5          3.1194   -0.3832    0.9190 C.2       1 <0>         0.5598
      7 O1          3.9442    0.2827    1.5138 O.2       1 <0>        -0.5325
      8 C6          3.3794   -0.8123   -0.4717 C.ar      1 <0>        -0.1298
      9 C7          2.3801   -0.6969   -1.4393 C.ar      1 <0>        -0.1006
     10 C8          2.6294   -1.0987   -2.7353 C.ar      1 <0>        -0.1242
     11 C9          3.8665   -1.6156   -3.0767 C.ar      1 <0>        -0.0371
     12 C10         4.8613   -1.7331   -2.1223 C.ar      1 <0>        -0.0925
     13 C11         4.6271   -1.3292   -0.8241 C.ar      1 <0>        -0.0713
     14 C12         4.1316   -2.0530   -4.4943 C.3       1 <0>         0.1647
     15 H1          3.4074   -1.5841   -5.1606 H         1 <0>         0.0639
     16 C13         4.0051   -3.5516   -4.5896 C.ar      1 <0>        -0.0412
     17 C14         4.9574   -4.3641   -4.0020 C.ar      1 <0>        -0.1310
     18 C15         4.8442   -5.7392   -4.0876 C.ar      1 <0>        -0.0815
     19 C16         3.7789   -6.3052   -4.7612 C.ar      1 <0>        -0.2053
     20 C17         2.8223   -5.4925   -5.3515 C.ar      1 <0>         0.1287
     21 C18         2.9349   -4.1126   -5.2589 C.ar      1 <0>        -0.1432
     22 O2          1.7735   -6.0468   -6.0145 O.3       1 <0>        -0.3178
     23 C19         1.7188   -7.4739   -6.0646 C.3       1 <0>         0.0273
     24 N2          5.4891   -1.6503   -4.8853 N.3       1 <0>        -0.5241
     25 C20         5.9518   -2.4191   -6.0491 C.3       1 <0>         0.0580
     26 C21         7.3951   -2.0276   -6.3748 C.3       1 <0>         0.0852
     27 H2          8.0376   -2.2704   -5.5284 H         1 <0>         0.0496
     28 N3          7.4600   -0.5838   -6.6413 N.3       1 <0>        -0.5331
     29 C22         6.9973    0.1850   -5.4774 C.3       1 <0>         0.0660
     30 C23         5.5540   -0.2066   -5.1518 C.3       1 <0>         0.0883
     31 H3          4.9116    0.0362   -5.9982 H         1 <0>         0.0511
     32 C24         5.0830    0.5623   -3.9158 C.3       1 <0>        -0.1581
     33 C25         8.8176   -0.1812   -7.0323 C.3       1 <0>         0.0755
     34 C26         8.7957    1.2405   -7.5316 C.2       1 <0>        -0.1451
     35 C27         9.5853    2.1362   -6.9927 C.2       1 <0>        -0.1908
     36 C28         7.8663   -2.7969   -7.6105 C.3       1 <0>        -0.1491
     37 H4          3.1992   -1.5000    3.7873 H         1 <0>         0.0589
     38 H5          1.9199   -0.9703    4.9058 H         1 <0>         0.0674
     39 H6          1.5853   -2.2468    3.7114 H         1 <0>         0.0553
     40 H7          0.6165   -0.0801    2.9934 H         1 <0>         0.0766
     41 H8          2.2304    0.6667    3.0694 H         1 <0>         0.0863
     42 H9          1.4975   -2.1133    0.0222 H         1 <0>         0.0897
     43 H10         0.5717   -2.2955    1.5315 H         1 <0>         0.0782
     44 H11        -0.6418   -1.2583   -0.5301 H         1 <0>         0.0719
     45 H12        -0.8198   -0.4417    1.0415 H         1 <0>         0.0618
     46 H13         0.3124    0.2011   -0.1723 H         1 <0>         0.0654
     47 H14         1.4137   -0.2943   -1.1739 H         1 <0>         0.1393
     48 H15         1.8570   -1.0100   -3.4850 H         1 <0>         0.1257
     49 H16         5.8248   -2.1377   -2.3952 H         1 <0>         0.1358
     50 H17         5.4060   -1.4169   -0.0812 H         1 <0>         0.1275
     51 H18         5.7913   -3.9236   -3.4757 H         1 <0>         0.1302
     52 H19         5.5893   -6.3716   -3.6279 H         1 <0>         0.1256
     53 H20         3.6913   -7.3796   -4.8285 H         1 <0>         0.1272
     54 H21         2.1889   -3.4777   -5.7135 H         1 <0>         0.1283
     55 H22         1.6675   -7.8713   -5.0509 H         1 <0>         0.0558
     56 H23         0.8348   -7.7843   -6.6217 H         1 <0>         0.1010
     57 H24         2.6123   -7.8546   -6.5593 H         1 <0>         0.0559
     58 H25         5.9063   -3.4844   -5.8227 H         1 <0>         0.0911
     59 H26         5.3139   -2.2015   -6.9057 H         1 <0>         0.0435
     60 H27         7.6353   -0.0327   -4.6209 H         1 <0>         0.0424
     61 H28         7.0429    1.2502   -5.7038 H         1 <0>         0.0816
     62 H29         5.6128    0.1962   -3.0364 H         1 <0>         0.0715
     63 H30         5.2892    1.6244   -4.0482 H         1 <0>         0.0575
     64 H31         4.0114    0.4141   -3.7822 H         1 <0>         0.0661
     65 H32         9.4805   -0.2533   -6.1700 H         1 <0>         0.0380
     66 H33         9.1779   -0.8386   -7.8235 H         1 <0>         0.0892
     67 H34         8.1290    1.5210   -8.3336 H         1 <0>         0.1132
     68 H35        10.2520    1.8558   -6.1907 H         1 <0>         0.0940
     69 H36         9.5696    3.1551   -7.3506 H         1 <0>         0.0994
     70 H37         7.2242   -2.5533   -8.4569 H         1 <0>         0.0644
     71 H38         8.8942   -2.5178   -7.8421 H         1 <0>         0.0605
     72 H39         7.8163   -3.8676   -7.4128 H         1 <0>         0.0621
@<TRIPOS>BOND
     1    1    2 1
     2    1   37 1
     3    1   38 1
     4    1   39 1
     5    2    3 1
     6    2   40 1
     7    2   41 1
     8    3    4 1
     9    3    6 am
    10    4    5 1
    11    4   42 1
    12    4   43 1
    13    5   44 1
    14    5   45 1
    15    5   46 1
    16    6    7 2
    17    6    8 1
    18    8   13 ar
    19    8    9 ar
    20    9   10 ar
    21    9   47 1
    22   10   11 ar
    23   10   48 1
    24   11   12 ar
    25   11   14 1
    26   12   13 ar
    27   12   49 1
    28   13   50 1
    29   14   15 1
    30   14   16 1
    31   14   24 1
    32   16   21 ar
    33   16   17 ar
    34   17   18 ar
    35   17   51 1
    36   18   19 ar
    37   18   52 1
    38   19   20 ar
    39   19   53 1
    40   20   21 ar
    41   20   22 1
    42   21   54 1
    43   22   23 1
    44   23   55 1
    45   23   56 1
    46   23   57 1
    47   24   30 1
    48   24   25 1
    49   25   26 1
    50   25   58 1
    51   25   59 1
    52   26   27 1
    53   26   28 1
    54   26   36 1
    55   28   29 1
    56   28   33 1
    57   29   30 1
    58   29   60 1
    59   29   61 1
    60   30   31 1
    61   30   32 1
    62   32   62 1
    63   32   63 1
    64   32   64 1
    65   33   34 1
    66   33   65 1
    67   33   66 1
    68   34   35 2
    69   34   67 1
    70   35   68 1
    71   35   69 1
    72   36   70 1
    73   36   71 1
    74   36   72 1
@<TRIPOS>MOLECULE
ZINC53147203
   74    75     0     0     0
SMALL
USER_CHARGES

@<TRIPOS>ATOM
      1 C1         -0.0225    1.8097    0.0120 C.3       1 <0>        -0.1211
      2 S1          0.0021   -0.0041    0.0020 S.3       1 <0>        -0.2721
      3 C2         -1.7518   -0.4668    0.0163 C.3       1 <0>        -0.0758
      4 C3         -1.8771   -1.9917    0.0093 C.3       1 <0>        -0.0932
      5 C4         -3.3564   -2.3820    0.0213 C.3       1 <0>         0.0814
      6 H1         -3.8661   -1.9002   -0.8131 H         1 <0>         0.0862
      7 C5         -3.4823   -3.8780   -0.1094 C.2       1 <0>         0.4933
      8 O1         -3.8614   -4.5431    0.8396 O.co2     1 <0>        -0.6829
      9 O2         -3.2050   -4.4233   -1.1640 O.co2     1 <0>        -0.6914
     10 N1         -3.9655   -1.9489    1.2813 N.am      1 <0>        -0.6867
     11 C6         -5.2910   -1.7131    1.3430 C.2       1 <0>         0.5116
     12 O3         -5.9796   -1.8594    0.3554 O.2       1 <0>        -0.5408
     13 C7         -5.9176   -1.2675    2.6392 C.3       1 <0>         0.1412
     14 H2         -5.4677   -0.3265    2.9556 H         1 <0>         0.1113
     15 C8         -5.6812   -2.3321    3.7123 C.3       1 <0>        -0.0910
     16 C9         -6.1992   -1.8339    5.0369 C.ar      1 <0>        -0.0566
     17 C10        -5.3674   -1.1219    5.8808 C.ar      1 <0>        -0.1047
     18 C11        -5.8426   -0.6649    7.0957 C.ar      1 <0>        -0.1131
     19 C12        -7.1497   -0.9194    7.4667 C.ar      1 <0>        -0.1244
     20 C13        -7.9817   -1.6306    6.6224 C.ar      1 <0>        -0.1147
     21 C14        -7.5078   -2.0839    5.4055 C.ar      1 <0>        -0.1103
     22 N2         -7.3576   -1.0799    2.4463 N.am      1 <0>        -0.7022
     23 C15        -8.0409   -0.2388    3.2477 C.2       1 <0>         0.5105
     24 O4         -7.4636    0.3627    4.1285 O.2       1 <0>        -0.5219
     25 C16        -9.5222   -0.0457    3.0493 C.3       1 <0>         0.1012
     26 N3        -10.0269    0.9100    4.0383 N.am      1 <0>        -0.7065
     27 C17       -11.3339    1.2390    4.0517 C.2       1 <0>         0.5121
     28 O5        -12.0921    0.7438    3.2450 O.2       1 <0>        -0.5379
     29 C18       -11.8530    2.2221    5.0690 C.3       1 <0>         0.0991
     30 N4        -13.2931    2.4098    4.8762 N.am      1 <0>        -0.7135
     31 C19       -13.9763    3.2509    5.6775 C.2       1 <0>         0.4823
     32 O6        -13.3990    3.8524    6.5583 O.2       1 <0>        -0.5427
     33 C20       -15.4577    3.4439    5.4791 C.3       1 <0>         0.0845
     34 H3        -15.9216    2.4847    5.2494 H         1 <0>         0.1071
     35 C21       -15.6949    4.4155    4.3212 C.3       1 <0>        -0.0684
     36 C22       -17.1726    4.5139    4.0428 C.ar      1 <0>        -0.0781
     37 C23       -17.7642    3.6487    3.1411 C.ar      1 <0>        -0.1010
     38 C24       -19.1186    3.7372    2.8837 C.ar      1 <0>        -0.1459
     39 C25       -19.8853    4.6950    3.5313 C.ar      1 <0>         0.0996
     40 C26       -19.2895    5.5617    4.4360 C.ar      1 <0>        -0.1467
     41 C27       -17.9356    5.4657    4.6937 C.ar      1 <0>        -0.0735
     42 O7        -21.2178    4.7844    3.2795 O.3       1 <0>        -0.5022
     43 N5        -16.0489    3.9920    6.7072 N.3       1 <0>        -0.8134
     44 H4          1.0001    2.1870    0.0043 H         1 <0>         0.0982
     45 H5         -0.5497    2.1708   -0.8711 H         1 <0>         0.0736
     46 H6         -0.5327    2.1613    0.9088 H         1 <0>         0.0731
     47 H7         -2.2257   -0.0675    0.9130 H         1 <0>         0.0773
     48 H8         -2.2427   -0.0579   -0.8669 H         1 <0>         0.0796
     49 H9         -1.4032   -2.3910   -0.8874 H         1 <0>         0.0924
     50 H10        -1.3862   -2.4006    0.8924 H         1 <0>         0.0733
     51 H11        -3.4147   -1.8318    2.0712 H         1 <0>         0.3931
     52 H12        -6.2058   -3.2473    3.4380 H         1 <0>         0.0871
     53 H13        -4.6134   -2.5358    3.7932 H         1 <0>         0.0920
     54 H14        -4.3462   -0.9231    5.5910 H         1 <0>         0.1165
     55 H15        -5.1925   -0.1092    7.7554 H         1 <0>         0.1148
     56 H16        -7.5207   -0.5629    8.4162 H         1 <0>         0.1128
     57 H17        -9.0029   -1.8298    6.9124 H         1 <0>         0.1114
     58 H18        -8.1590   -2.6364    4.7443 H         1 <0>         0.1104
     59 H19        -7.8194   -1.5610    1.7419 H         1 <0>         0.4134
     60 H20        -9.7075    0.3377    2.0460 H         1 <0>         0.1019
     61 H21       -10.0329   -1.0007    3.1733 H         1 <0>         0.1012
     62 H22        -9.4205    1.3060    4.6835 H         1 <0>         0.4159
     63 H23       -11.6677    1.8386    6.0724 H         1 <0>         0.1016
     64 H24       -11.3423    3.1770    4.9450 H         1 <0>         0.1017
     65 H25       -13.7548    1.9287    4.1717 H         1 <0>         0.4137
     66 H26       -15.3090    5.3994    4.5877 H         1 <0>         0.0807
     67 H27       -15.1808    4.0524    3.4313 H         1 <0>         0.0840
     68 H28       -17.1669    2.9032    2.6372 H         1 <0>         0.1260
     69 H29       -19.5800    3.0616    2.1788 H         1 <0>         0.1266
     70 H30       -19.8842    6.3083    4.9413 H         1 <0>         0.1259
     71 H31       -17.4721    6.1373    5.4012 H         1 <0>         0.1259
     72 H32       -21.7653    4.2387    3.8604 H         1 <0>         0.3895
     73 H33       -15.9622    3.3401    7.4724 H         1 <0>         0.3470
     74 H34       -15.6352    4.8819    6.9417 H         1 <0>         0.3503
@<TRIPOS>BOND
     1    1    2 1
     2    1   44 1
     3    1   45 1
     4    1   46 1
     5    2    3 1
     6    3    4 1
     7    3   47 1
     8    3   48 1
     9    4    5 1
    10    4   49 1
    11    4   50 1
    12    5    6 1
    13    5    7 1
    14    5   10 1
    15    7    8 2
    16    7    9 1
    17   10   11 am
    18   10   51 1
    19   11   12 2
    20   11   13 1
    21   13   14 1
    22   13   15 1
    23   13   22 1
    24   15   16 1
    25   15   52 1
    26   15   53 1
    27   16   21 ar
    28   16   17 ar
    29   17   18 ar
    30   17   54 1
    31   18   19 ar
    32   18   55 1
    33   19   20 ar
    34   19   56 1
    35   20   21 ar
    36   20   57 1
    37   21   58 1
    38   22   23 am
    39   22   59 1
    40   23   24 2
    41   23   25 1
    42   25   26 1
    43   25   60 1
    44   25   61 1
    45   26   27 am
    46   26   62 1
    47   27   28 2
    48   27   29 1
    49   29   30 1
    50   29   63 1
    51   29   64 1
    52   30   31 am
    53   30   65 1
    54   31   32 2
    55   31   33 1
    56   33   34 1
    57   33   35 1
    58   33   43 1
    59   35   36 1
    60   35   66 1
    61   35   67 1
    62   36   41 ar
    63   36   37 ar
    64   37   38 ar
    65   37   68 1
    66   38   39 ar
    67   38   69 1
    68   39   40 ar
    69   39   42 1
    70   40   41 ar
    71   40   70 1
    72   41   71 1
    73   42   72 1
    74   43   73 1
    75   43   74 1
@<TRIPOS>MOLECULE
ZINC00001773
   49    54     0     0     0
SMALL
USER_CHARGES

@<TRIPOS>ATOM
      1 C1         -0.2443    1.2570    0.4660 C.ar      1 <0>        -0.1112
      2 C2          0.9083    2.0200    0.5623 C.ar      1 <0>        -0.0962
      3 C3          2.1900    1.4753    0.5348 C.ar      1 <0>         0.1149
      4 C4          2.2879    0.0876    0.3806 C.ar      1 <0>         0.0997
      5 C5          1.1121   -0.6326    0.2304 C.ar      1 <0>        -0.1886
      6 C6         -0.1602   -0.1156    0.3155 C.ar      1 <0>        -0.0596
      7 C7         -1.3282   -1.0478    0.3098 C.3       1 <0>        -0.0925
      8 C8         -0.9396   -2.5064    0.1383 C.3       1 <0>         0.0145
      9 H1         -1.6997   -3.1130    0.6306 H         1 <0>         0.1456
     10 C9          0.4167   -2.8747    0.7456 C.3       1 <0>         0.1448
     11 C10         1.4829   -2.0836    0.0450 C.3       1 <0>        -0.0304
     12 C11         1.4804   -2.4286   -1.4426 C.3       1 <0>        -0.1241
     13 C12         0.0910   -2.1126   -2.0094 C.3       1 <0>        -0.0096
     14 N1         -0.9309   -2.8716   -1.2830 N.4       1 <0>        -0.3739
     15 C13        -2.2494   -2.5851   -1.8638 C.3       1 <0>         0.0182
     16 C14        -2.3011   -3.1153   -3.2981 C.3       1 <0>        -0.2108
     17 C15        -2.4792   -2.0935   -4.4229 C.3       1 <0>        -0.1679
     18 C16        -3.6360   -3.0186   -4.0393 C.3       1 <0>        -0.1476
     19 C17         2.8868   -2.1036    0.6341 C.3       1 <0>         0.0644
     20 H2          3.5148   -2.8457    0.1412 H         1 <0>         0.1600
     21 O1          3.3506   -0.7456    0.3657 O.3       1 <0>        -0.2592
     22 C18         2.8706   -2.3034    2.1213 C.2       1 <0>         0.3361
     23 O2          3.8019   -1.8874    2.7678 O.2       1 <0>        -0.4120
     24 C19         1.7528   -2.9946    2.8421 C.3       1 <0>        -0.1575
     25 C20         0.4362   -2.5258    2.2328 C.3       1 <0>        -0.1426
     26 O3          0.6517   -4.2744    0.5791 O.3       1 <0>        -0.5414
     27 O4          3.2968    2.2569    0.6522 O.3       1 <0>        -0.4785
     28 H3         -1.2116    1.7350    0.5131 H         1 <0>         0.1418
     29 H4          0.8079    3.0906    0.6634 H         1 <0>         0.1458
     30 H5         -1.8664   -0.9385    1.2514 H         1 <0>         0.1279
     31 H6         -1.9954   -0.7663   -0.5049 H         1 <0>         0.1079
     32 H7          2.2322   -1.8319   -1.9592 H         1 <0>         0.1192
     33 H8          1.6983   -3.4885   -1.5741 H         1 <0>         0.1097
     34 H9         -0.1082   -1.0460   -1.9055 H         1 <0>         0.1319
     35 H10         0.0606   -2.3836   -3.0648 H         1 <0>         0.1393
     36 H11        -3.0221   -3.0716   -1.2686 H         1 <0>         0.1355
     37 H12        -2.4183   -1.5083   -1.8682 H         1 <0>         0.1323
     38 H13        -1.6744   -3.9837   -3.5011 H         1 <0>         0.1257
     39 H14        -2.5597   -1.0437   -4.1411 H         1 <0>         0.1059
     40 H15        -1.9696   -2.2896   -5.3663 H         1 <0>         0.1108
     41 H16        -3.8874   -3.8232   -4.7304 H         1 <0>         0.1129
     42 H17        -4.4775   -2.5773   -3.5052 H         1 <0>         0.1078
     43 H18         1.8718   -4.0736    2.7439 H         1 <0>         0.1208
     44 H19         1.7811   -2.7239    3.8976 H         1 <0>         0.1111
     45 H20         0.2965   -1.4521    2.3583 H         1 <0>         0.0987
     46 H21        -0.3620   -3.0631    2.7449 H         1 <0>         0.0955
     47 H22        -0.0114   -4.8375    1.0014 H         1 <0>         0.3955
     48 H23         3.5936    2.3840    1.5637 H         1 <0>         0.4013
     49 H24        -0.7373   -3.8580   -1.3711 H         1 <0>         0.4280
@<TRIPOS>BOND
     1    1    6 ar
     2    1    2 ar
     3    1   28 1
     4    2    3 ar
     5    2   29 1
     6    3    4 ar
     7    3   27 1
     8    4   21 1
     9    4    5 ar
    10    5   11 1
    11    5    6 ar
    12    6    7 1
    13    7    8 1
    14    7   30 1
    15    7   31 1
    16    8    9 1
    17    8   14 1
    18    8   10 1
    19   10   25 1
    20   10   11 1
    21   10   26 1
    22   11   12 1
    23   11   19 1
    24   12   13 1
    25   12   32 1
    26   12   33 1
    27   13   14 1
    28   13   34 1
    29   13   35 1
    30   14   15 1
    31   14   49 1
    32   15   16 1
    33   15   36 1
    34   15   37 1
    35   16   18 1
    36   16   17 1
    37   16   38 1
    38   17   18 1
    39   17   39 1
    40   17   40 1
    41   18   41 1
    42   18   42 1
    43   19   20 1
    44   19   21 1
    45   19   22 1
    46   22   23 2
    47   22   24 1
    48   24   25 1
    49   24   43 1
    50   24   44 1
    51   25   45 1
    52   25   46 1
    53   26   47 1
    54   27   48 1
@<TRIPOS>MOLECULE
ZINC58512951
   82    84     0     0     0
SMALL
USER_CHARGES

@<TRIPOS>ATOM
      1 C1          0.7162    1.8563   -0.5029 C.3       1 <0>        -0.1755
      2 C2          0.6586    0.3299   -0.5904 C.3       1 <0>        -0.0075
      3 C3          1.4848   -0.1438   -1.7878 C.3       1 <0>         0.1495
      4 H1          1.7800   -1.1823   -1.6375 H         1 <0>         0.1197
      5 C4          2.7165    0.7144   -1.9197 C.2       1 <0>         0.4918
      6 O1          2.9900    1.5356   -1.0701 O.2       1 <0>        -0.4668
      7 N1          3.5186    0.5520   -3.0116 N.am      1 <0>        -0.7176
      8 C5          4.7103    1.4268   -3.0696 C.3       1 <0>         0.0984
      9 C6          5.5806    1.1351   -1.8742 C.2       1 <0>         0.5169
     10 O2          5.9158   -0.0006   -1.6122 O.2       1 <0>        -0.5335
     11 N2          5.9848    2.1858   -1.0897 N.am      1 <0>        -0.6990
     12 C7          6.8316    1.7862    0.0640 C.3       1 <0>         0.1254
     13 H2          7.0627    0.7230   -0.0010 H         1 <0>         0.1132
     14 C8          6.0666    2.0628    1.3325 C.2       1 <0>         0.5126
     15 O3          6.2633    3.0807    1.9618 O.2       1 <0>        -0.4904
     16 N3          5.1483    1.1489    1.7611 N.am      1 <0>        -0.7099
     17 C9          4.4385    1.4896    3.0134 C.3       1 <0>         0.0916
     18 H3          5.0954    1.3143    3.8654 H         1 <0>         0.0677
     19 C10         3.1976    0.6022    3.1311 C.3       1 <0>        -0.0198
     20 S1          1.8931    1.2400    2.0439 S.3       1 <0>        -0.0694
     21 S2          1.3334   -0.3889    0.9323 S.3       1 <0>        -0.2221
     22 C11         2.7027    0.6068    4.5788 C.3       1 <0>        -0.1278
     23 C12         3.5521   -0.8276    2.7178 C.3       1 <0>        -0.1519
     24 C13         4.0263    2.9388    2.9827 C.2       1 <0>         0.5124
     25 O4          4.1287    3.5799    1.9507 O.co2     1 <0>        -0.6435
     26 O5          3.5906    3.4702    3.9898 O.co2     1 <0>        -0.7048
     27 C14         8.1291    2.5970    0.0565 C.3       1 <0>        -0.0791
     28 C15         8.9348    2.2443   -1.1673 C.ar      1 <0>        -0.0619
     29 C16         9.8481    1.2077   -1.1180 C.ar      1 <0>        -0.1013
     30 C17        10.5873    0.8837   -2.2400 C.ar      1 <0>        -0.1078
     31 C18        10.4131    1.5970   -3.4126 C.ar      1 <0>        -0.0409
     32 C19         9.4989    2.6343   -3.4613 C.ar      1 <0>        -0.1102
     33 C20         8.7562    2.9537   -2.3402 C.ar      1 <0>        -0.0979
     34 Cl1        11.3416    1.1910   -4.8221 Cl        1 <0>        -0.0805
     35 N4          0.6818   -0.0362   -3.0084 N.am      1 <0>        -0.7142
     36 C21         0.9583   -0.8214   -4.0683 C.2       1 <0>         0.5207
     37 O6          1.8718   -1.6171   -4.0117 O.2       1 <0>        -0.5197
     38 C22         0.1322   -0.7108   -5.3239 C.3       1 <0>         0.0849
     39 H4         -0.0882    0.3381   -5.5225 H         1 <0>         0.1056
     40 C23        -1.1769   -1.4816   -5.1427 C.3       1 <0>        -0.1126
     41 C24        -2.0554   -1.2702   -6.3487 C.ar      1 <0>        -0.0934
     42 C25        -2.9450   -0.2121   -6.3776 C.ar      1 <0>        -0.0956
     43 C26        -3.7518   -0.0163   -7.4818 C.ar      1 <0>        -0.1401
     44 C27        -3.6685   -0.8822   -8.5625 C.ar      1 <0>         0.1036
     45 C28        -2.7748   -1.9429   -8.5313 C.ar      1 <0>        -0.1400
     46 C29        -1.9665   -2.1312   -7.4269 C.ar      1 <0>        -0.1027
     47 O7         -4.4614   -0.6921   -9.6497 O.3       1 <0>        -0.5004
     48 N5          0.8811   -1.2763   -6.4541 N.3       1 <0>        -0.8244
     49 C30        -0.7944   -0.1164   -0.7648 C.3       1 <0>        -0.1228
     50 H5          1.6422    2.1575   -0.0131 H         1 <0>         0.1394
     51 H6          0.6820    2.2794   -1.5069 H         1 <0>         0.0573
     52 H7         -0.1345    2.2196    0.0736 H         1 <0>         0.0570
     53 H8          3.3202   -0.0961   -3.7055 H         1 <0>         0.4153
     54 H9          5.2670    1.2263   -3.9850 H         1 <0>         0.1074
     55 H10         4.3988    2.4711   -3.0492 H         1 <0>         0.0880
     56 H11         5.7401    3.1066   -1.2721 H         1 <0>         0.4158
     57 H12         4.9720    0.3280    1.2752 H         1 <0>         0.3912
     58 H13         2.4501    1.6255    4.8731 H         1 <0>         0.0900
     59 H14         1.8187   -0.0254    4.6626 H         1 <0>         0.0556
     60 H15         3.4866    0.2237    5.2320 H         1 <0>         0.0613
     61 H16         4.4196   -1.1653    3.2849 H         1 <0>         0.0714
     62 H17         2.7067   -1.4849    2.9214 H         1 <0>         0.0653
     63 H18         3.7826   -0.8514    1.6527 H         1 <0>         0.0688
     64 H19         7.8925    3.6609    0.0415 H         1 <0>         0.0918
     65 H20         8.7072    2.3659    0.9511 H         1 <0>         0.0890
     66 H21         9.9843    0.6512   -0.2025 H         1 <0>         0.1309
     67 H22        11.3011    0.0741   -2.2012 H         1 <0>         0.1301
     68 H23         9.3627    3.1917   -4.3762 H         1 <0>         0.1301
     69 H24         8.0391    3.7603   -2.3795 H         1 <0>         0.1307
     70 H25        -0.0489    0.6002   -3.0537 H         1 <0>         0.4056
     71 H26        -0.9606   -2.5442   -5.0326 H         1 <0>         0.0833
     72 H27        -1.6905   -1.1211   -4.2514 H         1 <0>         0.0860
     73 H28        -3.0095    0.4617   -5.5360 H         1 <0>         0.1293
     74 H29        -4.4470    0.8099   -7.5035 H         1 <0>         0.1301
     75 H30        -2.7081   -2.6183   -9.3713 H         1 <0>         0.1296
     76 H31        -1.2675   -2.9542   -7.4039 H         1 <0>         0.1260
     77 H32        -4.0700   -0.1241  -10.3274 H         1 <0>         0.3917
     78 H33         1.0977   -2.2487   -6.2940 H         1 <0>         0.3525
     79 H34         0.3756   -1.1560   -7.3191 H         1 <0>         0.3494
     80 H35        -1.1999    0.3155   -1.6797 H         1 <0>         0.0626
     81 H36        -0.8355   -1.2039   -0.8271 H         1 <0>         0.0639
     82 H37        -1.3830    0.2211    0.0883 H         1 <0>         0.0747
@<TRIPOS>BOND
     1    1    2 1
     2    1   50 1
     3    1   51 1
     4    1   52 1
     5    2   21 1
     6    2    3 1
     7    2   49 1
     8    3    4 1
     9    3    5 1
    10    3   35 1
    11    5    6 2
    12    5    7 am
    13    7    8 1
    14    7   53 1
    15    8    9 1
    16    8   54 1
    17    8   55 1
    18    9   10 2
    19    9   11 am
    20   11   12 1
    21   11   56 1
    22   12   13 1
    23   12   14 1
    24   12   27 1
    25   14   15 2
    26   14   16 am
    27   16   17 1
    28   16   57 1
    29   17   18 1
    30   17   19 1
    31   17   24 1
    32   19   20 1
    33   19   22 1
    34   19   23 1
    35   20   21 1
    36   22   58 1
    37   22   59 1
    38   22   60 1
    39   23   61 1
    40   23   62 1
    41   23   63 1
    42   24   25 2
    43   24   26 1
    44   27   28 1
    45   27   64 1
    46   27   65 1
    47   28   33 ar
    48   28   29 ar
    49   29   30 ar
    50   29   66 1
    51   30   31 ar
    52   30   67 1
    53   31   32 ar
    54   31   34 1
    55   32   33 ar
    56   32   68 1
    57   33   69 1
    58   35   36 am
    59   35   70 1
    60   36   37 2
    61   36   38 1
    62   38   39 1
    63   38   40 1
    64   38   48 1
    65   40   41 1
    66   40   71 1
    67   40   72 1
    68   41   46 ar
    69   41   42 ar
    70   42   43 ar
    71   42   73 1
    72   43   44 ar
    73   43   74 1
    74   44   45 ar
    75   44   47 1
    76   45   46 ar
    77   45   75 1
    78   46   76 1
    79   47   77 1
    80   48   78 1
    81   48   79 1
    82   49   80 1
    83   49   81 1
    84   49   82 1
@<TRIPOS>MOLECULE
ZINC19537365
   44    46     0     0     0
SMALL
USER_CHARGES
3-[(4-benzylpiperazin-1-yl)methyl]phenol
@<TRIPOS>ATOM
      1 C1         -2.1726    7.7784   -5.3691 C.ar      1 <0>        -0.0848
      2 C2         -1.5162    8.0627   -4.1862 C.ar      1 <0>        -0.1138
      3 C3         -0.1401    7.9521   -4.1155 C.ar      1 <0>        -0.0964
      4 C4          0.5797    7.5576   -5.2278 C.ar      1 <0>        -0.1591
      5 C5         -0.0762    7.2788   -6.4123 C.ar      1 <0>        -0.0950
      6 C6         -1.4528    7.3843   -6.4815 C.ar      1 <0>        -0.1138
      7 C7          2.0799    7.4374   -5.1509 C.3       1 <0>         0.0470
      8 N1          2.4415    6.0748   -4.7379 N.4       1 <0>        -0.3986
      9 C8          3.8738    5.9827   -4.4226 C.3       1 <0>         0.0013
     10 C9          4.2248    4.5341   -4.0749 C.3       1 <0>         0.0249
     11 N2          3.4082    4.0952   -2.9346 N.3       1 <0>        -0.5329
     12 C10         1.9758    4.1874   -3.2499 C.3       1 <0>         0.0218
     13 C11         1.6249    5.6359   -3.5977 C.3       1 <0>        -0.0023
     14 C12         3.7697    2.7326   -2.5217 C.3       1 <0>         0.0954
     15 C13         3.0963    2.4090   -1.2129 C.ar      1 <0>        -0.0539
     16 C14         3.7343    2.6922   -0.0191 C.ar      1 <0>        -0.1394
     17 C15         3.1190    2.3970    1.1831 C.ar      1 <0>        -0.0727
     18 C16         1.8626    1.8224    1.1947 C.ar      1 <0>        -0.1546
     19 C17         1.2228    1.5324   -0.0014 C.ar      1 <0>         0.1606
     20 C18         1.8423    1.8301   -1.2067 C.ar      1 <0>        -0.2165
     21 O1         -0.0110    0.9628    0.0073 O.3       1 <0>        -0.5067
     22 H1         -3.2477    7.8645   -5.4242 H         1 <0>         0.1356
     23 H2         -2.0785    8.3709   -3.3172 H         1 <0>         0.1360
     24 H3          0.3728    8.1742   -3.1913 H         1 <0>         0.1301
     25 H4          0.4865    6.9748   -7.2826 H         1 <0>         0.1306
     26 H5         -1.9656    7.1626   -7.4058 H         1 <0>         0.1357
     27 H6          2.5158    7.6490   -6.1384 H         1 <0>         0.1380
     28 H7          2.4684    8.1584   -4.4165 H         1 <0>         0.1336
     29 H8          4.4625    6.3046   -5.2943 H         1 <0>         0.1374
     30 H9          4.1030    6.6325   -3.5651 H         1 <0>         0.1358
     31 H10         4.0215    3.8892   -4.9425 H         1 <0>         0.0611
     32 H11         5.2906    4.4683   -3.8108 H         1 <0>         0.1252
     33 H12         1.7465    3.5376   -4.1073 H         1 <0>         0.0584
     34 H13         1.3870    3.8656   -2.3782 H         1 <0>         0.1255
     35 H14         1.8284    6.2818   -2.7308 H         1 <0>         0.1333
     36 H15         0.5593    5.7026   -3.8626 H         1 <0>         0.1368
     37 H16         3.4409    2.0173   -3.2900 H         1 <0>         0.0553
     38 H17         4.8607    2.6637   -2.3996 H         1 <0>         0.0993
     39 H18         4.7147    3.1452   -0.0261 H         1 <0>         0.1250
     40 H19         3.6192    2.6195    2.1141 H         1 <0>         0.1331
     41 H20         1.3806    1.5957    2.1343 H         1 <0>         0.1318
     42 H21         1.3444    1.6091   -2.1393 H         1 <0>         0.1211
     43 H22        -0.5175    0.7332   -0.9418 H         1 <0>         0.4340
     44 H23         2.2356    5.4010   -5.5826 H         1 <0>         0.4363
@<TRIPOS>BOND
     1    1    6 ar
     2    1    2 ar
     3    1   22 1
     4    2    3 ar
     5    2   23 1
     6    3    4 ar
     7    3   24 1
     8    4    5 ar
     9    4    7 1
    10    5    6 ar
    11    5   25 1
    12    6   26 1
    13    7    8 1
    14    7   27 1
    15    7   28 1
    16    8   13 1
    17    8    9 1
    18    8   44 1
    19    9   10 1
    20    9   29 1
    21    9   30 1
    22   10   11 1
    23   10   31 1
    24   10   32 1
    25   11   12 1
    26   11   14 1
    27   12   13 1
    28   12   33 1
    29   12   34 1
    30   13   35 1
    31   13   36 1
    32   14   15 1
    33   14   37 1
    34   14   38 1
    35   15   20 ar
    36   15   16 ar
    37   16   17 ar
    38   16   39 1
    39   17   18 ar
    40   17   40 1
    41   18   19 ar
    42   18   41 1
    43   19   20 ar
    44   19   21 1
    45   20   42 1
    46   21   43 1
@<TRIPOS>MOLECULE
ZINC19537365
   44    46     0     0     0
SMALL
USER_CHARGES
3-[(4-benzylpiperazin-1-yl)methyl]phenol
@<TRIPOS>ATOM
      1 C1         -2.1726    7.7784   -5.3691 C.ar      1 <0>        -0.1085
      2 C2         -1.5162    8.0627   -4.1862 C.ar      1 <0>        -0.1183
      3 C3         -0.1401    7.9521   -4.1155 C.ar      1 <0>        -0.1188
      4 C4          0.5797    7.5576   -5.2278 C.ar      1 <0>        -0.1041
      5 C5         -0.0762    7.2788   -6.4123 C.ar      1 <0>        -0.0952
      6 C6         -1.4528    7.3843   -6.4815 C.ar      1 <0>        -0.1164
      7 C7          2.0799    7.4374   -5.1509 C.3       1 <0>         0.0960
      8 N1          2.4415    6.0748   -4.7379 N.3       1 <0>        -0.5330
      9 C8          3.8738    5.9827   -4.4226 C.3       1 <0>         0.0241
     10 C9          4.2248    4.5341   -4.0749 C.3       1 <0>         0.0010
     11 N2          3.4082    4.0952   -2.9346 N.4       1 <0>        -0.3989
     12 C10         1.9758    4.1874   -3.2499 C.3       1 <0>        -0.0025
     13 C11         1.6249    5.6359   -3.5977 C.3       1 <0>         0.0210
     14 C12         3.7697    2.7326   -2.5217 C.3       1 <0>         0.0465
     15 C13         3.0963    2.4090   -1.2129 C.ar      1 <0>        -0.1163
     16 C14         3.7343    2.6922   -0.0191 C.ar      1 <0>        -0.1403
     17 C15         3.1190    2.3970    1.1831 C.ar      1 <0>        -0.0689
     18 C16         1.8626    1.8224    1.1947 C.ar      1 <0>        -0.1321
     19 C17         1.2228    1.5324   -0.0014 C.ar      1 <0>         0.1700
     20 C18         1.8423    1.8301   -1.2067 C.ar      1 <0>        -0.2000
     21 O1         -0.0110    0.9628    0.0073 O.3       1 <0>        -0.5007
     22 H1         -3.2477    7.8645   -5.4242 H         1 <0>         0.1271
     23 H2         -2.0785    8.3709   -3.3172 H         1 <0>         0.1260
     24 H3          0.3728    8.1742   -3.1913 H         1 <0>         0.1176
     25 H4          0.4865    6.9748   -7.2826 H         1 <0>         0.1257
     26 H5         -1.9656    7.1626   -7.4058 H         1 <0>         0.1276
     27 H6          2.5158    7.6490   -6.1384 H         1 <0>         0.0995
     28 H7          2.4684    8.1584   -4.4165 H         1 <0>         0.0558
     29 H8          4.4625    6.3046   -5.2943 H         1 <0>         0.1252
     30 H9          4.1030    6.6325   -3.5651 H         1 <0>         0.0614
     31 H10         4.0215    3.8892   -4.9425 H         1 <0>         0.1360
     32 H11         5.2906    4.4683   -3.8108 H         1 <0>         0.1373
     33 H12         1.7465    3.5376   -4.1073 H         1 <0>         0.1331
     34 H13         1.3870    3.8656   -2.3782 H         1 <0>         0.1341
     35 H14         1.8284    6.2818   -2.7308 H         1 <0>         0.0591
     36 H15         0.5593    5.7026   -3.8626 H         1 <0>         0.1281
     37 H16         3.4409    2.0173   -3.2900 H         1 <0>         0.1334
     38 H17         4.8607    2.6637   -2.3996 H         1 <0>         0.1396
     39 H18         4.7147    3.1452   -0.0261 H         1 <0>         0.1322
     40 H19         3.6192    2.6195    2.1141 H         1 <0>         0.1420
     41 H20         1.3806    1.5957    2.1343 H         1 <0>         0.1408
     42 H21         1.3444    1.6091   -2.1393 H         1 <0>         0.1335
     43 H22        -0.5175    0.7332   -0.9418 H         1 <0>         0.4427
     44 H23         3.6142    4.7689   -2.0898 H         1 <0>         0.4376
@<TRIPOS>BOND
     1    1    6 ar
     2    1    2 ar
     3    1   22 1
     4    2    3 ar
     5    2   23 1
     6    3    4 ar
     7    3   24 1
     8    4    5 ar
     9    4    7 1
    10    5    6 ar
    11    5   25 1
    12    6   26 1
    13    7    8 1
    14    7   27 1
    15    7   28 1
    16    8   13 1
    17    8    9 1
    18    9   10 1
    19    9   29 1
    20    9   30 1
    21   10   11 1
    22   10   31 1
    23   10   32 1
    24   11   12 1
    25   11   14 1
    26   11   44 1
    27   12   13 1
    28   12   33 1
    29   12   34 1
    30   13   35 1
    31   13   36 1
    32   14   15 1
    33   14   37 1
    34   14   38 1
    35   15   20 ar
    36   15   16 ar
    37   16   17 ar
    38   16   39 1
    39   17   18 ar
    40   17   40 1
    41   18   19 ar
    42   18   41 1
    43   19   20 ar
    44   19   21 1
    45   20   42 1
    46   21   43 1
@<TRIPOS>MOLECULE
ZINC19537365
   43    45     0     0     0
SMALL
USER_CHARGES
3-[(4-benzylpiperazin-1-yl)methyl]phenol
@<TRIPOS>ATOM
      1 C1         -2.1726    7.7784   -5.3691 C.ar      1 <0>        -0.1189
      2 C2         -1.5162    8.0627   -4.1862 C.ar      1 <0>        -0.1206
      3 C3         -0.1401    7.9521   -4.1155 C.ar      1 <0>        -0.1140
      4 C4          0.5797    7.5576   -5.2278 C.ar      1 <0>        -0.0849
      5 C5         -0.0762    7.2788   -6.4123 C.ar      1 <0>        -0.0996
      6 C6         -1.4528    7.3843   -6.4815 C.ar      1 <0>        -0.1207
      7 C7          2.0799    7.4374   -5.1509 C.3       1 <0>         0.0922
      8 N1          2.4415    6.0748   -4.7379 N.3       1 <0>        -0.5332
      9 C8          3.8738    5.9827   -4.4226 C.3       1 <0>         0.0556
     10 C9          4.2248    4.5341   -4.0749 C.3       1 <0>         0.0565
     11 N2          3.4082    4.0952   -2.9346 N.3       1 <0>        -0.5325
     12 C10         1.9758    4.1874   -3.2499 C.3       1 <0>         0.0538
     13 C11         1.6249    5.6359   -3.5977 C.3       1 <0>         0.0542
     14 C12         3.7697    2.7326   -2.5217 C.3       1 <0>         0.0912
     15 C13         3.0963    2.4090   -1.2129 C.ar      1 <0>        -0.0372
     16 C14         3.7343    2.6922   -0.0191 C.ar      1 <0>        -0.1423
     17 C15         3.1190    2.3970    1.1831 C.ar      1 <0>        -0.0776
     18 C16         1.8626    1.8224    1.1947 C.ar      1 <0>        -0.1633
     19 C17         1.2228    1.5324   -0.0014 C.ar      1 <0>         0.1557
     20 C18         1.8423    1.8301   -1.2067 C.ar      1 <0>        -0.2098
     21 O1         -0.0110    0.9628    0.0073 O.3       1 <0>        -0.5111
     22 H1         -3.2477    7.8645   -5.4242 H         1 <0>         0.1215
     23 H2         -2.0785    8.3709   -3.3172 H         1 <0>         0.1220
     24 H3          0.3728    8.1742   -3.1913 H         1 <0>         0.1182
     25 H4          0.4865    6.9748   -7.2826 H         1 <0>         0.1230
     26 H5         -1.9656    7.1626   -7.4058 H         1 <0>         0.1224
     27 H6          2.5158    7.6490   -6.1384 H         1 <0>         0.0860
     28 H7          2.4684    8.1584   -4.4165 H         1 <0>         0.0449
     29 H8          4.4625    6.3046   -5.2943 H         1 <0>         0.0824
     30 H9          4.1030    6.6325   -3.5651 H         1 <0>         0.0446
     31 H10         4.0215    3.8892   -4.9425 H         1 <0>         0.0442
     32 H11         5.2906    4.4683   -3.8108 H         1 <0>         0.0825
     33 H12         1.7465    3.5376   -4.1073 H         1 <0>         0.0404
     34 H13         1.3870    3.8656   -2.3782 H         1 <0>         0.0837
     35 H14         1.8284    6.2818   -2.7308 H         1 <0>         0.0412
     36 H15         0.5593    5.7026   -3.8626 H         1 <0>         0.0858
     37 H16         3.4409    2.0173   -3.2900 H         1 <0>         0.0445
     38 H17         4.8607    2.6637   -2.3996 H         1 <0>         0.0869
     39 H18         4.7147    3.1452   -0.0261 H         1 <0>         0.1231
     40 H19         3.6192    2.6195    2.1141 H         1 <0>         0.1285
     41 H20         1.3806    1.5957    2.1343 H         1 <0>         0.1267
     42 H21         1.3444    1.6091   -2.1393 H         1 <0>         0.1220
     43 H22        -0.5175    0.7332   -0.9418 H         1 <0>         0.4322
@<TRIPOS>BOND
     1    1    6 ar
     2    1    2 ar
     3    1   22 1
     4    2    3 ar
     5    2   23 1
     6    3    4 ar
     7    3   24 1
     8    4    5 ar
     9    4    7 1
    10    5    6 ar
    11    5   25 1
    12    6   26 1
    13    7    8 1
    14    7   27 1
    15    7   28 1
    16    8   13 1
    17    8    9 1
    18    9   10 1
    19    9   29 1
    20    9   30 1
    21   10   11 1
    22   10   31 1
    23   10   32 1
    24   11   12 1
    25   11   14 1
    26   12   13 1
    27   12   33 1
    28   12   34 1
    29   13   35 1
    30   13   36 1
    31   14   15 1
    32   14   37 1
    33   14   38 1
    34   15   20 ar
    35   15   16 ar
    36   16   17 ar
    37   16   39 1
    38   17   18 ar
    39   17   40 1
    40   18   19 ar
    41   18   41 1
    42   19   20 ar
    43   19   21 1
    44   20   42 1
    45   21   43 1
@<TRIPOS>MOLECULE
ZINC22939480
   70    73     0     0     0
SMALL
USER_CHARGES
3-[(R)-[(2R)-4-benzyl-2-(hydroxymethyl)piperazin-1-yl]-(4-tert-butylphenyl)methyl]phenol
@<TRIPOS>ATOM
      1 C1          1.4099    4.7450   -6.3397 C.3       1 <0>        -0.1431
      2 C2          0.6174    5.6000   -5.3488 C.3       1 <0>        -0.0315
      3 C3         -0.8677    5.5601   -5.7146 C.3       1 <0>        -0.1465
      4 C4          1.1183    7.0445   -5.4071 C.3       1 <0>        -0.1398
      5 C5          0.8062    5.0588   -3.9551 C.ar      1 <0>        -0.0557
      6 C6          2.0722    4.9957   -3.4037 C.ar      1 <0>        -0.1209
      7 C7          2.2455    4.4988   -2.1255 C.ar      1 <0>        -0.1170
      8 C8          1.1525    4.0658   -1.3982 C.ar      1 <0>        -0.0860
      9 C9         -0.1130    4.1244   -1.9514 C.ar      1 <0>        -0.0446
     10 C10        -0.2867    4.6249   -3.2282 C.ar      1 <0>        -0.1280
     11 C11         1.3413    3.5241   -0.0047 C.3       1 <0>         0.1775
     12 H1          2.3242    3.8233    0.3882 H         1 <0>         0.0627
     13 C12         1.2278    2.0216   -0.0301 C.ar      1 <0>        -0.0513
     14 C13        -0.0010    1.4252   -0.2463 C.ar      1 <0>        -0.1491
     15 C14        -0.1084    0.0472   -0.2706 C.ar      1 <0>        -0.0755
     16 C15         1.0123   -0.7378   -0.0784 C.ar      1 <0>        -0.1558
     17 C16         2.2460   -0.1420    0.1386 C.ar      1 <0>         0.1657
     18 C17         2.3512    1.2414    0.1621 C.ar      1 <0>        -0.2078
     19 O1          3.3498   -0.9119    0.3275 O.3       1 <0>        -0.5065
     20 N1          0.3081    4.0784    0.8803 N.3       1 <0>        -0.5179
     21 C18         0.0864    3.2060    2.0419 C.3       1 <0>         0.0141
     22 C19        -1.0493    3.7759    2.8951 C.3       1 <0>        -0.0025
     23 N2         -0.7015    5.1384    3.3221 N.4       1 <0>        -0.3974
     24 C20        -0.4798    6.0107    2.1604 C.3       1 <0>         0.0045
     25 C21         0.6559    5.4408    1.3073 C.3       1 <0>         0.0728
     26 H2          1.5846    5.3743    1.8930 H         1 <0>         0.0715
     27 C22         0.8621    6.3248    0.0756 C.3       1 <0>         0.0794
     28 O2         -0.3640    6.4212   -0.6521 O.3       1 <0>        -0.5777
     29 C23        -1.7347    5.6926    4.2071 C.3       1 <0>         0.0457
     30 C24        -3.0144    5.8754    3.4324 C.ar      1 <0>        -0.1540
     31 C25        -3.2648    7.0698    2.7833 C.ar      1 <0>        -0.0919
     32 C26        -4.4365    7.2357    2.0687 C.ar      1 <0>        -0.1109
     33 C27        -5.3622    6.2107    2.0116 C.ar      1 <0>        -0.0853
     34 C28        -5.1143    5.0183    2.6654 C.ar      1 <0>        -0.1132
     35 C29        -3.9403    4.8505    3.3756 C.ar      1 <0>        -0.0960
     36 H3          2.4776    4.7737   -6.0767 H         1 <0>         0.0568
     37 H4          1.2721    5.1401   -7.3570 H         1 <0>         0.0618
     38 H5          1.0497    3.7065   -6.2978 H         1 <0>         0.0570
     39 H6         -1.4374    6.1748   -5.0022 H         1 <0>         0.0587
     40 H7         -1.2278    4.5216   -5.6727 H         1 <0>         0.0588
     41 H8         -1.0055    5.9552   -6.7319 H         1 <0>         0.0606
     42 H9          0.5485    7.6592   -4.6947 H         1 <0>         0.0552
     43 H10         0.9805    7.4396   -6.4244 H         1 <0>         0.0614
     44 H11         2.1860    7.0732   -5.1441 H         1 <0>         0.0563
     45 H12         2.9261    5.3343   -3.9718 H         1 <0>         0.1195
     46 H13         3.2346    4.4492   -1.6948 H         1 <0>         0.1141
     47 H14        -0.9664    3.7820   -1.3849 H         1 <0>         0.1222
     48 H15        -1.2758    4.6739   -3.6591 H         1 <0>         0.1250
     49 H16        -0.8774    2.0370   -0.4009 H         1 <0>         0.1296
     50 H17        -1.0692   -0.4162   -0.4397 H         1 <0>         0.1319
     51 H18         0.9279   -1.8143   -0.0975 H         1 <0>         0.1315
     52 H19         3.3106    1.7076    0.3313 H         1 <0>         0.1242
     53 H20         4.3277   -0.4385    0.4995 H         1 <0>         0.4370
     54 H21        -0.1838    2.1972    1.6965 H         1 <0>         0.1366
     55 H22         1.0067    3.1538    2.6422 H         1 <0>         0.0570
     56 H23        -1.9757    3.8015    2.3025 H         1 <0>         0.1370
     57 H24        -1.1977    3.1399    3.7802 H         1 <0>         0.1330
     58 H25        -1.4001    6.0628    1.5601 H         1 <0>         0.1515
     59 H26        -0.2097    7.0196    2.5056 H         1 <0>         0.1284
     60 H27         1.1796    7.3288    0.3938 H         1 <0>         0.0487
     61 H28         1.6366    5.8822   -0.5679 H         1 <0>         0.0789
     62 H29        -0.4108    7.0193   -1.5741 H         1 <0>         0.4142
     63 H30        -1.9089    5.0016    5.0451 H         1 <0>         0.1365
     64 H31        -1.4002    6.6651    4.5973 H         1 <0>         0.1357
     65 H32        -2.5434    7.8721    2.8313 H         1 <0>         0.1270
     66 H33        -4.6303    8.1675    1.5582 H         1 <0>         0.1336
     67 H34        -6.2793    6.3417    1.4564 H         1 <0>         0.1337
     68 H35        -5.8378    4.2176    2.6211 H         1 <0>         0.1338
     69 H36        -3.7467    3.9189    3.8865 H         1 <0>         0.1279
     70 H37         0.2378    5.0865    3.8922 H         1 <0>         0.4371
@<TRIPOS>BOND
     1    1    2 1
     2    1   36 1
     3    1   37 1
     4    1   38 1
     5    2    3 1
     6    2    4 1
     7    2    5 1
     8    3   39 1
     9    3   40 1
    10    3   41 1
    11    4   42 1
    12    4   43 1
    13    4   44 1
    14    5   10 ar
    15    5    6 ar
    16    6    7 ar
    17    6   45 1
    18    7    8 ar
    19    7   46 1
    20    8    9 ar
    21    8   11 1
    22    9   10 ar
    23    9   47 1
    24   10   48 1
    25   11   12 1
    26   11   13 1
    27   11   20 1
    28   13   18 ar
    29   13   14 ar
    30   14   15 ar
    31   14   49 1
    32   15   16 ar
    33   15   50 1
    34   16   17 ar
    35   16   51 1
    36   17   18 ar
    37   17   19 1
    38   18   52 1
    39   19   53 1
    40   20   25 1
    41   20   21 1
    42   21   22 1
    43   21   54 1
    44   21   55 1
    45   22   23 1
    46   22   56 1
    47   22   57 1
    48   23   24 1
    49   23   29 1
    50   23   70 1
    51   24   25 1
    52   24   58 1
    53   24   59 1
    54   25   26 1
    55   25   27 1
    56   27   28 1
    57   27   60 1
    58   27   61 1
    59   28   62 1
    60   29   30 1
    61   29   63 1
    62   29   64 1
    63   30   35 ar
    64   30   31 ar
    65   31   32 ar
    66   31   65 1
    67   32   33 ar
    68   32   66 1
    69   33   34 ar
    70   33   67 1
    71   34   35 ar
    72   34   68 1
    73   35   69 1
@<TRIPOS>MOLECULE
ZINC22939480
   70    73     0     0     0
SMALL
USER_CHARGES
3-[(R)-[(2R)-4-benzyl-2-(hydroxymethyl)piperazin-1-yl]-(4-tert-butylphenyl)methyl]phenol
@<TRIPOS>ATOM
      1 C1          1.4099    4.7450   -6.3397 C.3       1 <0>        -0.1450
      2 C2          0.6174    5.6000   -5.3488 C.3       1 <0>        -0.0347
      3 C3         -0.8677    5.5601   -5.7146 C.3       1 <0>        -0.1504
      4 C4          1.1183    7.0445   -5.4071 C.3       1 <0>        -0.1424
      5 C5          0.8062    5.0588   -3.9551 C.ar      1 <0>        -0.0374
      6 C6          2.0722    4.9957   -3.4037 C.ar      1 <0>        -0.1085
      7 C7          2.2455    4.4988   -2.1255 C.ar      1 <0>        -0.0920
      8 C8          1.1525    4.0658   -1.3982 C.ar      1 <0>        -0.1293
      9 C9         -0.1130    4.1244   -1.9514 C.ar      1 <0>        -0.0781
     10 C10        -0.2867    4.6249   -3.2282 C.ar      1 <0>        -0.1091
     11 C11         1.3413    3.5241   -0.0047 C.3       1 <0>         0.1349
     12 H1          2.3242    3.8233    0.3882 H         1 <0>         0.1388
     13 C12         1.2278    2.0216   -0.0301 C.ar      1 <0>        -0.0818
     14 C13        -0.0010    1.4252   -0.2463 C.ar      1 <0>        -0.1671
     15 C14        -0.1084    0.0472   -0.2706 C.ar      1 <0>        -0.0606
     16 C15         1.0123   -0.7378   -0.0784 C.ar      1 <0>        -0.1410
     17 C16         2.2460   -0.1420    0.1386 C.ar      1 <0>         0.1781
     18 C17         2.3512    1.2414    0.1621 C.ar      1 <0>        -0.1894
     19 O1          3.3498   -0.9119    0.3275 O.3       1 <0>        -0.5001
     20 N1          0.3081    4.0784    0.8803 N.4       1 <0>        -0.3967
     21 C18         0.0864    3.2060    2.0419 C.3       1 <0>        -0.0125
     22 C19        -1.0493    3.7759    2.8951 C.3       1 <0>         0.0216
     23 N2         -0.7015    5.1384    3.3221 N.3       1 <0>        -0.5269
     24 C20        -0.4798    6.0107    2.1604 C.3       1 <0>         0.0302
     25 C21         0.6559    5.4408    1.3073 C.3       1 <0>         0.0501
     26 H2          1.5846    5.3743    1.8930 H         1 <0>         0.1443
     27 C22         0.8621    6.3248    0.0756 C.3       1 <0>         0.0527
     28 O2         -0.3640    6.4212   -0.6521 O.3       1 <0>        -0.5968
     29 C23        -1.7347    5.6926    4.2071 C.3       1 <0>         0.0928
     30 C24        -3.0144    5.8754    3.4324 C.ar      1 <0>        -0.1391
     31 C25        -3.2648    7.0698    2.7833 C.ar      1 <0>        -0.1059
     32 C26        -4.4365    7.2357    2.0687 C.ar      1 <0>        -0.1147
     33 C27        -5.3622    6.2107    2.0116 C.ar      1 <0>        -0.1092
     34 C28        -5.1143    5.0183    2.6654 C.ar      1 <0>        -0.1175
     35 C29        -3.9403    4.8505    3.3756 C.ar      1 <0>        -0.1120
     36 H3          2.4776    4.7737   -6.0767 H         1 <0>         0.0587
     37 H4          1.2721    5.1401   -7.3570 H         1 <0>         0.0666
     38 H5          1.0497    3.7065   -6.2978 H         1 <0>         0.0584
     39 H6         -1.4374    6.1748   -5.0022 H         1 <0>         0.0605
     40 H7         -1.2278    4.5216   -5.6727 H         1 <0>         0.0601
     41 H8         -1.0055    5.9552   -6.7319 H         1 <0>         0.0658
     42 H9          0.5485    7.6592   -4.6947 H         1 <0>         0.0573
     43 H10         0.9805    7.4396   -6.4244 H         1 <0>         0.0663
     44 H11         2.1860    7.0732   -5.1441 H         1 <0>         0.0584
     45 H12         2.9261    5.3343   -3.9718 H         1 <0>         0.1318
     46 H13         3.2346    4.4492   -1.6948 H         1 <0>         0.1285
     47 H14        -0.9664    3.7820   -1.3849 H         1 <0>         0.1128
     48 H15        -1.2758    4.6739   -3.6591 H         1 <0>         0.1371
     49 H16        -0.8774    2.0370   -0.4009 H         1 <0>         0.1191
     50 H17        -1.0692   -0.4162   -0.4397 H         1 <0>         0.1408
     51 H18         0.9279   -1.8143   -0.0975 H         1 <0>         0.1403
     52 H19         3.3106    1.7076    0.3313 H         1 <0>         0.1349
     53 H20         4.3277   -0.4385    0.4995 H         1 <0>         0.4434
     54 H21        -0.1838    2.1972    1.6965 H         1 <0>         0.1441
     55 H22         1.0067    3.1538    2.6422 H         1 <0>         0.1333
     56 H23        -1.9757    3.8015    2.3025 H         1 <0>         0.0645
     57 H24        -1.1977    3.1399    3.7802 H         1 <0>         0.1228
     58 H25        -1.4001    6.0628    1.5601 H         1 <0>         0.0816
     59 H26        -0.2097    7.0196    2.5056 H         1 <0>         0.1178
     60 H27         1.1796    7.3288    0.3938 H         1 <0>         0.0829
     61 H28         1.6366    5.8822   -0.5679 H         1 <0>         0.0833
     62 H29        -0.4108    7.0193   -1.5741 H         1 <0>         0.4326
     63 H30        -1.9089    5.0016    5.0451 H         1 <0>         0.0977
     64 H31        -1.4002    6.6651    4.5973 H         1 <0>         0.0981
     65 H32        -2.5434    7.8721    2.8313 H         1 <0>         0.1209
     66 H33        -4.6303    8.1675    1.5582 H         1 <0>         0.1255
     67 H34        -6.2793    6.3417    1.4564 H         1 <0>         0.1259
     68 H35        -5.8378    4.2176    2.6211 H         1 <0>         0.1256
     69 H36        -3.7467    3.9189    3.8865 H         1 <0>         0.1212
     70 H37        -0.6312    4.1305    0.3102 H         1 <0>         0.4359
@<TRIPOS>BOND
     1    1    2 1
     2    1   36 1
     3    1   37 1
     4    1   38 1
     5    2    3 1
     6    2    4 1
     7    2    5 1
     8    3   39 1
     9    3   40 1
    10    3   41 1
    11    4   42 1
    12    4   43 1
    13    4   44 1
    14    5   10 ar
    15    5    6 ar
    16    6    7 ar
    17    6   45 1
    18    7    8 ar
    19    7   46 1
    20    8    9 ar
    21    8   11 1
    22    9   10 ar
    23    9   47 1
    24   10   48 1
    25   11   12 1
    26   11   13 1
    27   11   20 1
    28   13   18 ar
    29   13   14 ar
    30   14   15 ar
    31   14   49 1
    32   15   16 ar
    33   15   50 1
    34   16   17 ar
    35   16   51 1
    36   17   18 ar
    37   17   19 1
    38   18   52 1
    39   19   53 1
    40   20   25 1
    41   20   21 1
    42   20   70 1
    43   21   22 1
    44   21   54 1
    45   21   55 1
    46   22   23 1
    47   22   56 1
    48   22   57 1
    49   23   24 1
    50   23   29 1
    51   24   25 1
    52   24   58 1
    53   24   59 1
    54   25   26 1
    55   25   27 1
    56   27   28 1
    57   27   60 1
    58   27   61 1
    59   28   62 1
    60   29   30 1
    61   29   63 1
    62   29   64 1
    63   30   35 ar
    64   30   31 ar
    65   31   32 ar
    66   31   65 1
    67   32   33 ar
    68   32   66 1
    69   33   34 ar
    70   33   67 1
    71   34   35 ar
    72   34   68 1
    73   35   69 1
@<TRIPOS>MOLECULE
ZINC22939480
   69    72     0     0     0
SMALL
USER_CHARGES
3-[(R)-[(2R)-4-benzyl-2-(hydroxymethyl)piperazin-1-yl]-(4-tert-butylphenyl)methyl]phenol
@<TRIPOS>ATOM
      1 C1          1.4099    4.7450   -6.3397 C.3       1 <0>        -0.1405
      2 C2          0.6174    5.6000   -5.3488 C.3       1 <0>        -0.0286
      3 C3         -0.8677    5.5601   -5.7146 C.3       1 <0>        -0.1452
      4 C4          1.1183    7.0445   -5.4071 C.3       1 <0>        -0.1388
      5 C5          0.8062    5.0588   -3.9551 C.ar      1 <0>        -0.0673
      6 C6          2.0722    4.9957   -3.4037 C.ar      1 <0>        -0.1244
      7 C7          2.2455    4.4988   -2.1255 C.ar      1 <0>        -0.1196
      8 C8          1.1525    4.0658   -1.3982 C.ar      1 <0>        -0.0687
      9 C9         -0.1130    4.1244   -1.9514 C.ar      1 <0>        -0.0431
     10 C10        -0.2867    4.6249   -3.2282 C.ar      1 <0>        -0.1280
     11 C11         1.3413    3.5241   -0.0047 C.3       1 <0>         0.1655
     12 H1          2.3242    3.8233    0.3882 H         1 <0>         0.0533
     13 C12         1.2278    2.0216   -0.0301 C.ar      1 <0>        -0.0355
     14 C13        -0.0010    1.4252   -0.2463 C.ar      1 <0>        -0.1388
     15 C14        -0.1084    0.0472   -0.2706 C.ar      1 <0>        -0.0802
     16 C15         1.0123   -0.7378   -0.0784 C.ar      1 <0>        -0.1620
     17 C16         2.2460   -0.1420    0.1386 C.ar      1 <0>         0.1572
     18 C17         2.3512    1.2414    0.1621 C.ar      1 <0>        -0.2076
     19 O1          3.3498   -0.9119    0.3275 O.3       1 <0>        -0.5107
     20 N1          0.3081    4.0784    0.8803 N.3       1 <0>        -0.5138
     21 C18         0.0864    3.2060    2.0419 C.3       1 <0>         0.0468
     22 C19        -1.0493    3.7759    2.8951 C.3       1 <0>         0.0532
     23 N2         -0.7015    5.1384    3.3221 N.3       1 <0>        -0.5302
     24 C20        -0.4798    6.0107    2.1604 C.3       1 <0>         0.0637
     25 C21         0.6559    5.4408    1.3073 C.3       1 <0>         0.0959
     26 H2          1.5846    5.3743    1.8930 H         1 <0>         0.0552
     27 C22         0.8621    6.3248    0.0756 C.3       1 <0>         0.0799
     28 O2         -0.3640    6.4212   -0.6521 O.3       1 <0>        -0.5682
     29 C23        -1.7347    5.6926    4.2071 C.3       1 <0>         0.0910
     30 C24        -3.0144    5.8754    3.4324 C.ar      1 <0>        -0.1200
     31 C25        -3.2648    7.0698    2.7833 C.ar      1 <0>        -0.1032
     32 C26        -4.4365    7.2357    2.0687 C.ar      1 <0>        -0.1176
     33 C27        -5.3622    6.2107    2.0116 C.ar      1 <0>        -0.1179
     34 C28        -5.1143    5.0183    2.6654 C.ar      1 <0>        -0.1200
     35 C29        -3.9403    4.8505    3.3756 C.ar      1 <0>        -0.1080
     36 H3          2.4776    4.7737   -6.0767 H         1 <0>         0.0558
     37 H4          1.2721    5.1401   -7.3570 H         1 <0>         0.0575
     38 H5          1.0497    3.7065   -6.2978 H         1 <0>         0.0560
     39 H6         -1.4374    6.1748   -5.0022 H         1 <0>         0.0597
     40 H7         -1.2278    4.5216   -5.6727 H         1 <0>         0.0582
     41 H8         -1.0055    5.9552   -6.7319 H         1 <0>         0.0565
     42 H9          0.5485    7.6592   -4.6947 H         1 <0>         0.0562
     43 H10         0.9805    7.4396   -6.4244 H         1 <0>         0.0572
     44 H11         2.1860    7.0732   -5.1441 H         1 <0>         0.0555
     45 H12         2.9261    5.3343   -3.9718 H         1 <0>         0.1148
     46 H13         3.2346    4.4492   -1.6948 H         1 <0>         0.1118
     47 H14        -0.9664    3.7820   -1.3849 H         1 <0>         0.1234
     48 H15        -1.2758    4.6739   -3.6591 H         1 <0>         0.1215
     49 H16        -0.8774    2.0370   -0.4009 H         1 <0>         0.1296
     50 H17        -1.0692   -0.4162   -0.4397 H         1 <0>         0.1284
     51 H18         0.9279   -1.8143   -0.0975 H         1 <0>         0.1265
     52 H19         3.3106    1.7076    0.3313 H         1 <0>         0.1221
     53 H20         4.3277   -0.4385    0.4995 H         1 <0>         0.4322
     54 H21        -0.1838    2.1972    1.6965 H         1 <0>         0.0948
     55 H22         1.0067    3.1538    2.6422 H         1 <0>         0.0374
     56 H23        -1.9757    3.8015    2.3025 H         1 <0>         0.0516
     57 H24        -1.1977    3.1399    3.7802 H         1 <0>         0.0761
     58 H25        -1.4001    6.0628    1.5601 H         1 <0>         0.0692
     59 H26        -0.2097    7.0196    2.5056 H         1 <0>         0.0710
     60 H27         1.1796    7.3288    0.3938 H         1 <0>         0.0362
     61 H28         1.6366    5.8822   -0.5679 H         1 <0>         0.0612
     62 H29        -0.4108    7.0193   -1.5741 H         1 <0>         0.3933
     63 H30        -1.9089    5.0016    5.0451 H         1 <0>         0.0838
     64 H31        -1.4002    6.6651    4.5973 H         1 <0>         0.0837
     65 H32        -2.5434    7.8721    2.8313 H         1 <0>         0.1173
     66 H33        -4.6303    8.1675    1.5582 H         1 <0>         0.1199
     67 H34        -6.2793    6.3417    1.4564 H         1 <0>         0.1197
     68 H35        -5.8378    4.2176    2.6211 H         1 <0>         0.1201
     69 H36        -3.7467    3.9189    3.8865 H         1 <0>         0.1179
@<TRIPOS>BOND
     1    1    2 1
     2    1   36 1
     3    1   37 1
     4    1   38 1
     5    2    3 1
     6    2    4 1
     7    2    5 1
     8    3   39 1
     9    3   40 1
    10    3   41 1
    11    4   42 1
    12    4   43 1
    13    4   44 1
    14    5   10 ar
    15    5    6 ar
    16    6    7 ar
    17    6   45 1
    18    7    8 ar
    19    7   46 1
    20    8    9 ar
    21    8   11 1
    22    9   10 ar
    23    9   47 1
    24   10   48 1
    25   11   12 1
    26   11   13 1
    27   11   20 1
    28   13   18 ar
    29   13   14 ar
    30   14   15 ar
    31   14   49 1
    32   15   16 ar
    33   15   50 1
    34   16   17 ar
    35   16   51 1
    36   17   18 ar
    37   17   19 1
    38   18   52 1
    39   19   53 1
    40   20   25 1
    41   20   21 1
    42   21   22 1
    43   21   54 1
    44   21   55 1
    45   22   23 1
    46   22   56 1
    47   22   57 1
    48   23   24 1
    49   23   29 1
    50   24   25 1
    51   24   58 1
    52   24   59 1
    53   25   26 1
    54   25   27 1
    55   27   28 1
    56   27   60 1
    57   27   61 1
    58   28   62 1
    59   29   30 1
    60   29   63 1
    61   29   64 1
    62   30   35 ar
    63   30   31 ar
    64   31   32 ar
    65   31   65 1
    66   32   33 ar
    67   32   66 1
    68   33   34 ar
    69   33   67 1
    70   34   35 ar
    71   34   68 1
    72   35   69 1
@<TRIPOS>MOLECULE
ZINC22939483
   70    73     0     0     0
SMALL
USER_CHARGES
3-[(S)-[(2R)-4-benzyl-2-(hydroxymethyl)piperazin-1-yl]-(4-tert-butylphenyl)methyl]phenol
@<TRIPOS>ATOM
      1 C1         -3.4157    9.5592   -1.0353 C.3       1 <0>        -0.1408
      2 C2         -2.2948    9.2254   -2.0217 C.3       1 <0>        -0.0330
      3 C3         -0.9896    9.8669   -1.5464 C.3       1 <0>        -0.1480
      4 C4         -2.6553    9.7681   -3.4060 C.3       1 <0>        -0.1433
      5 C5         -2.1212    7.7304   -2.0978 C.ar      1 <0>        -0.0526
      6 C6         -3.1736    6.9323   -2.5057 C.ar      1 <0>        -0.1114
      7 C7         -3.0142    5.5609   -2.5759 C.ar      1 <0>        -0.1062
      8 C8         -1.8023    4.9878   -2.2387 C.ar      1 <0>        -0.1017
      9 C9         -0.7516    5.7855   -1.8258 C.ar      1 <0>        -0.0975
     10 C10        -0.9097    7.1571   -1.7592 C.ar      1 <0>        -0.1219
     11 C11        -1.6286    3.4928   -2.3153 C.3       1 <0>         0.1775
     12 H1         -2.6048    3.0042   -2.4506 H         1 <0>         0.0628
     13 C12        -0.7135    3.1516   -3.4631 C.ar      1 <0>        -0.0368
     14 C13         0.6476    3.3677   -3.3492 C.ar      1 <0>        -0.0942
     15 C14         1.4904    3.0505   -4.3982 C.ar      1 <0>        -0.0831
     16 C15         0.9730    2.5271   -5.5675 C.ar      1 <0>        -0.1580
     17 C16        -0.3926    2.3146   -5.6863 C.ar      1 <0>         0.1548
     18 C17        -1.2357    2.6286   -4.6299 C.ar      1 <0>        -0.2196
     19 O1         -0.9040    1.8003   -6.8356 O.3       1 <0>        -0.5097
     20 N1         -1.0434    3.0029   -1.0602 N.3       1 <0>        -0.5192
     21 C18        -1.5753    3.7425    0.0929 C.3       1 <0>         0.0172
     22 C19        -0.8840    3.2578    1.3695 C.3       1 <0>        -0.0012
     23 N2         -1.1058    1.8136    1.5260 N.4       1 <0>        -0.3988
     24 C20        -0.5743    1.0740    0.3727 C.3       1 <0>         0.0100
     25 C21        -1.2656    1.5586   -0.9039 C.3       1 <0>         0.0713
     26 H2         -2.3520    1.3983   -0.8408 H         1 <0>         0.0725
     27 C22        -0.6850    0.8193   -2.1110 C.3       1 <0>         0.0767
     28 O2          0.7298    1.0153   -2.1544 O.3       1 <0>        -0.5800
     29 C23        -0.5201    1.3235    2.7809 C.3       1 <0>         0.0476
     30 C24        -0.8933    2.2537    3.9063 C.ar      1 <0>        -0.1572
     31 C25        -0.0756    3.3237    4.2185 C.ar      1 <0>        -0.0954
     32 C26        -0.4204    4.1798    5.2477 C.ar      1 <0>        -0.1137
     33 C27        -1.5776    3.9600    5.9712 C.ar      1 <0>        -0.0854
     34 C28        -2.3923    2.8867    5.6627 C.ar      1 <0>        -0.1137
     35 C29        -2.0503    2.0337    4.6301 C.ar      1 <0>        -0.0953
     36 H3         -4.3541    9.0980   -1.3769 H         1 <0>         0.0573
     37 H4         -3.5423   10.6505   -0.9798 H         1 <0>         0.0635
     38 H5         -3.1565    9.1691   -0.0400 H         1 <0>         0.0552
     39 H6         -0.1836    9.6270   -2.2555 H         1 <0>         0.0602
     40 H7         -0.7305    9.4767   -0.5511 H         1 <0>         0.0581
     41 H8         -1.1164   10.9582   -1.4909 H         1 <0>         0.0631
     42 H9         -1.8494    9.5281   -4.1152 H         1 <0>         0.0581
     43 H10        -2.7819   10.8594   -3.3504 H         1 <0>         0.0637
     44 H11        -3.5937    9.3070   -3.7476 H         1 <0>         0.0577
     45 H12        -4.1202    7.3801   -2.7698 H         1 <0>         0.1244
     46 H13        -3.8364    4.9374   -2.8946 H         1 <0>         0.1189
     47 H14         0.1939    5.3373   -1.5581 H         1 <0>         0.1283
     48 H15        -0.0877    7.7807   -1.4402 H         1 <0>         0.1301
     49 H16         1.0534    3.7812   -2.4378 H         1 <0>         0.1245
     50 H17         2.5535    3.2164   -4.3053 H         1 <0>         0.1274
     51 H18         1.6312    2.2839   -6.3885 H         1 <0>         0.1269
     52 H19        -2.2992    2.4638   -4.7199 H         1 <0>         0.1199
     53 H20        -1.9871    1.6322   -6.9288 H         1 <0>         0.4340
     54 H21        -1.3860    4.8176   -0.0421 H         1 <0>         0.1346
     55 H22        -2.6585    3.5681    0.1725 H         1 <0>         0.0569
     56 H23         0.1954    3.4585    1.3008 H         1 <0>         0.1335
     57 H24        -1.3013    3.7898    2.2371 H         1 <0>         0.1359
     58 H25         0.5089    1.2483    0.2929 H         1 <0>         0.1469
     59 H26        -0.7637   -0.0011    0.5077 H         1 <0>         0.1321
     60 H27        -0.9038   -0.2551   -2.0229 H         1 <0>         0.0497
     61 H28        -1.1379    1.2112   -3.0336 H         1 <0>         0.0801
     62 H29         1.3242    0.5563   -2.9581 H         1 <0>         0.4166
     63 H30        -0.9043    0.3154    2.9957 H         1 <0>         0.1364
     64 H31         0.5750    1.2857    2.6843 H         1 <0>         0.1336
     65 H32         0.8306    3.4930    3.6560 H         1 <0>         0.1301
     66 H33         0.2163    5.0181    5.4890 H         1 <0>         0.1355
     67 H34        -1.8450    4.6267    6.7777 H         1 <0>         0.1351
     68 H35        -3.2963    2.7149    6.2281 H         1 <0>         0.1351
     69 H36        -2.6868    1.1952    4.3890 H         1 <0>         0.1300
     70 H37        -2.1911    1.6397    1.5705 H         1 <0>         0.4337
@<TRIPOS>BOND
     1    1    2 1
     2    1   36 1
     3    1   37 1
     4    1   38 1
     5    2    3 1
     6    2    4 1
     7    2    5 1
     8    3   39 1
     9    3   40 1
    10    3   41 1
    11    4   42 1
    12    4   43 1
    13    4   44 1
    14    5   10 ar
    15    5    6 ar
    16    6    7 ar
    17    6   45 1
    18    7    8 ar
    19    7   46 1
    20    8    9 ar
    21    8   11 1
    22    9   10 ar
    23    9   47 1
    24   10   48 1
    25   11   12 1
    26   11   13 1
    27   11   20 1
    28   13   18 ar
    29   13   14 ar
    30   14   15 ar
    31   14   49 1
    32   15   16 ar
    33   15   50 1
    34   16   17 ar
    35   16   51 1
    36   17   18 ar
    37   17   19 1
    38   18   52 1
    39   19   53 1
    40   20   25 1
    41   20   21 1
    42   21   22 1
    43   21   54 1
    44   21   55 1
    45   22   23 1
    46   22   56 1
    47   22   57 1
    48   23   24 1
    49   23   29 1
    50   23   70 1
    51   24   25 1
    52   24   58 1
    53   24   59 1
    54   25   26 1
    55   25   27 1
    56   27   28 1
    57   27   60 1
    58   27   61 1
    59   28   62 1
    60   29   30 1
    61   29   63 1
    62   29   64 1
    63   30   35 ar
    64   30   31 ar
    65   31   32 ar
    66   31   65 1
    67   32   33 ar
    68   32   66 1
    69   33   34 ar
    70   33   67 1
    71   34   35 ar
    72   34   68 1
    73   35   69 1
@<TRIPOS>MOLECULE
ZINC22939483
   70    73     0     0     0
SMALL
USER_CHARGES
3-[(S)-[(2R)-4-benzyl-2-(hydroxymethyl)piperazin-1-yl]-(4-tert-butylphenyl)methyl]phenol
@<TRIPOS>ATOM
      1 C1         -3.4157    9.5592   -1.0353 C.3       1 <0>        -0.1434
      2 C2         -2.2948    9.2254   -2.0217 C.3       1 <0>        -0.0360
      3 C3         -0.9896    9.8669   -1.5464 C.3       1 <0>        -0.1510
      4 C4         -2.6553    9.7681   -3.4060 C.3       1 <0>        -0.1444
      5 C5         -2.1212    7.7304   -2.0978 C.ar      1 <0>        -0.0349
      6 C6         -3.1736    6.9323   -2.5057 C.ar      1 <0>        -0.1041
      7 C7         -3.0142    5.5609   -2.5759 C.ar      1 <0>        -0.0835
      8 C8         -1.8023    4.9878   -2.2387 C.ar      1 <0>        -0.1357
      9 C9         -0.7516    5.7855   -1.8258 C.ar      1 <0>        -0.1131
     10 C10        -0.9097    7.1571   -1.7592 C.ar      1 <0>        -0.1092
     11 C11        -1.6286    3.4928   -2.3153 C.3       1 <0>         0.1349
     12 H1         -2.6048    3.0042   -2.4506 H         1 <0>         0.1389
     13 C12        -0.7135    3.1516   -3.4631 C.ar      1 <0>        -0.0762
     14 C13         0.6476    3.3677   -3.3492 C.ar      1 <0>        -0.1305
     15 C14         1.4904    3.0505   -4.3982 C.ar      1 <0>        -0.0616
     16 C15         0.9730    2.5271   -5.5675 C.ar      1 <0>        -0.1428
     17 C16        -0.3926    2.3146   -5.6863 C.ar      1 <0>         0.1730
     18 C17        -1.2357    2.6286   -4.6299 C.ar      1 <0>        -0.2001
     19 O1         -0.9040    1.8003   -6.8356 O.3       1 <0>        -0.5020
     20 N1         -1.0434    3.0029   -1.0602 N.4       1 <0>        -0.3975
     21 C18        -1.5753    3.7425    0.0929 C.3       1 <0>        -0.0094
     22 C19        -0.8840    3.2578    1.3695 C.3       1 <0>         0.0235
     23 N2         -1.1058    1.8136    1.5260 N.3       1 <0>        -0.5335
     24 C20        -0.5743    1.0740    0.3727 C.3       1 <0>         0.0364
     25 C21        -1.2656    1.5586   -0.9039 C.3       1 <0>         0.0511
     26 H2         -2.3520    1.3983   -0.8408 H         1 <0>         0.1455
     27 C22        -0.6850    0.8193   -2.1110 C.3       1 <0>         0.0501
     28 O2          0.7298    1.0153   -2.1544 O.3       1 <0>        -0.5989
     29 C23        -0.5201    1.3235    2.7809 C.3       1 <0>         0.0967
     30 C24        -0.8933    2.2537    3.9063 C.ar      1 <0>        -0.1021
     31 C25        -0.0756    3.3237    4.2185 C.ar      1 <0>        -0.1183
     32 C26        -0.4204    4.1798    5.2477 C.ar      1 <0>        -0.1183
     33 C27        -1.5776    3.9600    5.9712 C.ar      1 <0>        -0.1091
     34 C28        -2.3923    2.8867    5.6627 C.ar      1 <0>        -0.1165
     35 C29        -2.0503    2.0337    4.6301 C.ar      1 <0>        -0.0951
     36 H3         -4.3541    9.0980   -1.3769 H         1 <0>         0.0592
     37 H4         -3.5423   10.6505   -0.9798 H         1 <0>         0.0674
     38 H5         -3.1565    9.1691   -0.0400 H         1 <0>         0.0580
     39 H6         -0.1836    9.6270   -2.2555 H         1 <0>         0.0607
     40 H7         -0.7305    9.4767   -0.5511 H         1 <0>         0.0601
     41 H8         -1.1164   10.9582   -1.4909 H         1 <0>         0.0672
     42 H9         -1.8494    9.5281   -4.1152 H         1 <0>         0.0587
     43 H10        -2.7819   10.8594   -3.3504 H         1 <0>         0.0675
     44 H11        -3.5937    9.3070   -3.7476 H         1 <0>         0.0592
     45 H12        -4.1202    7.3801   -2.7698 H         1 <0>         0.1345
     46 H13        -3.8364    4.9374   -2.8946 H         1 <0>         0.1304
     47 H14         0.1939    5.3373   -1.5581 H         1 <0>         0.1183
     48 H15        -0.0877    7.7807   -1.4402 H         1 <0>         0.1392
     49 H16         1.0534    3.7812   -2.4378 H         1 <0>         0.1150
     50 H17         2.5535    3.2164   -4.3053 H         1 <0>         0.1392
     51 H18         1.6312    2.2839   -6.3885 H         1 <0>         0.1382
     52 H19        -2.2992    2.4638   -4.7199 H         1 <0>         0.1332
     53 H20        -1.9871    1.6322   -6.9288 H         1 <0>         0.4424
     54 H21        -1.3860    4.8176   -0.0421 H         1 <0>         0.1418
     55 H22        -2.6585    3.5681    0.1725 H         1 <0>         0.1336
     56 H23         0.1954    3.4585    1.3008 H         1 <0>         0.0572
     57 H24        -1.3013    3.7898    2.2371 H         1 <0>         0.1287
     58 H25         0.5089    1.2483    0.2929 H         1 <0>         0.0727
     59 H26        -0.7637   -0.0011    0.5077 H         1 <0>         0.1207
     60 H27        -0.9038   -0.2551   -2.0229 H         1 <0>         0.0836
     61 H28        -1.1379    1.2112   -3.0336 H         1 <0>         0.0846
     62 H29         1.3242    0.5563   -2.9581 H         1 <0>         0.4345
     63 H30        -0.9043    0.3154    2.9957 H         1 <0>         0.0984
     64 H31         0.5750    1.2857    2.6843 H         1 <0>         0.0555
     65 H32         0.8306    3.4930    3.6560 H         1 <0>         0.1176
     66 H33         0.2163    5.0181    5.4890 H         1 <0>         0.1255
     67 H34        -1.8450    4.6267    6.7777 H         1 <0>         0.1264
     68 H35        -3.2963    2.7149    6.2281 H         1 <0>         0.1269
     69 H36        -2.6868    1.1952    4.3890 H         1 <0>         0.1253
     70 H37         0.0419    3.1770   -1.1042 H         1 <0>         0.4356
@<TRIPOS>BOND
     1    1    2 1
     2    1   36 1
     3    1   37 1
     4    1   38 1
     5    2    3 1
     6    2    4 1
     7    2    5 1
     8    3   39 1
     9    3   40 1
    10    3   41 1
    11    4   42 1
    12    4   43 1
    13    4   44 1
    14    5   10 ar
    15    5    6 ar
    16    6    7 ar
    17    6   45 1
    18    7    8 ar
    19    7   46 1
    20    8    9 ar
    21    8   11 1
    22    9   10 ar
    23    9   47 1
    24   10   48 1
    25   11   12 1
    26   11   13 1
    27   11   20 1
    28   13   18 ar
    29   13   14 ar
    30   14   15 ar
    31   14   49 1
    32   15   16 ar
    33   15   50 1
    34   16   17 ar
    35   16   51 1
    36   17   18 ar
    37   17   19 1
    38   18   52 1
    39   19   53 1
    40   20   25 1
    41   20   21 1
    42   20   70 1
    43   21   22 1
    44   21   54 1
    45   21   55 1
    46   22   23 1
    47   22   56 1
    48   22   57 1
    49   23   24 1
    50   23   29 1
    51   24   25 1
    52   24   58 1
    53   24   59 1
    54   25   26 1
    55   25   27 1
    56   27   28 1
    57   27   60 1
    58   27   61 1
    59   28   62 1
    60   29   30 1
    61   29   63 1
    62   29   64 1
    63   30   35 ar
    64   30   31 ar
    65   31   32 ar
    66   31   65 1
    67   32   33 ar
    68   32   66 1
    69   33   34 ar
    70   33   67 1
    71   34   35 ar
    72   34   68 1
    73   35   69 1
@<TRIPOS>MOLECULE
ZINC22939483
   69    72     0     0     0
SMALL
USER_CHARGES
3-[(S)-[(2R)-4-benzyl-2-(hydroxymethyl)piperazin-1-yl]-(4-tert-butylphenyl)methyl]phenol
@<TRIPOS>ATOM
      1 C1         -3.4157    9.5592   -1.0353 C.3       1 <0>        -0.1402
      2 C2         -2.2948    9.2254   -2.0217 C.3       1 <0>        -0.0300
      3 C3         -0.9896    9.8669   -1.5464 C.3       1 <0>        -0.1465
      4 C4         -2.6553    9.7681   -3.4060 C.3       1 <0>        -0.1404
      5 C5         -2.1212    7.7304   -2.0978 C.ar      1 <0>        -0.0639
      6 C6         -3.1736    6.9323   -2.5057 C.ar      1 <0>        -0.1152
      7 C7         -3.0142    5.5609   -2.5759 C.ar      1 <0>        -0.1095
      8 C8         -1.8023    4.9878   -2.2387 C.ar      1 <0>        -0.0834
      9 C9         -0.7516    5.7855   -1.8258 C.ar      1 <0>        -0.0901
     10 C10        -0.9097    7.1571   -1.7592 C.ar      1 <0>        -0.1240
     11 C11        -1.6286    3.4928   -2.3153 C.3       1 <0>         0.1655
     12 H1         -2.6048    3.0042   -2.4506 H         1 <0>         0.0535
     13 C12        -0.7135    3.1516   -3.4631 C.ar      1 <0>        -0.0216
     14 C13         0.6476    3.3677   -3.3492 C.ar      1 <0>        -0.0908
     15 C14         1.4904    3.0505   -4.3982 C.ar      1 <0>        -0.0857
     16 C15         0.9730    2.5271   -5.5675 C.ar      1 <0>        -0.1646
     17 C16        -0.3926    2.3146   -5.6863 C.ar      1 <0>         0.1470
     18 C17        -1.2357    2.6286   -4.6299 C.ar      1 <0>        -0.2183
     19 O1         -0.9040    1.8003   -6.8356 O.3       1 <0>        -0.5136
     20 N1         -1.0434    3.0029   -1.0602 N.3       1 <0>        -0.5158
     21 C18        -1.5753    3.7425    0.0929 C.3       1 <0>         0.0499
     22 C19        -0.8840    3.2578    1.3695 C.3       1 <0>         0.0567
     23 N2         -1.1058    1.8136    1.5260 N.3       1 <0>        -0.5350
     24 C20        -0.5743    1.0740    0.3727 C.3       1 <0>         0.0687
     25 C21        -1.2656    1.5586   -0.9039 C.3       1 <0>         0.0965
     26 H2         -2.3520    1.3983   -0.8408 H         1 <0>         0.0574
     27 C22        -0.6850    0.8193   -2.1110 C.3       1 <0>         0.0770
     28 O2          0.7298    1.0153   -2.1544 O.3       1 <0>        -0.5709
     29 C23        -0.5201    1.3235    2.7809 C.3       1 <0>         0.0936
     30 C24        -0.8933    2.2537    3.9063 C.ar      1 <0>        -0.0833
     31 C25        -0.0756    3.3237    4.2185 C.ar      1 <0>        -0.1132
     32 C26        -0.4204    4.1798    5.2477 C.ar      1 <0>        -0.1206
     33 C27        -1.5776    3.9600    5.9712 C.ar      1 <0>        -0.1193
     34 C28        -2.3923    2.8867    5.6627 C.ar      1 <0>        -0.1208
     35 C29        -2.0503    2.0337    4.6301 C.ar      1 <0>        -0.0997
     36 H3         -4.3541    9.0980   -1.3769 H         1 <0>         0.0567
     37 H4         -3.5423   10.6505   -0.9798 H         1 <0>         0.0592
     38 H5         -3.1565    9.1691   -0.0400 H         1 <0>         0.0567
     39 H6         -0.1836    9.6270   -2.2555 H         1 <0>         0.0593
     40 H7         -0.7305    9.4767   -0.5511 H         1 <0>         0.0592
     41 H8         -1.1164   10.9582   -1.4909 H         1 <0>         0.0589
     42 H9         -1.8494    9.5281   -4.1152 H         1 <0>         0.0568
     43 H10        -2.7819   10.8594   -3.3504 H         1 <0>         0.0593
     44 H11        -3.5937    9.3070   -3.7476 H         1 <0>         0.0567
     45 H12        -4.1202    7.3801   -2.7698 H         1 <0>         0.1197
     46 H13        -3.8364    4.9374   -2.8946 H         1 <0>         0.1167
     47 H14         0.1939    5.3373   -1.5581 H         1 <0>         0.1280
     48 H15        -0.0877    7.7807   -1.4402 H         1 <0>         0.1263
     49 H16         1.0534    3.7812   -2.4378 H         1 <0>         0.1256
     50 H17         2.5535    3.2164   -4.3053 H         1 <0>         0.1242
     51 H18         1.6312    2.2839   -6.3885 H         1 <0>         0.1221
     52 H19        -2.2992    2.4638   -4.7199 H         1 <0>         0.1180
     53 H20        -1.9871    1.6322   -6.9288 H         1 <0>         0.4295
     54 H21        -1.3860    4.8176   -0.0421 H         1 <0>         0.0927
     55 H22        -2.6585    3.5681    0.1725 H         1 <0>         0.0381
     56 H23         0.1954    3.4585    1.3008 H         1 <0>         0.0411
     57 H24        -1.3013    3.7898    2.2371 H         1 <0>         0.0842
     58 H25         0.5089    1.2483    0.2929 H         1 <0>         0.0580
     59 H26        -0.7637   -0.0011    0.5077 H         1 <0>         0.0752
     60 H27        -0.9038   -0.2551   -2.0229 H         1 <0>         0.0375
     61 H28        -1.1379    1.2112   -3.0336 H         1 <0>         0.0627
     62 H29         1.3242    0.5563   -2.9581 H         1 <0>         0.3956
     63 H30        -0.9043    0.3154    2.9957 H         1 <0>         0.0841
     64 H31         0.5750    1.2857    2.6843 H         1 <0>         0.0445
     65 H32         0.8306    3.4930    3.6560 H         1 <0>         0.1181
     66 H33         0.2163    5.0181    5.4890 H         1 <0>         0.1214
     67 H34        -1.8450    4.6267    6.7777 H         1 <0>         0.1209
     68 H35        -3.2963    2.7149    6.2281 H         1 <0>         0.1217
     69 H36        -2.6868    1.1952    4.3890 H         1 <0>         0.1223
@<TRIPOS>BOND
     1    1    2 1
     2    1   36 1
     3    1   37 1
     4    1   38 1
     5    2    3 1
     6    2    4 1
     7    2    5 1
     8    3   39 1
     9    3   40 1
    10    3   41 1
    11    4   42 1
    12    4   43 1
    13    4   44 1
    14    5   10 ar
    15    5    6 ar
    16    6    7 ar
    17    6   45 1
    18    7    8 ar
    19    7   46 1
    20    8    9 ar
    21    8   11 1
    22    9   10 ar
    23    9   47 1
    24   10   48 1
    25   11   12 1
    26   11   13 1
    27   11   20 1
    28   13   18 ar
    29   13   14 ar
    30   14   15 ar
    31   14   49 1
    32   15   16 ar
    33   15   50 1
    34   16   17 ar
    35   16   51 1
    36   17   18 ar
    37   17   19 1
    38   18   52 1
    39   19   53 1
    40   20   25 1
    41   20   21 1
    42   21   22 1
    43   21   54 1
    44   21   55 1
    45   22   23 1
    46   22   56 1
    47   22   57 1
    48   23   24 1
    49   23   29 1
    50   24   25 1
    51   24   58 1
    52   24   59 1
    53   25   26 1
    54   25   27 1
    55   27   28 1
    56   27   60 1
    57   27   61 1
    58   28   62 1
    59   29   30 1
    60   29   63 1
    61   29   64 1
    62   30   35 ar
    63   30   31 ar
    64   31   32 ar
    65   31   65 1
    66   32   33 ar
    67   32   66 1
    68   33   34 ar
    69   33   67 1
    70   34   35 ar
    71   34   68 1
    72   35   69 1
@<TRIPOS>MOLECULE
ZINC19365698
   69    71     0     0     0
SMALL
USER_CHARGES

@<TRIPOS>ATOM
      1 C1         -3.2717   -1.8103   -0.8628 C.3       1 <0>        -0.1682
      2 C2         -2.5244   -0.5323   -0.4763 C.3       1 <0>         0.1081
      3 N1         -1.4685   -0.8562    0.4861 N.am      1 <0>        -0.6052
      4 C3         -0.1536   -1.2940    0.0112 C.3       1 <0>         0.0964
      5 C4          0.6678   -0.0745   -0.4120 C.3       1 <0>        -0.1789
      6 C5         -1.7067   -0.7513    1.8085 C.2       1 <0>         0.5551
      7 O1         -2.8123   -0.4369    2.2038 O.2       1 <0>        -0.5295
      8 C6         -0.6233   -1.0189    2.7783 C.ar      1 <0>        -0.1181
      9 C7          0.6447   -0.4696    2.5818 C.ar      1 <0>        -0.0952
     10 C8          1.6511   -0.7228    3.4908 C.ar      1 <0>        -0.1237
     11 C9          1.4058   -1.5195    4.5951 C.ar      1 <0>        -0.0540
     12 C10         0.1512   -2.0674    4.7955 C.ar      1 <0>        -0.0973
     13 C11        -0.8657   -1.8170    3.8974 C.ar      1 <0>        -0.0692
     14 C12         2.5101   -1.7922    5.5836 C.3       1 <0>         0.1749
     15 H1          3.2869   -1.0348    5.4786 H         1 <0>         0.0716
     16 C13         3.0974   -3.1543    5.3176 C.ar      1 <0>        -0.0990
     17 C14         2.3631   -4.2908    5.6005 C.ar      1 <0>        -0.1008
     18 C15         2.9017   -5.5403    5.3566 C.ar      1 <0>        -0.1194
     19 C16         4.1746   -5.6533    4.8293 C.ar      1 <0>        -0.1071
     20 C17         4.9086   -4.5168    4.5455 C.ar      1 <0>        -0.1140
     21 C18         4.3682   -3.2672    4.7855 C.ar      1 <0>        -0.1080
     22 N2          1.9672   -1.7509    6.9480 N.3       1 <0>        -0.5273
     23 C19         2.8497   -2.4568    7.8876 C.3       1 <0>         0.0249
     24 C20         2.2207   -2.4422    9.2825 C.3       1 <0>         0.0320
     25 H2          1.2579   -2.9523    9.2523 H         1 <0>         0.1441
     26 N3          2.0254   -1.0528    9.7172 N.4       1 <0>        -0.3827
     27 C21         1.1224   -0.3680    8.7827 C.3       1 <0>         0.0016
     28 C22         1.7423   -0.3654    7.3836 C.3       1 <0>         0.0647
     29 H3          2.6931    0.1671    7.4081 H         1 <0>         0.0662
     30 C23         0.7926    0.3295    6.4058 C.3       1 <0>        -0.1641
     31 C24         1.4382   -1.0393   11.0637 C.3       1 <0>         0.0243
     32 C25         1.3511    0.3811   11.5595 C.2       1 <0>        -0.2351
     33 C26         0.2021    0.8655   11.9611 C.2       1 <0>        -0.1051
     34 C27         3.1468   -3.1591   10.2671 C.3       1 <0>        -0.1831
     35 H4         -4.0573   -1.5693   -1.5789 H         1 <0>         0.0704
     36 H5         -2.5743   -2.5170   -1.3126 H         1 <0>         0.0562
     37 H6         -3.7157   -2.2549    0.0278 H         1 <0>         0.0586
     38 H7         -2.0804   -0.0877   -1.3670 H         1 <0>         0.0795
     39 H8         -3.2218    0.1744   -0.0265 H         1 <0>         0.0876
     40 H9          0.3650   -1.8212    0.8120 H         1 <0>         0.0861
     41 H10        -0.2789   -1.9613   -0.8415 H         1 <0>         0.0817
     42 H11         0.4897    0.7436    0.2860 H         1 <0>         0.0639
     43 H12         1.7272   -0.3309   -0.4085 H         1 <0>         0.0720
     44 H13         0.3717    0.2328   -1.4150 H         1 <0>         0.0653
     45 H14         0.8377    0.1519    1.7199 H         1 <0>         0.1428
     46 H15         2.6327   -0.2984    3.3399 H         1 <0>         0.1274
     47 H16        -0.0337   -2.6887    5.6593 H         1 <0>         0.1335
     48 H17        -1.8458   -2.2413    4.0576 H         1 <0>         0.1307
     49 H18         1.3686   -4.2026    6.0125 H         1 <0>         0.1279
     50 H19         2.3283   -6.4282    5.5782 H         1 <0>         0.1262
     51 H20         4.5957   -6.6295    4.6394 H         1 <0>         0.1266
     52 H21         5.9031   -4.6050    4.1339 H         1 <0>         0.1272
     53 H22         4.9402   -2.3792    4.5604 H         1 <0>         0.1217
     54 H23         2.9811   -3.4877    7.5586 H         1 <0>         0.1332
     55 H24         3.8188   -1.9589    7.9204 H         1 <0>         0.0612
     56 H25         0.1652   -0.8887    8.7550 H         1 <0>         0.1364
     57 H26         0.9679    0.6590    9.1136 H         1 <0>         0.1359
     58 H27        -0.1583   -0.2028    6.3826 H         1 <0>         0.0796
     59 H28         0.6260    1.3570    6.7292 H         1 <0>         0.0698
     60 H29         1.2335    0.3293    5.4090 H         1 <0>         0.0910
     61 H30         0.4392   -1.4738   11.0288 H         1 <0>         0.1300
     62 H31         2.0645   -1.6221   11.7391 H         1 <0>         0.1385
     63 H32         2.2360    0.9998   11.5837 H         1 <0>         0.1329
     64 H33         0.1397    1.8834   12.3164 H         1 <0>         0.1229
     65 H34        -0.6828    0.2468   11.9369 H         1 <0>         0.1115
     66 H35         4.1097   -2.6491   10.2973 H         1 <0>         0.0808
     67 H36         2.6988   -3.1487   11.2607 H         1 <0>         0.0861
     68 H37         3.2918   -4.1902    9.9446 H         1 <0>         0.1078
     69 H38         2.9153   -0.5776    9.7340 H         1 <0>         0.4182
@<TRIPOS>BOND
     1    1    2 1
     2    1   35 1
     3    1   36 1
     4    1   37 1
     5    2    3 1
     6    2   38 1
     7    2   39 1
     8    3    4 1
     9    3    6 am
    10    4    5 1
    11    4   40 1
    12    4   41 1
    13    5   42 1
    14    5   43 1
    15    5   44 1
    16    6    7 2
    17    6    8 1
    18    8   13 ar
    19    8    9 ar
    20    9   10 ar
    21    9   45 1
    22   10   11 ar
    23   10   46 1
    24   11   12 ar
    25   11   14 1
    26   12   13 ar
    27   12   47 1
    28   13   48 1
    29   14   15 1
    30   14   16 1
    31   14   22 1
    32   16   21 ar
    33   16   17 ar
    34   17   18 ar
    35   17   49 1
    36   18   19 ar
    37   18   50 1
    38   19   20 ar
    39   19   51 1
    40   20   21 ar
    41   20   52 1
    42   21   53 1
    43   22   28 1
    44   22   23 1
    45   23   24 1
    46   23   54 1
    47   23   55 1
    48   24   25 1
    49   24   26 1
    50   24   34 1
    51   26   27 1
    52   26   31 1
    53   26   69 1
    54   27   28 1
    55   27   56 1
    56   27   57 1
    57   28   29 1
    58   28   30 1
    59   30   58 1
    60   30   59 1
    61   30   60 1
    62   31   32 1
    63   31   61 1
    64   31   62 1
    65   32   33 2
    66   32   63 1
    67   33   64 1
    68   33   65 1
    69   34   66 1
    70   34   67 1
    71   34   68 1
@<TRIPOS>MOLECULE
ZINC19365698
   69    71     0     0     0
SMALL
USER_CHARGES

@<TRIPOS>ATOM
      1 C1         -3.7959   -4.5389    0.0810 C.3       1 <0>        -0.1690
      2 C2         -3.1546   -3.1499    0.0952 C.3       1 <0>         0.1074
      3 N1         -2.1637   -3.0804    1.1720 N.am      1 <0>        -0.6022
      4 C3         -0.7947   -3.5472    0.9389 C.3       1 <0>         0.0928
      5 C4         -0.0240   -2.4908    0.1446 C.3       1 <0>        -0.1803
      6 C5         -2.5115   -2.5871    2.3770 C.2       1 <0>         0.5506
      7 O1         -3.6616   -2.2558    2.5892 O.2       1 <0>        -0.5213
      8 C6         -1.4942   -2.4490    3.4409 C.ar      1 <0>        -0.0973
      9 C7         -0.2346   -1.9269    3.1426 C.ar      1 <0>        -0.0882
     10 C8          0.7100   -1.8002    4.1401 C.ar      1 <0>        -0.1000
     11 C9          0.4111   -2.1897    5.4336 C.ar      1 <0>        -0.0977
     12 C10        -0.8354   -2.7084    5.7359 C.ar      1 <0>        -0.1230
     13 C11        -1.7912   -2.8346    4.7490 C.ar      1 <0>        -0.0538
     14 C12         1.4481   -2.0488    6.5180 C.3       1 <0>         0.1308
     15 H1          2.2620   -1.4169    6.1626 H         1 <0>         0.1507
     16 C13         1.9882   -3.4093    6.8764 C.ar      1 <0>        -0.1318
     17 C14         1.2676   -4.2404    7.7138 C.ar      1 <0>        -0.1232
     18 C15         1.7630   -5.4883    8.0425 C.ar      1 <0>        -0.1022
     19 C16         2.9787   -5.9054    7.5336 C.ar      1 <0>        -0.0911
     20 C17         3.6988   -5.0748    6.6955 C.ar      1 <0>        -0.1029
     21 C18         3.2014   -3.8285    6.3633 C.ar      1 <0>        -0.0846
     22 N2          0.8356   -1.4370    7.7048 N.4       1 <0>        -0.3822
     23 C19         1.7843   -1.4853    8.8251 C.3       1 <0>        -0.0049
     24 C20         1.1398   -0.8650   10.0667 C.3       1 <0>         0.0608
     25 H2          0.2486   -1.4321   10.3356 H         1 <0>         0.0638
     26 N3          0.7667    0.5270    9.7779 N.3       1 <0>        -0.5311
     27 C21        -0.1638    0.5931    8.6421 C.3       1 <0>         0.0330
     28 C22         0.4915   -0.0393    7.4123 C.3       1 <0>         0.0367
     29 H3          1.3968    0.5124    7.1589 H         1 <0>         0.1453
     30 C23        -0.4825    0.0101    6.2334 C.3       1 <0>        -0.1983
     31 C24         0.1950    1.1760   10.9653 C.3       1 <0>         0.0780
     32 C25         0.0534    2.6545   10.7104 C.2       1 <0>        -0.1651
     33 C26        -1.1105    3.2366   10.8610 C.2       1 <0>        -0.1713
     34 C27         2.1350   -0.8968   11.2283 C.3       1 <0>        -0.1518
     35 H4         -4.5331   -4.5906   -0.7202 H         1 <0>         0.0726
     36 H5         -3.0262   -5.2928   -0.0843 H         1 <0>         0.0568
     37 H6         -4.2852   -4.7229    1.0375 H         1 <0>         0.0588
     38 H7         -2.6652   -2.9659   -0.8613 H         1 <0>         0.0821
     39 H8         -3.9243   -2.3960    0.2605 H         1 <0>         0.0896
     40 H9         -0.3002   -3.7147    1.8957 H         1 <0>         0.0851
     41 H10        -0.8198   -4.4794    0.3747 H         1 <0>         0.0844
     42 H11         1.0412   -2.7199    0.1736 H         1 <0>         0.0749
     43 H12        -0.3678   -2.4916   -0.8898 H         1 <0>         0.0686
     44 H13        -0.1964   -1.5083    0.5840 H         1 <0>         0.0632
     45 H14         0.0002   -1.6231    2.1332 H         1 <0>         0.1540
     46 H15         1.6851   -1.3964    3.9106 H         1 <0>         0.1420
     47 H16        -1.0623   -3.0109    6.7475 H         1 <0>         0.1233
     48 H17        -2.7655   -3.2351    4.9872 H         1 <0>         0.1427
     49 H18         0.3179   -3.9145    8.1114 H         1 <0>         0.1142
     50 H19         1.2004   -6.1373    8.6973 H         1 <0>         0.1355
     51 H20         3.3660   -6.8802    7.7910 H         1 <0>         0.1362
     52 H21         4.6487   -5.4006    6.2981 H         1 <0>         0.1378
     53 H22         3.7622   -3.1810    5.7055 H         1 <0>         0.1339
     54 H23         2.0489   -2.5221    9.0327 H         1 <0>         0.1398
     55 H24         2.6830   -0.9263    8.5645 H         1 <0>         0.1398
     56 H25        -1.0764    0.0500    8.8876 H         1 <0>         0.0585
     57 H26        -0.4057    1.6346    8.4302 H         1 <0>         0.1262
     58 H27        -1.2575   -0.7439    6.3705 H         1 <0>         0.0838
     59 H28        -0.9413    0.9976    6.1822 H         1 <0>         0.1007
     60 H29         0.0574   -0.1880    5.3074 H         1 <0>         0.0992
     61 H30        -0.7850    0.7482   11.1767 H         1 <0>         0.0490
     62 H31         0.8533    1.0159   11.8192 H         1 <0>         0.1014
     63 H32         0.9114    3.2342   10.4036 H         1 <0>         0.1193
     64 H33        -1.2120    4.2961   10.6783 H         1 <0>         0.1068
     65 H34        -1.9685    2.6568   11.1678 H         1 <0>         0.0969
     66 H35         3.0257   -0.3289   10.9594 H         1 <0>         0.0789
     67 H36         1.6756   -0.4549   12.1125 H         1 <0>         0.0797
     68 H37         2.4127   -1.9292   11.4407 H         1 <0>         0.0753
     69 H38        -0.0010   -1.9446    7.9508 H         1 <0>         0.4123
@<TRIPOS>BOND
     1    1    2 1
     2    1   35 1
     3    1   36 1
     4    1   37 1
     5    2    3 1
     6    2   38 1
     7    2   39 1
     8    3    4 1
     9    3    6 am
    10    4    5 1
    11    4   40 1
    12    4   41 1
    13    5   42 1
    14    5   43 1
    15    5   44 1
    16    6    7 2
    17    6    8 1
    18    8   13 ar
    19    8    9 ar
    20    9   10 ar
    21    9   45 1
    22   10   11 ar
    23   10   46 1
    24   11   12 ar
    25   11   14 1
    26   12   13 ar
    27   12   47 1
    28   13   48 1
    29   14   15 1
    30   14   16 1
    31   14   22 1
    32   16   21 ar
    33   16   17 ar
    34   17   18 ar
    35   17   49 1
    36   18   19 ar
    37   18   50 1
    38   19   20 ar
    39   19   51 1
    40   20   21 ar
    41   20   52 1
    42   21   53 1
    43   22   28 1
    44   22   23 1
    45   22   69 1
    46   23   24 1
    47   23   54 1
    48   23   55 1
    49   24   25 1
    50   24   26 1
    51   24   34 1
    52   26   27 1
    53   26   31 1
    54   27   28 1
    55   27   56 1
    56   27   57 1
    57   28   29 1
    58   28   30 1
    59   30   58 1
    60   30   59 1
    61   30   60 1
    62   31   32 1
    63   31   61 1
    64   31   62 1
    65   32   33 2
    66   32   63 1
    67   33   64 1
    68   33   65 1
    69   34   66 1
    70   34   67 1
    71   34   68 1
@<TRIPOS>MOLECULE
ZINC19365698
   68    70     0     0     0
SMALL
USER_CHARGES

@<TRIPOS>ATOM
      1 C1          0.9023   -2.1882    3.3404 C.3       1 <0>        -0.1676
      2 C2          0.8628   -0.8357    2.6261 C.3       1 <0>         0.1090
      3 N1          1.2165   -1.0176    1.2162 N.am      1 <0>        -0.6080
      4 C3          0.1856   -1.3915    0.2447 C.3       1 <0>         0.0967
      5 C4         -0.6229   -0.1520   -0.1434 C.3       1 <0>        -0.1775
      6 C5          2.4903   -0.8410    0.8128 C.2       1 <0>         0.5599
      7 O1          3.3527   -0.5683    1.6248 O.2       1 <0>        -0.5323
      8 C6          2.8386   -0.9790   -0.6174 C.ar      1 <0>        -0.1308
      9 C7          2.0514   -0.3652   -1.5929 C.ar      1 <0>        -0.0983
     10 C8          2.3822   -0.4974   -2.9257 C.ar      1 <0>        -0.1266
     11 C9          3.4914   -1.2369   -3.2962 C.ar      1 <0>        -0.0352
     12 C10         4.2757   -1.8483   -2.3343 C.ar      1 <0>        -0.0943
     13 C11         3.9595   -1.7187   -0.9977 C.ar      1 <0>        -0.0697
     14 C12         3.8464   -1.3775   -4.7540 C.3       1 <0>         0.1637
     15 H1          3.3742   -0.5759   -5.3220 H         1 <0>         0.0623
     16 C13         3.3585   -2.7091   -5.2637 C.ar      1 <0>        -0.0812
     17 C14         3.9629   -3.8765   -4.8360 C.ar      1 <0>        -0.0940
     18 C15         3.5153   -5.0979   -5.3036 C.ar      1 <0>        -0.1224
     19 C16         2.4631   -5.1521   -6.1985 C.ar      1 <0>        -0.1160
     20 C17         1.8582   -3.9848   -6.6255 C.ar      1 <0>        -0.1189
     21 C18         2.3029   -2.7635   -6.1546 C.ar      1 <0>        -0.1111
     22 N2          5.3046   -1.2968   -4.9129 N.3       1 <0>        -0.5253
     23 C19         5.7305   -1.9033   -6.1819 C.3       1 <0>         0.0588
     24 C20         7.2580   -1.8706   -6.2725 C.3       1 <0>         0.0847
     25 H2          7.6833   -2.4541   -5.4560 H         1 <0>         0.0492
     26 N3          7.7222   -0.4797   -6.1749 N.3       1 <0>        -0.5330
     27 C21         7.2963    0.1268   -4.9059 C.3       1 <0>         0.0659
     28 C22         5.7688    0.0941   -4.8152 C.3       1 <0>         0.0885
     29 H3          5.3435    0.6776   -5.6317 H         1 <0>         0.0505
     30 C23         5.3241    0.6879   -3.4771 C.3       1 <0>        -0.1589
     31 C24         9.1804   -0.3990   -6.3337 C.3       1 <0>         0.0754
     32 C25         9.5913    1.0441   -6.4741 C.2       1 <0>        -0.1452
     33 C26        10.4893    1.5509   -5.6661 C.2       1 <0>        -0.1906
     34 C27         7.7027   -2.4649   -7.6104 C.3       1 <0>        -0.1490
     35 H4          1.9058   -2.6077    3.2688 H         1 <0>         0.0588
     36 H5          0.6392   -2.0528    4.3895 H         1 <0>         0.0676
     37 H6          0.1902   -2.8675    2.8719 H         1 <0>         0.0554
     38 H7         -0.1407   -0.4162    2.6978 H         1 <0>         0.0766
     39 H8          1.5749   -0.1564    3.0947 H         1 <0>         0.0865
     40 H9          0.6584   -1.8098   -0.6439 H         1 <0>         0.0898
     41 H10        -0.4781   -2.1344    0.6870 H         1 <0>         0.0780
     42 H11         0.0542    0.6854   -0.3122 H         1 <0>         0.0645
     43 H12        -1.1839   -0.3551   -1.0556 H         1 <0>         0.0717
     44 H13        -1.3151    0.0969    0.6610 H         1 <0>         0.0616
     45 H14         1.1849    0.2118   -1.3051 H         1 <0>         0.1377
     46 H15         1.7739   -0.0230   -3.6815 H         1 <0>         0.1253
     47 H16         5.1400   -2.4244   -2.6301 H         1 <0>         0.1350
     48 H17         4.5753   -2.1924   -0.2474 H         1 <0>         0.1273
     49 H18         4.7849   -3.8342   -4.1369 H         1 <0>         0.1273
     50 H19         3.9880   -6.0099   -4.9700 H         1 <0>         0.1221
     51 H20         2.1139   -6.1063   -6.5643 H         1 <0>         0.1212
     52 H21         1.0363   -4.0270   -7.3249 H         1 <0>         0.1222
     53 H22         1.8279   -1.8518   -6.4854 H         1 <0>         0.1195
     54 H23         5.3857   -2.9364   -6.2250 H         1 <0>         0.0911
     55 H24         5.3047   -1.3425   -7.0139 H         1 <0>         0.0428
     56 H25         7.7221   -0.4340   -4.0739 H         1 <0>         0.0422
     57 H26         7.6411    1.1599   -4.8628 H         1 <0>         0.0815
     58 H27         5.7505    0.1046   -2.6611 H         1 <0>         0.0664
     59 H28         5.6686    1.7195   -3.4050 H         1 <0>         0.0573
     60 H29         4.2363    0.6627   -3.4121 H         1 <0>         0.0713
     61 H30         9.6656   -0.8315   -5.4588 H         1 <0>         0.0380
     62 H31         9.4798   -0.9504   -7.2250 H         1 <0>         0.0893
     63 H32         9.1455    1.6604   -7.2408 H         1 <0>         0.1132
     64 H33        10.7838    2.5851   -5.7667 H         1 <0>         0.0995
     65 H34        10.9351    0.9346   -4.8994 H         1 <0>         0.0940
     66 H35         7.2779   -1.8807   -8.4267 H         1 <0>         0.0643
     67 H36         8.7906   -2.4415   -7.6747 H         1 <0>         0.0605
     68 H37         7.3566   -3.4960   -7.6829 H         1 <0>         0.0623
@<TRIPOS>BOND
     1    1    2 1
     2    1   35 1
     3    1   36 1
     4    1   37 1
     5    2    3 1
     6    2   38 1
     7    2   39 1
     8    3    4 1
     9    3    6 am
    10    4    5 1
    11    4   40 1
    12    4   41 1
    13    5   42 1
    14    5   43 1
    15    5   44 1
    16    6    7 2
    17    6    8 1
    18    8   13 ar
    19    8    9 ar
    20    9   10 ar
    21    9   45 1
    22   10   11 ar
    23   10   46 1
    24   11   12 ar
    25   11   14 1
    26   12   13 ar
    27   12   47 1
    28   13   48 1
    29   14   15 1
    30   14   16 1
    31   14   22 1
    32   16   21 ar
    33   16   17 ar
    34   17   18 ar
    35   17   49 1
    36   18   19 ar
    37   18   50 1
    38   19   20 ar
    39   19   51 1
    40   20   21 ar
    41   20   52 1
    42   21   53 1
    43   22   28 1
    44   22   23 1
    45   23   24 1
    46   23   54 1
    47   23   55 1
    48   24   25 1
    49   24   26 1
    50   24   34 1
    51   26   27 1
    52   26   31 1
    53   27   28 1
    54   27   56 1
    55   27   57 1
    56   28   29 1
    57   28   30 1
    58   30   58 1
    59   30   59 1
    60   30   60 1
    61   31   32 1
    62   31   61 1
    63   31   62 1
    64   32   33 2
    65   32   63 1
    66   33   64 1
    67   33   65 1
    68   34   66 1
    69   34   67 1
    70   34   68 1
@<TRIPOS>MOLECULE
ZINC13542109
   57    59     0     0     0
SMALL
USER_CHARGES

@<TRIPOS>ATOM
      1 C1         -0.0167    1.3781    0.0096 C.ar      1 <0>        -0.1334
      2 C2          1.1709    2.0855    0.0021 C.ar      1 <0>        -0.1196
      3 C3          2.3773    1.4107   -0.0130 C.ar      1 <0>        -0.1169
      4 C4          2.3960    0.0285   -0.0201 C.ar      1 <0>        -0.0641
      5 C5          1.2084   -0.6789   -0.0117 C.ar      1 <0>        -0.1163
      6 C6          0.0021   -0.0041    0.0020 C.ar      1 <0>        -0.1179
      7 C7          3.7112   -0.7071   -0.0376 C.3       1 <0>        -0.0773
      8 C8          4.1714   -0.9633    1.3989 C.3       1 <0>         0.0887
      9 H1          3.3868   -1.4885    1.9436 H         1 <0>         0.0808
     10 C9          5.4216   -1.8045    1.3834 C.2       1 <0>         0.4937
     11 O1          6.5163   -1.2690    1.3447 O.co2     1 <0>        -0.6906
     12 O2          5.3385   -3.0206    1.4096 O.co2     1 <0>        -0.6933
     13 N1          4.4511    0.3151    2.0574 N.am      1 <0>        -0.6918
     14 C10         4.3778    0.4121    3.3997 C.2       1 <0>         0.5061
     15 O3          4.0803   -0.5591    4.0624 O.2       1 <0>        -0.5287
     16 C11         4.6656    1.7271    4.0770 C.3       1 <0>         0.1230
     17 H2          3.9753    2.4892    3.7152 H         1 <0>         0.0940
     18 C12         6.1196    2.1578    3.7909 C.3       1 <0>        -0.1259
     19 C13         6.5707    2.7767    5.1403 C.3       1 <0>        -0.1292
     20 C14         5.8356    1.8706    6.1592 C.3       1 <0>         0.0969
     21 N2          4.5292    1.5798    5.5335 N.am      1 <0>        -0.6007
     22 C15         3.4008    1.2369    6.1860 C.2       1 <0>         0.5440
     23 O4          2.3825    1.0206    5.5639 O.2       1 <0>        -0.5107
     24 C16         3.4046    1.1224    7.6887 C.3       1 <0>         0.0923
     25 H3          4.0023    1.9292    8.1130 H         1 <0>         0.0994
     26 C17         4.0041   -0.2250    8.0959 C.3       1 <0>        -0.1129
     27 C18         4.1213   -0.2895    9.5970 C.ar      1 <0>        -0.0855
     28 C19         5.2730    0.1558   10.2191 C.ar      1 <0>        -0.0970
     29 C20         5.3831    0.0973   11.5949 C.ar      1 <0>        -0.1402
     30 C21         4.3366   -0.4084   12.3525 C.ar      1 <0>         0.0981
     31 C22         3.1819   -0.8542   11.7259 C.ar      1 <0>        -0.1394
     32 C23         3.0748   -0.7887   10.3501 C.ar      1 <0>        -0.1034
     33 O5          4.4427   -0.4674   13.7060 O.3       1 <0>        -0.5004
     34 N3          2.0272    1.2173    8.1904 N.3       1 <0>        -0.8266
     35 H4         -0.9591    1.9053    0.0259 H         1 <0>         0.1152
     36 H5          1.1563    3.1654    0.0076 H         1 <0>         0.1165
     37 H6          3.3051    1.9634   -0.0196 H         1 <0>         0.1167
     38 H7          1.2231   -1.7588   -0.0176 H         1 <0>         0.1215
     39 H8         -0.9258   -0.5567    0.0082 H         1 <0>         0.1172
     40 H9          3.5884   -1.6586   -0.5549 H         1 <0>         0.0859
     41 H10         4.4573   -0.1052   -0.5563 H         1 <0>         0.0753
     42 H11         4.6891    1.0919    1.5273 H         1 <0>         0.3879
     43 H12         6.7349    1.2943    3.5379 H         1 <0>         0.0934
     44 H13         6.1519    2.9021    2.9952 H         1 <0>         0.0897
     45 H14         7.6515    2.7042    5.2615 H         1 <0>         0.0879
     46 H15         6.2380    3.8112    5.2262 H         1 <0>         0.0778
     47 H16         6.3945    0.9486    6.3193 H         1 <0>         0.0721
     48 H17         5.6938    2.3979    7.1026 H         1 <0>         0.0775
     49 H18         3.3580   -1.0305    7.7470 H         1 <0>         0.0843
     50 H19         4.9926   -0.3328    7.6494 H         1 <0>         0.0869
     51 H20         6.0874    0.5494    9.6289 H         1 <0>         0.1287
     52 H21         6.2832    0.4446   12.0803 H         1 <0>         0.1289
     53 H22         2.3660   -1.2483   12.3134 H         1 <0>         0.1287
     54 H23         2.1743   -1.1316    9.8622 H         1 <0>         0.1261
     55 H24         4.1270    0.3258   14.1602 H         1 <0>         0.3891
     56 H25         1.4526    0.4796    7.8112 H         1 <0>         0.3525
     57 H26         2.0084    1.2079    9.1992 H         1 <0>         0.3449
@<TRIPOS>BOND
     1    1    6 ar
     2    1    2 ar
     3    1   35 1
     4    2    3 ar
     5    2   36 1
     6    3    4 ar
     7    3   37 1
     8    4    5 ar
     9    4    7 1
    10    5    6 ar
    11    5   38 1
    12    6   39 1
    13    7    8 1
    14    7   40 1
    15    7   41 1
    16    8    9 1
    17    8   10 1
    18    8   13 1
    19   10   11 2
    20   10   12 1
    21   13   14 am
    22   13   42 1
    23   14   15 2
    24   14   16 1
    25   16   17 1
    26   16   21 1
    27   16   18 1
    28   18   19 1
    29   18   43 1
    30   18   44 1
    31   19   20 1
    32   19   45 1
    33   19   46 1
    34   20   21 1
    35   20   47 1
    36   20   48 1
    37   21   22 am
    38   22   23 2
    39   22   24 1
    40   24   25 1
    41   24   26 1
    42   24   34 1
    43   26   27 1
    44   26   49 1
    45   26   50 1
    46   27   32 ar
    47   27   28 ar
    48   28   29 ar
    49   28   51 1
    50   29   30 ar
    51   29   52 1
    52   30   31 ar
    53   30   33 1
    54   31   32 ar
    55   31   53 1
    56   32   54 1
    57   33   55 1
    58   34   56 1
    59   34   57 1
@<TRIPOS>MOLECULE
ZINC01530967
   58    59     0     0     0
SMALL
USER_CHARGES
(4-dimethylamino-1-ethyl-2,2-diphenyl-pentyl) acetate
@<TRIPOS>ATOM
      1 C1         -2.0020    0.5958    2.9079 C.3       1 <0>        -0.1630
      2 C2         -1.8866   -0.7653    2.2187 C.3       1 <0>        -0.1850
      3 C3         -1.3204   -0.5773    0.8098 C.3       1 <0>         0.0843
      4 H1         -0.3567   -0.0715    0.8700 H         1 <0>         0.0836
      5 C4         -1.1386   -1.9440    0.1466 C.3       1 <0>         0.0233
      6 C5         -0.1932   -2.7995    0.9924 C.3       1 <0>        -0.1387
      7 C6          1.2091   -2.1882    0.9659 C.3       1 <0>         0.0196
      8 H2          1.5214   -2.0402   -0.0678 H         1 <0>         0.1400
      9 C7          2.1900   -3.1317    1.6649 C.3       1 <0>        -0.1776
     10 C8          1.1293   -1.0819    3.1182 C.3       1 <0>        -0.0610
     11 C9          2.3556   -0.0799    1.2866 C.3       1 <0>        -0.0484
     12 C10        -2.4754   -2.6311    0.0371 C.ar      1 <0>        -0.0815
     13 C11        -3.6358   -1.9336    0.3158 C.ar      1 <0>        -0.1151
     14 C12        -4.8624   -2.5625    0.2106 C.ar      1 <0>        -0.1149
     15 C13        -4.9277   -3.8917   -0.1631 C.ar      1 <0>        -0.1069
     16 C14        -3.7669   -4.5907   -0.4367 C.ar      1 <0>        -0.1131
     17 C15        -2.5407   -3.9603   -0.3366 C.ar      1 <0>        -0.1129
     18 C16        -0.5538   -1.7605   -1.2301 C.ar      1 <0>        -0.0914
     19 C17        -0.2827   -2.8631   -2.0185 C.ar      1 <0>        -0.1084
     20 C18         0.2492   -2.6946   -3.2832 C.ar      1 <0>        -0.1051
     21 C19         0.5198   -1.4239   -3.7555 C.ar      1 <0>        -0.1066
     22 C20         0.2536   -0.3215   -2.9651 C.ar      1 <0>        -0.1090
     23 C21        -0.2832   -0.4898   -1.7024 C.ar      1 <0>        -0.1317
     24 O1         -2.2395    0.2246    0.0219 O.3       1 <0>        -0.3186
     25 C22        -2.0647    1.5552    0.0492 C.2       1 <0>         0.4595
     26 O2         -1.1733    2.0340    0.7095 O.2       1 <0>        -0.5132
     27 C23        -2.9803    2.4518   -0.7438 C.3       1 <0>        -0.1555
     28 H3         -2.4053    0.4618    3.9116 H         1 <0>         0.0779
     29 H4         -1.0158    1.0558    2.9710 H         1 <0>         0.0586
     30 H5         -2.6669    1.2394    2.3320 H         1 <0>         0.0629
     31 H6         -1.2216   -1.4089    2.7946 H         1 <0>         0.0867
     32 H7         -2.8728   -1.2253    2.1556 H         1 <0>         0.1183
     33 H8         -0.5554   -2.8336    2.0199 H         1 <0>         0.1031
     34 H9         -0.1567   -3.8104    0.5863 H         1 <0>         0.1288
     35 H10         1.8777   -3.2797    2.6987 H         1 <0>         0.0847
     36 H11         2.2021   -4.0913    1.1480 H         1 <0>         0.1055
     37 H12         3.1890   -2.6962    1.6460 H         1 <0>         0.0829
     38 H13         2.0643   -1.5183    3.4696 H         1 <0>         0.1305
     39 H14         0.9741   -0.1175    3.6019 H         1 <0>         0.1226
     40 H15         0.3025   -1.7485    3.3632 H         1 <0>         0.1209
     41 H16         2.3399    0.1018    0.2120 H         1 <0>         0.1172
     42 H17         2.3187    0.8719    1.8166 H         1 <0>         0.1231
     43 H18         3.2711   -0.6085    1.5524 H         1 <0>         0.1256
     44 H19        -3.5845   -0.8963    0.6121 H         1 <0>         0.1443
     45 H20        -5.7693   -2.0165    0.4248 H         1 <0>         0.1270
     46 H21        -5.8857   -4.3843   -0.2409 H         1 <0>         0.1273
     47 H22        -3.8179   -5.6293   -0.7283 H         1 <0>         0.1278
     48 H23        -1.6338   -4.5065   -0.5500 H         1 <0>         0.1225
     49 H24        -0.4900   -3.8561   -1.6478 H         1 <0>         0.1297
     50 H25         0.4575   -3.5558   -3.9007 H         1 <0>         0.1318
     51 H26         0.9395   -1.2924   -4.7419 H         1 <0>         0.1308
     52 H27         0.4653    0.6712   -3.3339 H         1 <0>         0.1280
     53 H28        -0.4908    0.3714   -1.0847 H         1 <0>         0.1091
     54 H29        -3.7160    1.8447   -1.2713 H         1 <0>         0.0985
     55 H30        -3.4920    3.1373   -0.0684 H         1 <0>         0.1155
     56 H31        -2.3950    3.0219   -1.4654 H         1 <0>         0.1144
     57 N1          1.1691   -0.8809    1.6544 N.4       1 <0>        -0.4282
     58 H32         0.3232   -0.3767    1.3638 H         1 <0>         0.4196
@<TRIPOS>BOND
     1    1    2 1
     2    1   28 1
     3    1   29 1
     4    1   30 1
     5    2    3 1
     6    2   31 1
     7    2   32 1
     8    3    4 1
     9    3    5 1
    10    3   24 1
    11    5    6 1
    12    5   12 1
    13    5   18 1
    14    6    7 1
    15    6   33 1
    16    6   34 1
    17    7    8 1
    18    7    9 1
    19    7   57 1
    20    9   35 1
    21    9   36 1
    22    9   37 1
    23   10   38 1
    24   10   39 1
    25   10   40 1
    26   10   57 1
    27   11   41 1
    28   11   42 1
    29   11   43 1
    30   11   57 1
    31   12   17 ar
    32   12   13 ar
    33   13   14 ar
    34   13   44 1
    35   14   15 ar
    36   14   45 1
    37   15   16 ar
    38   15   46 1
    39   16   17 ar
    40   16   47 1
    41   17   48 1
    42   18   23 ar
    43   18   19 ar
    44   19   20 ar
    45   19   49 1
    46   20   21 ar
    47   20   50 1
    48   21   22 ar
    49   21   51 1
    50   22   23 ar
    51   22   52 1
    52   23   53 1
    53   24   25 1
    54   25   26 2
    55   25   27 1
    56   27   54 1
    57   27   55 1
    58   27   56 1
    59   57   58 1
@<TRIPOS>MOLECULE
ZINC02007678
   58    59     0     0     0
SMALL
USER_CHARGES
(4-dimethylamino-1-ethyl-2,2-diphenyl-pentyl) acetate
@<TRIPOS>ATOM
      1 C1         -0.5275   -0.1805   -0.2989 C.3       1 <0>        -0.1534
      2 C2         -0.0088    1.2405   -0.0696 C.3       1 <0>        -0.1605
      3 C3         -0.8450    1.9195    1.0169 C.3       1 <0>         0.1008
      4 H1         -0.8300    1.3104    1.9207 H         1 <0>         0.0991
      5 C4         -0.2603    3.3000    1.3224 C.3       1 <0>         0.0159
      6 C5          1.2215    3.1591    1.6766 C.3       1 <0>        -0.1348
      7 C6          1.8336    4.5478    1.8711 C.3       1 <0>         0.0334
      8 H2          2.9000    4.4497    2.0741 H         1 <0>         0.1306
      9 C7          1.6302    5.3772    0.6016 C.3       1 <0>        -0.2208
     10 C8          1.3947    4.4725    4.2511 C.3       1 <0>        -0.0502
     11 C9          1.6411    6.6056    3.1325 C.3       1 <0>        -0.0568
     12 C10        -0.4054    4.1861    0.1121 C.ar      1 <0>        -0.0721
     13 C11        -1.2457    5.2829    0.1553 C.ar      1 <0>        -0.1472
     14 C12        -1.3752    6.0984   -0.9533 C.ar      1 <0>        -0.1092
     15 C13        -0.6724    5.8112   -2.1085 C.ar      1 <0>        -0.1081
     16 C14         0.1638    4.7114   -2.1534 C.ar      1 <0>        -0.1089
     17 C15         0.2973    3.8988   -1.0431 C.ar      1 <0>        -0.1192
     18 C16        -0.9986    3.9122    2.4848 C.ar      1 <0>        -0.0700
     19 C17        -1.8036    3.1233    3.2851 C.ar      1 <0>        -0.1054
     20 C18        -2.4771    3.6841    4.3542 C.ar      1 <0>        -0.0644
     21 C19        -2.3538    5.0356    4.6167 C.ar      1 <0>        -0.1049
     22 C20        -1.5528    5.8255    3.8132 C.ar      1 <0>        -0.0951
     23 C21        -0.8753    5.2638    2.7473 C.ar      1 <0>        -0.2341
     24 O1         -2.2135    2.0652    0.5541 O.3       1 <0>        -0.3389
     25 C22        -3.0578    1.0563    0.8209 C.2       1 <0>         0.4584
     26 O2         -2.6662    0.0837    1.4213 O.2       1 <0>        -0.5030
     27 C23        -4.4940    1.1368    0.3716 C.3       1 <0>        -0.1521
     28 H3         -1.5699   -0.1402   -0.6148 H         1 <0>         0.0521
     29 H4          0.0683   -0.6643   -1.0730 H         1 <0>         0.0635
     30 H5         -0.4504   -0.7494    0.6276 H         1 <0>         0.0653
     31 H6          1.0337    1.2001    0.2463 H         1 <0>         0.0856
     32 H7         -0.0859    1.8094   -0.9961 H         1 <0>         0.0929
     33 H8          1.3219    2.5855    2.5980 H         1 <0>         0.0989
     34 H9          1.7407    2.6431    0.8689 H         1 <0>         0.1233
     35 H10         2.2896    6.2448    0.6249 H         1 <0>         0.0756
     36 H11         1.8626    4.7677   -0.2717 H         1 <0>         0.1140
     37 H12         0.5937    5.7099    0.5471 H         1 <0>         0.1001
     38 H13         2.4581    4.4636    4.4900 H         1 <0>         0.1139
     39 H14         0.8445    4.9526    5.0604 H         1 <0>         0.1119
     40 H15         1.0412    3.4486    4.1289 H         1 <0>         0.1102
     41 H16         1.4062    7.1531    2.2196 H         1 <0>         0.1141
     42 H17         1.1409    7.0777    3.9781 H         1 <0>         0.1151
     43 H18         2.7187    6.6164    3.2955 H         1 <0>         0.1184
     44 H19        -1.7982    5.5047    1.0564 H         1 <0>         0.1348
     45 H20        -2.0288    6.9575   -0.9183 H         1 <0>         0.1287
     46 H21        -0.7770    6.4459   -2.9760 H         1 <0>         0.1295
     47 H22         0.7126    4.4868   -3.0560 H         1 <0>         0.1313
     48 H23         0.9504    3.0394   -1.0783 H         1 <0>         0.1364
     49 H24        -1.9035    2.0682    3.0773 H         1 <0>         0.1415
     50 H25        -3.1031    3.0670    4.9817 H         1 <0>         0.1466
     51 H26        -2.8834    5.4746    5.4493 H         1 <0>         0.1481
     52 H27        -1.4568    6.8816    4.0181 H         1 <0>         0.1498
     53 H28        -0.2498    5.8810    2.1193 H         1 <0>         0.1911
     54 H29        -4.5869    0.7089   -0.6266 H         1 <0>         0.1088
     55 H30        -5.1235    0.5800    1.0657 H         1 <0>         0.1074
     56 H31        -4.8103    2.1797    0.3508 H         1 <0>         0.0939
     57 N1          1.1510    5.2177    2.9981 N.4       1 <0>        -0.4582
     58 H32         0.1413    5.2370    2.8126 H         1 <0>         0.4263
@<TRIPOS>BOND
     1    1    2 1
     2    1   28 1
     3    1   29 1
     4    1   30 1
     5    2    3 1
     6    2   31 1
     7    2   32 1
     8    3    4 1
     9    3    5 1
    10    3   24 1
    11    5    6 1
    12    5   12 1
    13    5   18 1
    14    6    7 1
    15    6   33 1
    16    6   34 1
    17    7    8 1
    18    7    9 1
    19    7   57 1
    20    9   35 1
    21    9   36 1
    22    9   37 1
    23   10   38 1
    24   10   39 1
    25   10   40 1
    26   10   57 1
    27   11   41 1
    28   11   42 1
    29   11   43 1
    30   11   57 1
    31   12   17 ar
    32   12   13 ar
    33   13   14 ar
    34   13   44 1
    35   14   15 ar
    36   14   45 1
    37   15   16 ar
    38   15   46 1
    39   16   17 ar
    40   16   47 1
    41   17   48 1
    42   18   23 ar
    43   18   19 ar
    44   19   20 ar
    45   19   49 1
    46   20   21 ar
    47   20   50 1
    48   21   22 ar
    49   21   51 1
    50   22   23 ar
    51   22   52 1
    52   23   53 1
    53   24   25 1
    54   25   26 2
    55   25   27 1
    56   27   54 1
    57   27   55 1
    58   27   56 1
    59   57   58 1
@<TRIPOS>MOLECULE
ZINC02007680
   58    59     0     0     0
SMALL
USER_CHARGES
(4-dimethylamino-1-ethyl-2,2-diphenyl-pentyl) acetate
@<TRIPOS>ATOM
      1 C1         -4.9455    1.4173   -0.3557 C.3       1 <0>        -0.1575
      2 C2         -3.5897    2.0471   -0.6816 C.3       1 <0>        -0.1566
      3 C3         -3.2497    3.1006    0.3745 C.3       1 <0>         0.0889
      4 H1         -4.0096    3.8820    0.3661 H         1 <0>         0.0932
      5 C4         -1.8836    3.7142    0.0614 C.3       1 <0>         0.0455
      6 C5         -1.8791    4.2432   -1.3743 C.3       1 <0>        -0.1350
      7 C6         -3.0819    5.1657   -1.5816 C.3       1 <0>         0.0182
      8 H2         -3.9862    4.6680   -1.2315 H         1 <0>         0.1401
      9 C7         -2.8741    6.4599   -0.7925 C.3       1 <0>        -0.2025
     10 C8         -3.5994    4.2867   -3.7776 C.3       1 <0>        -0.0511
     11 C9         -4.1788    6.5707   -3.2205 C.3       1 <0>        -0.0502
     12 C10        -0.8142    2.6633    0.2129 C.ar      1 <0>        -0.0822
     13 C11        -1.1393    1.4117    0.7016 C.ar      1 <0>        -0.1092
     14 C12        -0.1575    0.4493    0.8450 C.ar      1 <0>        -0.1178
     15 C13         1.1475    0.7350    0.4899 C.ar      1 <0>        -0.1093
     16 C14         1.4717    1.9848   -0.0038 C.ar      1 <0>        -0.1179
     17 C15         0.4909    2.9490   -0.1423 C.ar      1 <0>        -0.1152
     18 C16        -1.6118    4.8486    1.0155 C.ar      1 <0>        -0.0771
     19 C17        -2.4827    5.0970    2.0599 C.ar      1 <0>        -0.1207
     20 C18        -2.2309    6.1346    2.9380 C.ar      1 <0>        -0.1102
     21 C19        -1.1137    6.9302    2.7655 C.ar      1 <0>        -0.1110
     22 C20        -0.2456    6.6851    1.7180 C.ar      1 <0>        -0.1101
     23 C21        -0.4947    5.6443    0.8430 C.ar      1 <0>        -0.1184
     24 O1         -3.2112    2.4771    1.6853 O.3       1 <0>        -0.3322
     25 C22        -4.3596    2.4467    2.3796 C.2       1 <0>         0.4557
     26 O2         -5.3637    2.9252    1.9078 O.2       1 <0>        -0.5055
     27 C23        -4.3965    1.8157    3.7477 C.3       1 <0>        -0.1555
     28 H3         -4.8980    0.9384    0.6223 H         1 <0>         0.0548
     29 H4         -5.7125    2.1918   -0.3442 H         1 <0>         0.0655
     30 H5         -5.1920    0.6732   -1.1131 H         1 <0>         0.0641
     31 H6         -3.6346    2.5182   -1.6635 H         1 <0>         0.0710
     32 H7         -2.8213    1.2740   -0.6842 H         1 <0>         0.0946
     33 H8         -0.9592    4.7997   -1.5536 H         1 <0>         0.1036
     34 H9         -1.9389    3.4063   -2.0700 H         1 <0>         0.1001
     35 H10        -2.9879    6.2583    0.2727 H         1 <0>         0.1170
     36 H11        -1.8728    6.8456   -0.9842 H         1 <0>         0.0863
     37 H12        -3.6135    7.1979   -1.1036 H         1 <0>         0.0837
     38 H13        -4.5480    3.9020   -3.4031 H         1 <0>         0.1241
     39 H14        -3.7040    4.5498   -4.8301 H         1 <0>         0.1269
     40 H15        -2.8293    3.5230   -3.6688 H         1 <0>         0.1221
     41 H16        -3.8354    7.4632   -2.6975 H         1 <0>         0.1271
     42 H17        -4.2601    6.7828   -4.2865 H         1 <0>         0.1245
     43 H18        -5.1540    6.2753   -2.8334 H         1 <0>         0.1235
     44 H19        -2.1598    1.1871    0.9748 H         1 <0>         0.1487
     45 H20        -0.4108   -0.5273    1.2304 H         1 <0>         0.1251
     46 H21         1.9138   -0.0184    0.5977 H         1 <0>         0.1249
     47 H22         2.4913    2.2079   -0.2816 H         1 <0>         0.1245
     48 H23         0.7441    3.9253   -0.5283 H         1 <0>         0.1186
     49 H24        -3.3579    4.4782    2.1920 H         1 <0>         0.1194
     50 H25        -2.9093    6.3263    3.7561 H         1 <0>         0.1263
     51 H26        -0.9193    7.7436    3.4489 H         1 <0>         0.1275
     52 H27         0.6270    7.3069    1.5831 H         1 <0>         0.1272
     53 H28         0.1834    5.4530    0.0245 H         1 <0>         0.1234
     54 H29        -3.4047    1.4420    4.0023 H         1 <0>         0.0943
     55 H30        -4.7042    2.5594    4.4826 H         1 <0>         0.1099
     56 H31        -5.1072    0.9892    3.7475 H         1 <0>         0.1102
     57 N1         -3.1921    5.4886   -3.0198 N.4       1 <0>        -0.3942
     58 H32        -2.2768    5.8042   -3.3618 H         1 <0>         0.4289
@<TRIPOS>BOND
     1    1    2 1
     2    1   28 1
     3    1   29 1
     4    1   30 1
     5    2    3 1
     6    2   31 1
     7    2   32 1
     8    3    4 1
     9    3    5 1
    10    3   24 1
    11    5    6 1
    12    5   12 1
    13    5   18 1
    14    6    7 1
    15    6   33 1
    16    6   34 1
    17    7    8 1
    18    7    9 1
    19    7   57 1
    20    9   35 1
    21    9   36 1
    22    9   37 1
    23   10   38 1
    24   10   39 1
    25   10   40 1
    26   10   57 1
    27   11   41 1
    28   11   42 1
    29   11   43 1
    30   11   57 1
    31   12   17 ar
    32   12   13 ar
    33   13   14 ar
    34   13   44 1
    35   14   15 ar
    36   14   45 1
    37   15   16 ar
    38   15   46 1
    39   16   17 ar
    40   16   47 1
    41   17   48 1
    42   18   23 ar
    43   18   19 ar
    44   19   20 ar
    45   19   49 1
    46   20   21 ar
    47   20   50 1
    48   21   22 ar
    49   21   51 1
    50   22   23 ar
    51   22   52 1
    52   23   53 1
    53   24   25 1
    54   25   26 2
    55   25   27 1
    56   27   54 1
    57   27   55 1
    58   27   56 1
    59   57   58 1
@<TRIPOS>MOLECULE
ZINC02007682
   58    59     0     0     0
SMALL
USER_CHARGES
(4-dimethylamino-1-ethyl-2,2-diphenyl-pentyl) acetate
@<TRIPOS>ATOM
      1 C1          5.0561    3.6702   -0.8896 C.3       1 <0>        -0.1552
      2 C2          3.7278    2.9162   -0.9789 C.3       1 <0>        -0.1593
      3 C3          3.5798    1.9981    0.2361 C.3       1 <0>         0.0899
      4 H1          4.4361    1.3259    0.2899 H         1 <0>         0.0857
      5 C4          2.2952    1.1780    0.1021 C.3       1 <0>         0.0229
      6 C5          2.3173    0.4079   -1.2198 C.3       1 <0>        -0.1353
      7 C6          3.5980   -0.4250   -1.3035 C.3       1 <0>         0.0177
      8 H2          4.4611    0.2172   -1.1282 H         1 <0>         0.1356
      9 C7          3.7059   -1.0564   -2.6929 C.3       1 <0>        -0.1794
     10 C8          2.4945   -2.4527   -0.5731 C.3       1 <0>        -0.0570
     11 C9          4.8639   -2.1529   -0.1745 C.3       1 <0>        -0.0501
     12 C10         1.1047    2.1017    0.1254 C.ar      1 <0>        -0.0814
     13 C11        -0.1600    1.6058   -0.1302 C.ar      1 <0>        -0.1173
     14 C12        -1.2514    2.4542   -0.1140 C.ar      1 <0>        -0.1162
     15 C13        -1.0792    3.7966    0.1674 C.ar      1 <0>        -0.1069
     16 C14         0.1855    4.2923    0.4239 C.ar      1 <0>        -0.1161
     17 C15         1.2774    3.4449    0.4030 C.ar      1 <0>        -0.1071
     18 C16         2.1985    0.2049    1.2488 C.ar      1 <0>        -0.1163
     19 C17         1.1110   -0.6428    1.3461 C.ar      1 <0>        -0.1251
     20 C18         1.0247   -1.5387    2.3953 C.ar      1 <0>        -0.1068
     21 C19         2.0208   -1.5796    3.3529 C.ar      1 <0>        -0.1025
     22 C20         3.1058   -0.7283    3.2584 C.ar      1 <0>        -0.1093
     23 C21         3.1946    0.1640    2.2063 C.ar      1 <0>        -0.1385
     24 O1          3.5178    2.8007    1.4445 O.3       1 <0>        -0.3338
     25 C22         4.6821    3.0784    2.0520 C.2       1 <0>         0.4545
     26 O2          5.7187    2.6646    1.5893 O.2       1 <0>        -0.5043
     27 C23         4.6964    3.9064    3.3111 C.3       1 <0>        -0.1553
     28 H3          5.8790    2.9556   -0.8718 H         1 <0>         0.0631
     29 H4          5.1615    4.3243   -1.7551 H         1 <0>         0.0661
     30 H5          5.0741    4.2679    0.0218 H         1 <0>         0.0534
     31 H6          3.7098    2.3186   -1.8903 H         1 <0>         0.0842
     32 H7          2.9049    3.6308   -0.9967 H         1 <0>         0.0961
     33 H8          1.4510   -0.2517   -1.2706 H         1 <0>         0.1021
     34 H9          2.2870    1.1122   -2.0512 H         1 <0>         0.1274
     35 H10         2.8428   -1.6986   -2.8682 H         1 <0>         0.0851
     36 H11         3.7335   -0.2707   -3.4479 H         1 <0>         0.1066
     37 H12         4.6183   -1.6498   -2.7525 H         1 <0>         0.0843
     38 H13         2.6713   -2.9096   -1.5467 H         1 <0>         0.1291
     39 H14         2.4892   -3.2256    0.1955 H         1 <0>         0.1211
     40 H15         1.5318   -1.9416   -0.5810 H         1 <0>         0.1188
     41 H16         5.6236   -1.4239    0.1074 H         1 <0>         0.1182
     42 H17         4.8084   -2.9322    0.5856 H         1 <0>         0.1215
     43 H18         5.1265   -2.5990   -1.1337 H         1 <0>         0.1260
     44 H19        -0.2950    0.5565   -0.3470 H         1 <0>         0.1176
     45 H20        -2.2389    2.0676   -0.3181 H         1 <0>         0.1261
     46 H21        -1.9322    4.4587    0.1834 H         1 <0>         0.1265
     47 H22         0.3205    5.3417    0.6404 H         1 <0>         0.1266
     48 H23         2.2655    3.8322    0.6031 H         1 <0>         0.1493
     49 H24         0.3306   -0.6078    0.6003 H         1 <0>         0.1410
     50 H25         0.1769   -2.2036    2.4693 H         1 <0>         0.1406
     51 H26         1.9512   -2.2765    4.1750 H         1 <0>         0.1395
     52 H27         3.8838   -0.7600    4.0067 H         1 <0>         0.1389
     53 H28         4.0421    0.8294    2.1327 H         1 <0>         0.1315
     54 H29         4.6099    3.2511    4.1778 H         1 <0>         0.1083
     55 H30         5.6313    4.4638    3.3689 H         1 <0>         0.1093
     56 H31         3.8582    4.6031    3.2973 H         1 <0>         0.0981
     57 N1          3.5550   -1.4716   -0.2607 N.4       1 <0>        -0.4089
     58 H32         3.3473   -1.0327    0.6440 H         1 <0>         0.4193
@<TRIPOS>BOND
     1    1    2 1
     2    1   28 1
     3    1   29 1
     4    1   30 1
     5    2    3 1
     6    2   31 1
     7    2   32 1
     8    3    4 1
     9    3    5 1
    10    3   24 1
    11    5    6 1
    12    5   12 1
    13    5   18 1
    14    6    7 1
    15    6   33 1
    16    6   34 1
    17    7    8 1
    18    7    9 1
    19    7   57 1
    20    9   35 1
    21    9   36 1
    22    9   37 1
    23   10   38 1
    24   10   39 1
    25   10   40 1
    26   10   57 1
    27   11   41 1
    28   11   42 1
    29   11   43 1
    30   11   57 1
    31   12   17 ar
    32   12   13 ar
    33   13   14 ar
    34   13   44 1
    35   14   15 ar
    36   14   45 1
    37   15   16 ar
    38   15   46 1
    39   16   17 ar
    40   16   47 1
    41   17   48 1
    42   18   23 ar
    43   18   19 ar
    44   19   20 ar
    45   19   49 1
    46   20   21 ar
    47   20   50 1
    48   21   22 ar
    49   21   51 1
    50   22   23 ar
    51   22   52 1
    52   23   53 1
    53   24   25 1
    54   25   26 2
    55   25   27 1
    56   27   54 1
    57   27   55 1
    58   27   56 1
    59   57   58 1
@<TRIPOS>MOLECULE
ZINC53259691
   78    81     0     0     0
SMALL
USER_CHARGES

@<TRIPOS>ATOM
      1 C1          5.1265    3.9091   -0.8486 C.ar      1 <0>        -0.1214
      2 C2          5.4226    2.7813   -1.5911 C.ar      1 <0>        -0.1169
      3 C3          4.7570    1.5956   -1.3422 C.ar      1 <0>        -0.1037
      4 C4          3.7957    1.5375   -0.3505 C.ar      1 <0>        -0.0814
      5 C5          3.5003    2.6651    0.3925 C.ar      1 <0>        -0.1030
      6 C6          4.1649    3.8512    0.1427 C.ar      1 <0>        -0.1223
      7 C7          3.0695    0.2451   -0.0799 C.3       1 <0>        -0.0876
      8 C8          3.8138   -0.5414    1.0010 C.3       1 <0>         0.1440
      9 H1          3.2805   -1.4694    1.2072 H         1 <0>         0.1107
     10 C9          5.2070   -0.8585    0.5219 C.2       1 <0>         0.5410
     11 O1          6.1403   -0.1673    0.8711 O.2       1 <0>        -0.5110
     12 N1          5.4157   -1.9103   -0.2946 N.am      1 <0>        -0.5987
     13 C10         4.3670   -2.7659   -0.8789 C.3       1 <0>         0.0919
     14 C11         5.0105   -3.3680   -2.1529 C.3       1 <0>        -0.1285
     15 C12         6.4726   -3.5949   -1.6857 C.3       1 <0>        -0.1244
     16 C13         6.7268   -2.3906   -0.7550 C.3       1 <0>         0.1218
     17 H2          7.2404   -1.5995   -1.3013 H         1 <0>         0.1007
     18 C14         7.5571   -2.8247    0.4253 C.2       1 <0>         0.4966
     19 O2          7.1045   -2.7439    1.5476 O.2       1 <0>        -0.5435
     20 N2          8.8026   -3.3026    0.2337 N.am      1 <0>        -0.6969
     21 C15         9.6098   -3.7246    1.3812 C.3       1 <0>         0.0539
     22 C16        10.9507   -4.2149    0.8989 C.2       1 <0>         0.4910
     23 O3         11.2083   -4.2120   -0.2928 O.co2     1 <0>        -0.6919
     24 O4         11.7781   -4.6143    1.7005 O.co2     1 <0>        -0.6888
     25 N3          3.8888    0.2609    2.2244 N.am      1 <0>        -0.7031
     26 C17         2.8797    0.2246    3.1171 C.2       1 <0>         0.5182
     27 O5          1.9524   -0.5396    2.9532 O.2       1 <0>        -0.5276
     28 C18         2.9036    1.1337    4.3187 C.3       1 <0>         0.1235
     29 H3          3.3930    2.0734    4.0628 H         1 <0>         0.0971
     30 C19         3.6558    0.4495    5.4796 C.3       1 <0>        -0.1234
     31 C20         2.8301    0.8696    6.7242 C.3       1 <0>        -0.1297
     32 C21         1.3898    0.8772    6.1538 C.3       1 <0>         0.0967
     33 N4          1.5309    1.3934    4.7767 N.am      1 <0>        -0.5998
     34 C22         0.5651    2.0005    4.0590 C.2       1 <0>         0.5435
     35 O6          0.7685    2.3030    2.9023 O.2       1 <0>        -0.5159
     36 C23        -0.7676    2.3036    4.6939 C.3       1 <0>         0.0911
     37 H4         -1.0659    1.4691    5.3286 H         1 <0>         0.1027
     38 C24        -0.6523    3.5726    5.5408 C.3       1 <0>        -0.1124
     39 C25        -1.9486    3.8076    6.2727 C.ar      1 <0>        -0.0927
     40 C26        -2.9465    4.5620    5.6839 C.ar      1 <0>        -0.1027
     41 C27        -4.1355    4.7793    6.3529 C.ar      1 <0>        -0.1393
     42 C28        -4.3279    4.2394    7.6163 C.ar      1 <0>         0.1033
     43 C29        -3.3252    3.4824    8.2047 C.ar      1 <0>        -0.1398
     44 C30        -2.1400    3.2637    7.5293 C.ar      1 <0>        -0.0962
     45 O7         -5.4965    4.4521    8.2767 O.3       1 <0>        -0.5003
     46 N5         -1.7755    2.5052    3.6444 N.3       1 <0>        -0.8237
     47 H5          5.6497    4.8343   -1.0401 H         1 <0>         0.1171
     48 H6          6.1736    2.8266   -2.3659 H         1 <0>         0.1183
     49 H7          4.9878    0.7146   -1.9228 H         1 <0>         0.1140
     50 H8          2.7490    2.6199    1.1671 H         1 <0>         0.1255
     51 H9          3.9338    4.7323    0.7230 H         1 <0>         0.1165
     52 H10         2.0570    0.4618    0.2607 H         1 <0>         0.0922
     53 H11         3.0264   -0.3459   -0.9947 H         1 <0>         0.0840
     54 H12         4.0917   -3.5578   -0.1824 H         1 <0>         0.0731
     55 H13         3.4931   -2.1694   -1.1410 H         1 <0>         0.0809
     56 H14         4.5355   -4.3114   -2.4220 H         1 <0>         0.0892
     57 H15         4.9705   -2.6616   -2.9820 H         1 <0>         0.0806
     58 H16         6.5617   -4.5343   -1.1400 H         1 <0>         0.0847
     59 H17         7.1562   -3.5745   -2.5345 H         1 <0>         0.0956
     60 H18         9.1646   -3.3672   -0.6639 H         1 <0>         0.4066
     61 H19         9.7526   -2.8800    2.0552 H         1 <0>         0.0640
     62 H20         9.0976   -4.5287    1.9097 H         1 <0>         0.0634
     63 H21         4.6648    0.8182    2.3921 H         1 <0>         0.4103
     64 H22         3.6476   -0.6338    5.3591 H         1 <0>         0.0858
     65 H23         4.6774    0.8229    5.5505 H         1 <0>         0.0960
     66 H24         2.9294    0.1365    7.5247 H         1 <0>         0.0917
     67 H25         3.1194    1.8627    7.0680 H         1 <0>         0.0816
     68 H26         0.9813   -0.1333    6.1415 H         1 <0>         0.0764
     69 H27         0.7525    1.5378    6.7417 H         1 <0>         0.0800
     70 H28         0.1563    3.4557    6.2623 H         1 <0>         0.0848
     71 H29        -0.4412    4.4236    4.8932 H         1 <0>         0.0818
     72 H30        -2.7963    4.9821    4.7004 H         1 <0>         0.1258
     73 H31        -4.9145    5.3693    5.8930 H         1 <0>         0.1299
     74 H32        -3.4725    3.0611    9.1881 H         1 <0>         0.1302
     75 H33        -1.3608    2.6708    7.9851 H         1 <0>         0.1282
     76 H34        -6.1731    3.7832    8.1041 H         1 <0>         0.3918
     77 H35        -2.6910    2.6462    4.0445 H         1 <0>         0.3481
     78 H36        -1.5217    3.2740    3.0422 H         1 <0>         0.3510
@<TRIPOS>BOND
     1    1    6 ar
     2    1    2 ar
     3    1   47 1
     4    2    3 ar
     5    2   48 1
     6    3    4 ar
     7    3   49 1
     8    4    5 ar
     9    4    7 1
    10    5    6 ar
    11    5   50 1
    12    6   51 1
    13    7    8 1
    14    7   52 1
    15    7   53 1
    16    8    9 1
    17    8   10 1
    18    8   25 1
    19   10   11 2
    20   10   12 am
    21   12   16 1
    22   12   13 1
    23   13   14 1
    24   13   54 1
    25   13   55 1
    26   14   15 1
    27   14   56 1
    28   14   57 1
    29   15   16 1
    30   15   58 1
    31   15   59 1
    32   16   17 1
    33   16   18 1
    34   18   19 2
    35   18   20 am
    36   20   21 1
    37   20   60 1
    38   21   22 1
    39   21   61 1
    40   21   62 1
    41   22   23 2
    42   22   24 1
    43   25   26 am
    44   25   63 1
    45   26   27 2
    46   26   28 1
    47   28   29 1
    48   28   33 1
    49   28   30 1
    50   30   31 1
    51   30   64 1
    52   30   65 1
    53   31   32 1
    54   31   66 1
    55   31   67 1
    56   32   33 1
    57   32   68 1
    58   32   69 1
    59   33   34 am
    60   34   35 2
    61   34   36 1
    62   36   37 1
    63   36   38 1
    64   36   46 1
    65   38   39 1
    66   38   70 1
    67   38   71 1
    68   39   44 ar
    69   39   40 ar
    70   40   41 ar
    71   40   72 1
    72   41   42 ar
    73   41   73 1
    74   42   43 ar
    75   42   45 1
    76   43   44 ar
    77   43   74 1
    78   44   75 1
    79   45   76 1
    80   46   77 1
    81   46   78 1
@<TRIPOS>MOLECULE
ZINC53259697
   78    81     0     0     0
SMALL
USER_CHARGES

@<TRIPOS>ATOM
      1 C1         -0.0167    1.3781    0.0096 C.ar      1 <0>        -0.1205
      2 C2          1.1709    2.0855    0.0021 C.ar      1 <0>        -0.1105
      3 C3          2.3773    1.4107   -0.0130 C.ar      1 <0>        -0.1042
      4 C4          2.3960    0.0285   -0.0201 C.ar      1 <0>        -0.0577
      5 C5          1.2084   -0.6789   -0.0117 C.ar      1 <0>        -0.1082
      6 C6          0.0021   -0.0041    0.0020 C.ar      1 <0>        -0.1121
      7 C7          3.7112   -0.7071   -0.0376 C.3       1 <0>        -0.0964
      8 C8          4.1714   -0.9633    1.3989 C.3       1 <0>         0.1494
      9 H1          4.2087   -0.0191    1.9423 H         1 <0>         0.1113
     10 C9          5.5425   -1.5884    1.3832 C.2       1 <0>         0.5350
     11 O1          5.7154   -2.6833    1.8752 O.2       1 <0>        -0.5157
     12 N1          6.5766   -0.9306    0.8225 N.am      1 <0>        -0.5961
     13 C10         6.5092    0.4028    0.1973 C.3       1 <0>         0.0932
     14 C11         7.9537    0.9555    0.2854 C.3       1 <0>        -0.1304
     15 C12         8.7932   -0.3261    0.0403 C.3       1 <0>        -0.1240
     16 C13         7.9600   -1.4213    0.7386 C.3       1 <0>         0.1200
     17 H2          8.3498   -1.6043    1.7399 H         1 <0>         0.1013
     18 C14         8.0052   -2.6909   -0.0720 C.2       1 <0>         0.4971
     19 O2          6.9839   -3.1490   -0.5388 O.2       1 <0>        -0.5420
     20 N2          9.1806   -3.3172   -0.2783 N.am      1 <0>        -0.6971
     21 C15         9.2246   -4.5515   -1.0663 C.3       1 <0>         0.0539
     22 C16        10.6459   -5.0460   -1.1463 C.2       1 <0>         0.4907
     23 O3         11.5393   -4.4251   -0.5961 O.co2     1 <0>        -0.6920
     24 O4         10.9023   -6.0671   -1.7613 O.co2     1 <0>        -0.6889
     25 N3          3.2289   -1.8699    2.0593 N.am      1 <0>        -0.7139
     26 C17         2.1163   -1.3790    2.6404 C.2       1 <0>         0.5088
     27 O5          1.8954   -0.1867    2.6165 O.2       1 <0>        -0.4952
     28 C18         1.1468   -2.3115    3.3197 C.3       1 <0>         0.1235
     29 H3          1.6516   -2.8515    4.1208 H         1 <0>         0.0992
     30 C19         0.5733   -3.3111    2.2932 C.3       1 <0>        -0.1295
     31 C20        -0.9099   -3.4439    2.7289 C.3       1 <0>        -0.1301
     32 C21        -1.2235   -2.0045    3.2080 C.3       1 <0>         0.0966
     33 N4          0.0170   -1.5463    3.8670 N.am      1 <0>        -0.5993
     34 C22         0.1011   -0.5883    4.8112 C.2       1 <0>         0.5475
     35 O6          1.1792   -0.2945    5.2826 O.2       1 <0>        -0.5105
     36 C23        -1.1445    0.1179    5.2812 C.3       1 <0>         0.0934
     37 H4         -1.7959    0.3114    4.4289 H         1 <0>         0.1009
     38 C24        -1.8784   -0.7628    6.2944 C.3       1 <0>        -0.1143
     39 C25        -3.1845   -0.1127    6.6719 C.ar      1 <0>        -0.0916
     40 C26        -3.2353    0.7661    7.7382 C.ar      1 <0>        -0.1027
     41 C27        -4.4314    1.3630    8.0865 C.ar      1 <0>        -0.1391
     42 C28        -5.5823    1.0804    7.3651 C.ar      1 <0>         0.1028
     43 C29        -5.5286    0.1987    6.2954 C.ar      1 <0>        -0.1399
     44 C30        -4.3289   -0.3916    5.9479 C.ar      1 <0>        -0.0966
     45 O7         -6.7603    1.6660    7.7061 O.3       1 <0>        -0.5003
     46 N5         -0.7761    1.3908    5.9150 N.3       1 <0>        -0.8226
     47 H5         -0.9591    1.9053    0.0259 H         1 <0>         0.1121
     48 H6          1.1563    3.1654    0.0076 H         1 <0>         0.1145
     49 H7          3.3051    1.9634   -0.0196 H         1 <0>         0.1142
     50 H8          1.2231   -1.7588   -0.0176 H         1 <0>         0.1103
     51 H9         -0.9258   -0.5567    0.0082 H         1 <0>         0.1107
     52 H10         3.5884   -1.6586   -0.5549 H         1 <0>         0.0832
     53 H11         4.4573   -0.1052   -0.5563 H         1 <0>         0.0908
     54 H12         6.1983    0.3183   -0.8440 H         1 <0>         0.0760
     55 H13         5.8227    1.0458    0.7481 H         1 <0>         0.0812
     56 H14         8.1364    1.6970   -0.4923 H         1 <0>         0.0897
     57 H15         8.1536    1.3705    1.2733 H         1 <0>         0.0812
     58 H16         8.8856   -0.5283   -1.0268 H         1 <0>         0.0853
     59 H17         9.7758   -0.2380    0.5037 H         1 <0>         0.0960
     60 H18         9.9975   -2.9508    0.0950 H         1 <0>         0.4067
     61 H19         8.6025   -5.3091   -0.5898 H         1 <0>         0.0643
     62 H20         8.8513   -4.3544   -2.0713 H         1 <0>         0.0637
     63 H21         3.4056   -2.8234    2.0784 H         1 <0>         0.4080
     64 H22         0.6438   -2.9090    1.2825 H         1 <0>         0.0851
     65 H23         1.0834   -4.2717    2.3638 H         1 <0>         0.0945
     66 H24        -1.5417   -3.7211    1.8851 H         1 <0>         0.0896
     67 H25        -1.0149   -4.1588    3.5450 H         1 <0>         0.0812
     68 H26        -1.4613   -1.3651    2.3579 H         1 <0>         0.0728
     69 H27        -2.0487   -2.0129    3.9200 H         1 <0>         0.0783
     70 H28        -2.0733   -1.7400    5.8526 H         1 <0>         0.0841
     71 H29        -1.2617   -0.8832    7.1851 H         1 <0>         0.0813
     72 H30        -2.3391    0.9858    8.2994 H         1 <0>         0.1259
     73 H31        -4.4707    2.0488    8.9198 H         1 <0>         0.1299
     74 H32        -6.4231   -0.0229    5.7323 H         1 <0>         0.1299
     75 H33        -4.2858   -1.0747    5.1124 H         1 <0>         0.1277
     76 H34        -6.9247    2.5079    7.2597 H         1 <0>         0.3916
     77 H35        -1.5972    1.9133    6.1811 H         1 <0>         0.3467
     78 H36        -0.1718    1.2381    6.7085 H         1 <0>         0.3505
@<TRIPOS>BOND
     1    1    6 ar
     2    1    2 ar
     3    1   47 1
     4    2    3 ar
     5    2   48 1
     6    3    4 ar
     7    3   49 1
     8    4    5 ar
     9    4    7 1
    10    5    6 ar
    11    5   50 1
    12    6   51 1
    13    7    8 1
    14    7   52 1
    15    7   53 1
    16    8    9 1
    17    8   10 1
    18    8   25 1
    19   10   11 2
    20   10   12 am
    21   12   16 1
    22   12   13 1
    23   13   14 1
    24   13   54 1
    25   13   55 1
    26   14   15 1
    27   14   56 1
    28   14   57 1
    29   15   16 1
    30   15   58 1
    31   15   59 1
    32   16   17 1
    33   16   18 1
    34   18   19 2
    35   18   20 am
    36   20   21 1
    37   20   60 1
    38   21   22 1
    39   21   61 1
    40   21   62 1
    41   22   23 2
    42   22   24 1
    43   25   26 am
    44   25   63 1
    45   26   27 2
    46   26   28 1
    47   28   29 1
    48   28   33 1
    49   28   30 1
    50   30   31 1
    51   30   64 1
    52   30   65 1
    53   31   32 1
    54   31   66 1
    55   31   67 1
    56   32   33 1
    57   32   68 1
    58   32   69 1
    59   33   34 am
    60   34   35 2
    61   34   36 1
    62   36   37 1
    63   36   38 1
    64   36   46 1
    65   38   39 1
    66   38   70 1
    67   38   71 1
    68   39   44 ar
    69   39   40 ar
    70   40   41 ar
    71   40   72 1
    72   41   42 ar
    73   41   73 1
    74   42   43 ar
    75   42   45 1
    76   43   44 ar
    77   43   74 1
    78   44   75 1
    79   45   76 1
    80   46   77 1
    81   46   78 1
@<TRIPOS>MOLECULE
ZINC53259701
   78    81     0     0     0
SMALL
USER_CHARGES

@<TRIPOS>ATOM
      1 C1          6.2397    3.4255   -0.7147 C.ar      1 <0>        -0.1214
      2 C2          6.4673    2.2836   -1.4598 C.ar      1 <0>        -0.1111
      3 C3          5.6956    1.1561   -1.2499 C.ar      1 <0>        -0.0750
      4 C4          4.6965    1.1704   -0.2946 C.ar      1 <0>        -0.0904
      5 C5          4.4695    2.3120    0.4511 C.ar      1 <0>        -0.1063
      6 C6          5.2403    3.4399    0.2402 C.ar      1 <0>        -0.1314
      7 C7          3.8545   -0.0584   -0.0665 C.3       1 <0>        -0.0833
      8 C8          4.3971   -0.8324    1.1366 C.3       1 <0>         0.1446
      9 H1          3.7523   -1.6874    1.3395 H         1 <0>         0.1077
     10 C9          5.7923   -1.3158    0.8352 C.2       1 <0>         0.5350
     11 O1          6.7508   -0.6806    1.2210 O.2       1 <0>        -0.5029
     12 N1          5.9750   -2.4540    0.1368 N.am      1 <0>        -0.5993
     13 C10         4.9088   -3.2637   -0.4805 C.3       1 <0>         0.0950
     14 C11         5.6106   -4.0377   -1.6243 C.3       1 <0>        -0.1312
     15 C12         6.9911   -4.3492   -0.9883 C.3       1 <0>        -0.1253
     16 C13         7.2709   -3.0902   -0.1409 C.3       1 <0>         0.1206
     17 H2          7.7522   -3.3750    0.7947 H         1 <0>         0.0976
     18 C14         8.1549   -2.1398   -0.9067 C.2       1 <0>         0.4950
     19 O2          7.7488   -1.0345   -1.1969 O.2       1 <0>        -0.5281
     20 N2          9.3966   -2.5182   -1.2691 N.am      1 <0>        -0.7005
     21 C15        10.2559   -1.5943   -2.0136 C.3       1 <0>         0.0571
     22 C16        11.5810   -2.2554   -2.2932 C.2       1 <0>         0.4901
     23 O3         11.7883   -3.3929   -1.9064 O.co2     1 <0>        -0.6931
     24 O4         12.4456   -1.6528   -2.9061 O.co2     1 <0>        -0.6896
     25 N3          4.4272    0.0457    2.3089 N.am      1 <0>        -0.7063
     26 C17         3.3219    0.1987    3.0648 C.2       1 <0>         0.5150
     27 O5          2.3304   -0.4589    2.8293 O.2       1 <0>        -0.5238
     28 C18         3.3179    1.1870    4.2025 C.3       1 <0>         0.1220
     29 H3          3.8046    2.1115    3.8919 H         1 <0>         0.0996
     30 C19         4.0548    0.5892    5.4195 C.3       1 <0>        -0.1234
     31 C20         3.2042    1.0851    6.6187 C.3       1 <0>        -0.1302
     32 C21         1.7742    1.0417    6.0248 C.3       1 <0>         0.0965
     33 N4          1.9355    1.4650    4.6185 N.am      1 <0>        -0.6013
     34 C22         0.9778    2.0139    3.8451 C.2       1 <0>         0.5437
     35 O6          1.2040    2.2528    2.6778 O.2       1 <0>        -0.5108
     36 C23        -0.3740    2.3308    4.4309 C.3       1 <0>         0.0917
     37 H4         -0.6745    1.5293    5.1057 H         1 <0>         0.1020
     38 C24        -0.2981    3.6481    5.2055 C.3       1 <0>        -0.1129
     39 C25        -1.6147    3.9032    5.8929 C.ar      1 <0>        -0.0925
     40 C26        -2.6098    4.6061    5.2390 C.ar      1 <0>        -0.1025
     41 C27        -3.8175    4.8417    5.8671 C.ar      1 <0>        -0.1391
     42 C28        -4.0315    4.3720    7.1548 C.ar      1 <0>         0.1033
     43 C29        -3.0316    3.6667    7.8086 C.ar      1 <0>        -0.1401
     44 C30        -1.8276    3.4293    7.1742 C.ar      1 <0>        -0.0965
     45 O7         -5.2185    4.6029    7.7750 O.3       1 <0>        -0.5003
     46 N5         -1.3597    2.4552    3.3488 N.3       1 <0>        -0.8238
     47 H5          6.8456    4.3049   -0.8756 H         1 <0>         0.1142
     48 H6          7.2479    2.2724   -2.2061 H         1 <0>         0.1175
     49 H7          5.8729    0.2642   -1.8325 H         1 <0>         0.1242
     50 H8          3.6887    2.3233    1.1972 H         1 <0>         0.1157
     51 H9          5.0627    4.3320    0.8226 H         1 <0>         0.1125
     52 H10         2.8237    0.2383    0.1273 H         1 <0>         0.0889
     53 H11         3.8897   -0.6926   -0.9523 H         1 <0>         0.0818
     54 H12         4.4909   -3.9591    0.2474 H         1 <0>         0.0737
     55 H13         4.1273   -2.6189   -0.8825 H         1 <0>         0.0785
     56 H14         5.0735   -4.9561   -1.8615 H         1 <0>         0.0887
     57 H15         5.7206   -3.4115   -2.5096 H         1 <0>         0.0796
     58 H16         6.9343   -5.2373   -0.3590 H         1 <0>         0.0879
     59 H17         7.7524   -4.4695   -1.7590 H         1 <0>         0.0930
     60 H18         9.7214   -3.4023   -1.0370 H         1 <0>         0.4049
     61 H19         9.7755   -1.3306   -2.9558 H         1 <0>         0.0623
     62 H20        10.4172   -0.6924   -1.4231 H         1 <0>         0.0631
     63 H21         5.2426    0.5169    2.5411 H         1 <0>         0.4104
     64 H22         4.0568   -0.4998    5.3724 H         1 <0>         0.0836
     65 H23         5.0721    0.9754    5.4824 H         1 <0>         0.0955
     66 H24         3.2951    0.4085    7.4684 H         1 <0>         0.0908
     67 H25         3.4800    2.1016    6.8994 H         1 <0>         0.0820
     68 H26         1.3736    0.0292    6.0738 H         1 <0>         0.0748
     69 H27         1.1217    1.7349    6.5557 H         1 <0>         0.0801
     70 H28         0.4948    3.5861    5.9508 H         1 <0>         0.0844
     71 H29        -0.0847    4.4639    4.5149 H         1 <0>         0.0820
     72 H30        -2.4427    4.9715    4.2365 H         1 <0>         0.1261
     73 H31        -4.5942    5.3913    5.3562 H         1 <0>         0.1301
     74 H32        -3.1958    3.3001    8.8111 H         1 <0>         0.1301
     75 H33        -1.0505    2.8764    7.6810 H         1 <0>         0.1279
     76 H34        -5.8807    3.9141    7.6259 H         1 <0>         0.3918
     77 H35        -2.2864    2.6038    3.7191 H         1 <0>         0.3478
     78 H36        -1.1034    3.1923    2.7092 H         1 <0>         0.3515
@<TRIPOS>BOND
     1    1    6 ar
     2    1    2 ar
     3    1   47 1
     4    2    3 ar
     5    2   48 1
     6    3    4 ar
     7    3   49 1
     8    4    5 ar
     9    4    7 1
    10    5    6 ar
    11    5   50 1
    12    6   51 1
    13    7    8 1
    14    7   52 1
    15    7   53 1
    16    8    9 1
    17    8   10 1
    18    8   25 1
    19   10   11 2
    20   10   12 am
    21   12   16 1
    22   12   13 1
    23   13   14 1
    24   13   54 1
    25   13   55 1
    26   14   15 1
    27   14   56 1
    28   14   57 1
    29   15   16 1
    30   15   58 1
    31   15   59 1
    32   16   17 1
    33   16   18 1
    34   18   19 2
    35   18   20 am
    36   20   21 1
    37   20   60 1
    38   21   22 1
    39   21   61 1
    40   21   62 1
    41   22   23 2
    42   22   24 1
    43   25   26 am
    44   25   63 1
    45   26   27 2
    46   26   28 1
    47   28   29 1
    48   28   33 1
    49   28   30 1
    50   30   31 1
    51   30   64 1
    52   30   65 1
    53   31   32 1
    54   31   66 1
    55   31   67 1
    56   32   33 1
    57   32   68 1
    58   32   69 1
    59   33   34 am
    60   34   35 2
    61   34   36 1
    62   36   37 1
    63   36   38 1
    64   36   46 1
    65   38   39 1
    66   38   70 1
    67   38   71 1
    68   39   44 ar
    69   39   40 ar
    70   40   41 ar
    71   40   72 1
    72   41   42 ar
    73   41   73 1
    74   42   43 ar
    75   42   45 1
    76   43   44 ar
    77   43   74 1
    78   44   75 1
    79   45   76 1
    80   46   77 1
    81   46   78 1
@<TRIPOS>MOLECULE
ZINC53259707
   78    81     0     0     0
SMALL
USER_CHARGES

@<TRIPOS>ATOM
      1 C1         -0.0167    1.3781    0.0096 C.ar      1 <0>        -0.1195
      2 C2          1.1709    2.0855    0.0021 C.ar      1 <0>        -0.1100
      3 C3          2.3773    1.4107   -0.0130 C.ar      1 <0>        -0.1033
      4 C4          2.3960    0.0285   -0.0201 C.ar      1 <0>        -0.0597
      5 C5          1.2084   -0.6789   -0.0117 C.ar      1 <0>        -0.1085
      6 C6          0.0021   -0.0041    0.0020 C.ar      1 <0>        -0.1124
      7 C7          3.7112   -0.7071   -0.0376 C.3       1 <0>        -0.0966
      8 C8          4.1714   -0.9633    1.3989 C.3       1 <0>         0.1478
      9 H1          4.2087   -0.0191    1.9423 H         1 <0>         0.1129
     10 C9          5.5425   -1.5884    1.3832 C.2       1 <0>         0.5351
     11 O1          5.7154   -2.6833    1.8752 O.2       1 <0>        -0.5136
     12 N1          6.5766   -0.9306    0.8225 N.am      1 <0>        -0.5971
     13 C10         6.5092    0.4028    0.1973 C.3       1 <0>         0.0954
     14 C11         7.9537    0.9555    0.2854 C.3       1 <0>        -0.1334
     15 C12         8.7932   -0.3261    0.0403 C.3       1 <0>        -0.1253
     16 C13         7.9600   -1.4213    0.7386 C.3       1 <0>         0.1201
     17 H2          7.9927   -2.3396    0.1523 H         1 <0>         0.1017
     18 C14         8.4989   -1.6743    2.1230 C.2       1 <0>         0.4952
     19 O2          7.8006   -1.4671    3.0928 O.2       1 <0>        -0.5377
     20 N2          9.7568   -2.1308    2.2835 N.am      1 <0>        -0.6986
     21 C15        10.2807   -2.3767    3.6293 C.3       1 <0>         0.0538
     22 C16        11.6982   -2.8791    3.5325 C.2       1 <0>         0.4912
     23 O3         12.2223   -3.0187    2.4406 O.co2     1 <0>        -0.6926
     24 O4         12.3210   -3.1458    4.5462 O.co2     1 <0>        -0.6886
     25 N3          3.2289   -1.8699    2.0593 N.am      1 <0>        -0.7134
     26 C17         2.1163   -1.3790    2.6404 C.2       1 <0>         0.5092
     27 O5          1.8954   -0.1867    2.6165 O.2       1 <0>        -0.4940
     28 C18         1.1468   -2.3115    3.3197 C.3       1 <0>         0.1230
     29 H3          1.6516   -2.8515    4.1208 H         1 <0>         0.0998
     30 C19         0.5733   -3.3111    2.2932 C.3       1 <0>        -0.1282
     31 C20        -0.9099   -3.4439    2.7289 C.3       1 <0>        -0.1302
     32 C21        -1.2235   -2.0045    3.2080 C.3       1 <0>         0.0970
     33 N4          0.0170   -1.5463    3.8670 N.am      1 <0>        -0.6002
     34 C22         0.1011   -0.5883    4.8112 C.2       1 <0>         0.5458
     35 O6          1.1792   -0.2945    5.2826 O.2       1 <0>        -0.5065
     36 C23        -1.1445    0.1179    5.2812 C.3       1 <0>         0.0941
     37 H4         -1.7959    0.3114    4.4289 H         1 <0>         0.1005
     38 C24        -1.8784   -0.7628    6.2944 C.3       1 <0>        -0.1147
     39 C25        -3.1845   -0.1127    6.6719 C.ar      1 <0>        -0.0911
     40 C26        -3.2353    0.7661    7.7382 C.ar      1 <0>        -0.1025
     41 C27        -4.4314    1.3630    8.0865 C.ar      1 <0>        -0.1387
     42 C28        -5.5823    1.0804    7.3651 C.ar      1 <0>         0.1025
     43 C29        -5.5286    0.1987    6.2954 C.ar      1 <0>        -0.1402
     44 C30        -4.3289   -0.3916    5.9479 C.ar      1 <0>        -0.0969
     45 O7         -6.7603    1.6660    7.7061 O.3       1 <0>        -0.5003
     46 N5         -0.7761    1.3908    5.9150 N.3       1 <0>        -0.8229
     47 H5         -0.9591    1.9053    0.0259 H         1 <0>         0.1124
     48 H6          1.1563    3.1654    0.0076 H         1 <0>         0.1150
     49 H7          3.3051    1.9634   -0.0196 H         1 <0>         0.1148
     50 H8          1.2231   -1.7588   -0.0176 H         1 <0>         0.1100
     51 H9         -0.9258   -0.5567    0.0082 H         1 <0>         0.1108
     52 H10         3.5884   -1.6586   -0.5549 H         1 <0>         0.0796
     53 H11         4.4573   -0.1052   -0.5563 H         1 <0>         0.0915
     54 H12         6.1983    0.3183   -0.8440 H         1 <0>         0.0775
     55 H13         5.8227    1.0458    0.7481 H         1 <0>         0.0790
     56 H14         8.1364    1.6970   -0.4923 H         1 <0>         0.0901
     57 H15         8.1536    1.3705    1.2733 H         1 <0>         0.0802
     58 H16         8.8856   -0.5283   -1.0268 H         1 <0>         0.0899
     59 H17         9.7758   -0.2380    0.5037 H         1 <0>         0.0938
     60 H18        10.3153   -2.2965    1.5079 H         1 <0>         0.4061
     61 H19        10.2622   -1.4492    4.2015 H         1 <0>         0.0636
     62 H20         9.6637   -3.1240    4.1284 H         1 <0>         0.0641
     63 H21         3.4056   -2.8234    2.0784 H         1 <0>         0.4064
     64 H22         0.6438   -2.9090    1.2825 H         1 <0>         0.0843
     65 H23         1.0834   -4.2717    2.3638 H         1 <0>         0.0936
     66 H24        -1.5417   -3.7211    1.8851 H         1 <0>         0.0889
     67 H25        -1.0149   -4.1588    3.5450 H         1 <0>         0.0813
     68 H26        -1.4613   -1.3651    2.3579 H         1 <0>         0.0722
     69 H27        -2.0487   -2.0129    3.9200 H         1 <0>         0.0782
     70 H28        -2.0733   -1.7400    5.8526 H         1 <0>         0.0840
     71 H29        -1.2617   -0.8832    7.1851 H         1 <0>         0.0818
     72 H30        -2.3391    0.9858    8.2994 H         1 <0>         0.1262
     73 H31        -4.4707    2.0488    8.9198 H         1 <0>         0.1300
     74 H32        -6.4231   -0.0229    5.7323 H         1 <0>         0.1297
     75 H33        -4.2858   -1.0747    5.1124 H         1 <0>         0.1274
     76 H34        -6.9247    2.5079    7.2597 H         1 <0>         0.3915
     77 H35        -1.5972    1.9133    6.1811 H         1 <0>         0.3465
     78 H36        -0.1718    1.2381    6.7085 H         1 <0>         0.3513
@<TRIPOS>BOND
     1    1    6 ar
     2    1    2 ar
     3    1   47 1
     4    2    3 ar
     5    2   48 1
     6    3    4 ar
     7    3   49 1
     8    4    5 ar
     9    4    7 1
    10    5    6 ar
    11    5   50 1
    12    6   51 1
    13    7    8 1
    14    7   52 1
    15    7   53 1
    16    8    9 1
    17    8   10 1
    18    8   25 1
    19   10   11 2
    20   10   12 am
    21   12   16 1
    22   12   13 1
    23   13   14 1
    24   13   54 1
    25   13   55 1
    26   14   15 1
    27   14   56 1
    28   14   57 1
    29   15   16 1
    30   15   58 1
    31   15   59 1
    32   16   17 1
    33   16   18 1
    34   18   19 2
    35   18   20 am
    36   20   21 1
    37   20   60 1
    38   21   22 1
    39   21   61 1
    40   21   62 1
    41   22   23 2
    42   22   24 1
    43   25   26 am
    44   25   63 1
    45   26   27 2
    46   26   28 1
    47   28   29 1
    48   28   33 1
    49   28   30 1
    50   30   31 1
    51   30   64 1
    52   30   65 1
    53   31   32 1
    54   31   66 1
    55   31   67 1
    56   32   33 1
    57   32   68 1
    58   32   69 1
    59   33   34 am
    60   34   35 2
    61   34   36 1
    62   36   37 1
    63   36   38 1
    64   36   46 1
    65   38   39 1
    66   38   70 1
    67   38   71 1
    68   39   44 ar
    69   39   40 ar
    70   40   41 ar
    71   40   72 1
    72   41   42 ar
    73   41   73 1
    74   42   43 ar
    75   42   45 1
    76   43   44 ar
    77   43   74 1
    78   44   75 1
    79   45   76 1
    80   46   77 1
    81   46   78 1
@<TRIPOS>MOLECULE
ZINC00601304
   50    53     0     0     0
SMALL
USER_CHARGES

@<TRIPOS>ATOM
      1 C1         -0.0848    1.4532   -0.3643 C.3       1 <0>         0.0157
      2 O1         -0.0673    0.0248   -0.4029 O.3       1 <0>        -0.2899
      3 C2         -1.2697   -0.6091   -0.3507 C.ar      1 <0>         0.1141
      4 C3         -2.4181    0.1263   -0.2712 C.ar      1 <0>        -0.1159
      5 C4         -3.6565   -0.5247   -0.2178 C.ar      1 <0>        -0.1900
      6 C5         -3.7118   -1.9398   -0.2465 C.ar      1 <0>         0.2208
      7 C6         -2.5225   -2.6738   -0.3282 C.ar      1 <0>        -0.2298
      8 C7         -1.3169   -2.0092   -0.3848 C.ar      1 <0>         0.2171
      9 O2         -0.1616   -2.7187   -0.4697 O.3       1 <0>        -0.2781
     10 C8         -0.2756   -4.1428   -0.5007 C.3       1 <0>         0.0126
     11 N1         -4.9113   -2.5410   -0.1946 N.ar      1 <0>        -0.5852
     12 C9         -6.0151   -1.8231   -0.1184 C.ar      1 <0>         0.6808
     13 N2         -6.0075   -0.4933   -0.0894 N.ar      1 <0>        -0.5933
     14 C10        -4.8747    0.1928   -0.1354 C.ar      1 <0>         0.5614
     15 N3         -4.8820    1.5717   -0.1036 N.pl3     1 <0>        -0.7723
     16 N4         -7.2317   -2.4807   -0.0668 N.pl3     1 <0>        -0.5638
     17 C11        -7.2984   -3.9422   -0.2055 C.3       1 <0>         0.0875
     18 C12        -8.0309   -4.5172    1.0132 C.3       1 <0>         0.0811
     19 N5         -9.2792   -3.7665    1.2081 N.am      1 <0>        -0.6161
     20 C13        -9.2125   -2.3049    1.3468 C.3       1 <0>         0.0965
     21 C14        -8.4794   -1.7305    0.1337 C.3       1 <0>         0.1036
     22 C15       -10.4640   -4.4068    1.2583 C.2       1 <0>         0.6126
     23 O3        -11.4993   -3.7686    1.3005 O.2       1 <0>        -0.5007
     24 C16       -10.5057   -5.8728    1.2622 C.2       1 <0>        -0.0999
     25 C17       -11.6286   -6.6439    1.1675 C.2       1 <0>        -0.0980
     26 C18       -11.2046   -7.9813    1.2107 C.2       1 <0>        -0.2186
     27 C19        -9.8585   -7.9681    1.3284 C.2       1 <0>        -0.0023
     28 O4         -9.4406   -6.6959    1.3540 O.3       1 <0>        -0.1695
     29 H1          0.9367    1.8304   -0.4129 H         1 <0>         0.1175
     30 H2         -0.6531    1.8327   -1.2135 H         1 <0>         0.0636
     31 H3         -0.5513    1.7859    0.5629 H         1 <0>         0.0637
     32 H4         -2.3709    1.2050   -0.2492 H         1 <0>         0.1589
     33 H5         -2.5500   -3.7532   -0.3508 H         1 <0>         0.1674
     34 H6         -0.7651   -4.4880    0.4100 H         1 <0>         0.0684
     35 H7         -0.8669   -4.4412   -1.3664 H         1 <0>         0.0684
     36 H8          0.7180   -4.5855   -0.5693 H         1 <0>         0.1203
     37 H9         -4.0457    2.0621   -0.1379 H         1 <0>         0.4288
     38 H10        -5.7233    2.0512   -0.0471 H         1 <0>         0.4313
     39 H11        -7.8428   -4.1990   -1.1142 H         1 <0>         0.1106
     40 H12        -6.2893   -4.3517   -0.2526 H         1 <0>         0.0927
     41 H13        -8.2596   -5.5687    0.8400 H         1 <0>         0.1354
     42 H14        -7.4023   -4.4179    1.8982 H         1 <0>         0.0848
     43 H15       -10.2215   -1.8954    1.3938 H         1 <0>         0.1238
     44 H16        -8.6680   -2.0481    2.2555 H         1 <0>         0.0830
     45 H17        -8.2501   -0.6797    0.3105 H         1 <0>         0.1273
     46 H18        -9.1099   -1.8262   -0.7503 H         1 <0>         0.0981
     47 H19       -12.6459   -6.2927    1.0769 H         1 <0>         0.1643
     48 H20       -11.8356   -8.8563    1.1598 H         1 <0>         0.1626
     49 H21        -9.2239   -8.8399    1.3885 H         1 <0>         0.2151
     50 H22        -4.9664   -3.5093   -0.2136 H         1 <0>         0.4337
@<TRIPOS>BOND
     1    1    2 1
     2    1   29 1
     3    1   30 1
     4    1   31 1
     5    2    3 1
     6    3    8 ar
     7    3    4 ar
     8    4    5 ar
     9    4   32 1
    10    5   14 ar
    11    5    6 ar
    12    6    7 ar
    13    6   11 ar
    14    7    8 ar
    15    7   33 1
    16    8    9 1
    17    9   10 1
    18   10   34 1
    19   10   35 1
    20   10   36 1
    21   11   12 ar
    22   11   50 1
    23   12   13 ar
    24   12   16 1
    25   13   14 ar
    26   14   15 1
    27   15   37 1
    28   15   38 1
    29   16   21 1
    30   16   17 1
    31   17   18 1
    32   17   39 1
    33   17   40 1
    34   18   19 1
    35   18   41 1
    36   18   42 1
    37   19   20 1
    38   19   22 am
    39   20   21 1
    40   20   43 1
    41   20   44 1
    42   21   45 1
    43   21   46 1
    44   22   23 2
    45   22   24 1
    46   24   28 1
    47   24   25 2
    48   25   26 1
    49   25   47 1
    50   26   27 2
    51   26   48 1
    52   27   28 1
    53   27   49 1
@<TRIPOS>MOLECULE
ZINC22454243
   70    72     0     0     0
SMALL
USER_CHARGES

@<TRIPOS>ATOM
      1 C1         -3.2721   -1.8122   -0.8663 C.3       1 <0>        -0.1682
      2 C2         -2.5254   -0.5341   -0.4793 C.3       1 <0>         0.1080
      3 N1         -1.4693   -0.8579    0.4831 N.am      1 <0>        -0.6052
      4 C3         -0.1542   -1.2949    0.0080 C.3       1 <0>         0.0965
      5 C4          0.6666   -0.0749   -0.4147 C.3       1 <0>        -0.1790
      6 C5         -1.7077   -0.7538    1.8055 C.2       1 <0>         0.5549
      7 O1         -2.8134   -0.4399    2.2009 O.2       1 <0>        -0.5290
      8 C6         -0.6242   -1.0212    2.7753 C.ar      1 <0>        -0.1173
      9 C7          0.6436   -0.4714    2.5790 C.ar      1 <0>        -0.0954
     10 C8          1.6501   -0.7244    3.4879 C.ar      1 <0>        -0.1235
     11 C9          1.4051   -1.5217    4.5918 C.ar      1 <0>        -0.0552
     12 C10         0.1508   -2.0701    4.7921 C.ar      1 <0>        -0.0966
     13 C11        -0.8662   -1.8198    3.8940 C.ar      1 <0>        -0.0690
     14 C12         2.5096   -1.7942    5.5803 C.3       1 <0>         0.1748
     15 H1          3.2860   -1.0364    5.4756 H         1 <0>         0.0728
     16 C13         3.0975   -3.1560    5.3137 C.ar      1 <0>        -0.0809
     17 C14         2.3630   -4.2930    5.5964 C.ar      1 <0>        -0.1113
     18 C15         2.8995   -5.5436    5.3530 C.ar      1 <0>        -0.1008
     19 C16         4.1717   -5.6604    4.8269 C.ar      1 <0>        -0.1350
     20 C17         4.9105   -4.5214    4.5425 C.ar      1 <0>         0.1144
     21 C18         4.3674   -3.2672    4.7820 C.ar      1 <0>        -0.1357
     22 O2          6.1621   -4.6336    4.0249 O.3       1 <0>        -0.4985
     23 N2          1.9666   -1.7539    6.9446 N.3       1 <0>        -0.5268
     24 C19         2.8494   -2.4599    7.8840 C.3       1 <0>         0.0237
     25 C20         2.2203   -2.4462    9.2789 C.3       1 <0>         0.0324
     26 H2          1.2577   -2.9566    9.2483 H         1 <0>         0.1446
     27 N3          2.0243   -1.0571    9.7142 N.4       1 <0>        -0.3829
     28 C21         1.1211   -0.3722    8.7801 C.3       1 <0>         0.0017
     29 C22         1.7411   -0.3686    7.3810 C.3       1 <0>         0.0645
     30 H3          2.6916    0.1642    7.4058 H         1 <0>         0.0667
     31 C23         0.7911    0.3263    6.4035 C.3       1 <0>        -0.1641
     32 C24         1.4371   -1.0445   11.0607 C.3       1 <0>         0.0243
     33 C25         1.3494    0.3757   11.5572 C.2       1 <0>        -0.2351
     34 C26         0.2002    0.8593   11.9590 C.2       1 <0>        -0.1052
     35 C27         3.1467   -3.1632   10.2631 C.3       1 <0>        -0.1835
     36 H4         -4.0578   -1.5713   -1.5823 H         1 <0>         0.0705
     37 H5         -2.5744   -2.5185   -1.3164 H         1 <0>         0.0561
     38 H6         -3.7160   -2.2575    0.0241 H         1 <0>         0.0586
     39 H7         -2.0815   -0.0889   -1.3697 H         1 <0>         0.0795
     40 H8         -3.2231    0.1721   -0.0291 H         1 <0>         0.0877
     41 H9          0.3645   -1.8223    0.8086 H         1 <0>         0.0858
     42 H10        -0.2793   -1.9619   -0.8450 H         1 <0>         0.0817
     43 H11         0.3704    0.2326   -1.4175 H         1 <0>         0.0655
     44 H12         0.4881    0.7428    0.2837 H         1 <0>         0.0641
     45 H13         1.7261   -0.3309   -0.4112 H         1 <0>         0.0719
     46 H14         0.8363    0.1505    1.7173 H         1 <0>         0.1430
     47 H15         2.6316   -0.2996    3.3372 H         1 <0>         0.1275
     48 H16        -0.0338   -2.6919    5.6556 H         1 <0>         0.1342
     49 H17        -1.8462   -2.2446    4.0540 H         1 <0>         0.1312
     50 H18         1.3686   -4.2039    6.0084 H         1 <0>         0.1317
     51 H19         2.3238   -6.4301    5.5747 H         1 <0>         0.1319
     52 H20         4.5907   -6.6376    4.6376 H         1 <0>         0.1332
     53 H21         4.9388   -2.3788    4.5569 H         1 <0>         0.1284
     54 H22         6.1878   -4.6518    3.0584 H         1 <0>         0.3977
     55 H23         2.9812   -3.4905    7.5545 H         1 <0>         0.1331
     56 H24         3.8182   -1.9615    7.9170 H         1 <0>         0.0619
     57 H25         0.1642   -0.8933    8.7521 H         1 <0>         0.1367
     58 H26         0.9662    0.6546    9.1114 H         1 <0>         0.1362
     59 H27        -0.1596   -0.2064    6.3800 H         1 <0>         0.0798
     60 H28         0.6241    1.3536    6.7274 H         1 <0>         0.0701
     61 H29         1.2320    0.3268    5.4066 H         1 <0>         0.0908
     62 H30         0.4383   -1.4794   11.0256 H         1 <0>         0.1301
     63 H31         2.0637   -1.6273   11.7358 H         1 <0>         0.1386
     64 H32         2.2341    0.9948   11.5817 H         1 <0>         0.1330
     65 H33        -0.6844    0.2403   11.9344 H         1 <0>         0.1115
     66 H34         0.1374    1.8771   12.3148 H         1 <0>         0.1229
     67 H35         4.1093   -2.6528   10.2936 H         1 <0>         0.0811
     68 H36         2.6986   -3.1535   11.2567 H         1 <0>         0.0863
     69 H37         3.2921   -4.1940    9.9402 H         1 <0>         0.1080
     70 H38         2.9140   -0.5815    9.7313 H         1 <0>         0.4184
@<TRIPOS>BOND
     1    1    2 1
     2    1   36 1
     3    1   37 1
     4    1   38 1
     5    2    3 1
     6    2   39 1
     7    2   40 1
     8    3    4 1
     9    3    6 am
    10    4    5 1
    11    4   41 1
    12    4   42 1
    13    5   43 1
    14    5   44 1
    15    5   45 1
    16    6    7 2
    17    6    8 1
    18    8   13 ar
    19    8    9 ar
    20    9   10 ar
    21    9   46 1
    22   10   11 ar
    23   10   47 1
    24   11   12 ar
    25   11   14 1
    26   12   13 ar
    27   12   48 1
    28   13   49 1
    29   14   15 1
    30   14   16 1
    31   14   23 1
    32   16   21 ar
    33   16   17 ar
    34   17   18 ar
    35   17   50 1
    36   18   19 ar
    37   18   51 1
    38   19   20 ar
    39   19   52 1
    40   20   21 ar
    41   20   22 1
    42   21   53 1
    43   22   54 1
    44   23   29 1
    45   23   24 1
    46   24   25 1
    47   24   55 1
    48   24   56 1
    49   25   26 1
    50   25   27 1
    51   25   35 1
    52   27   28 1
    53   27   32 1
    54   27   70 1
    55   28   29 1
    56   28   57 1
    57   28   58 1
    58   29   30 1
    59   29   31 1
    60   31   59 1
    61   31   60 1
    62   31   61 1
    63   32   33 1
    64   32   62 1
    65   32   63 1
    66   33   34 2
    67   33   64 1
    68   34   65 1
    69   34   66 1
    70   35   67 1
    71   35   68 1
    72   35   69 1
@<TRIPOS>MOLECULE
ZINC22454243
   70    72     0     0     0
SMALL
USER_CHARGES

@<TRIPOS>ATOM
      1 C1         -3.7957   -4.5388    0.0807 C.3       1 <0>        -0.1689
      2 C2         -3.1544   -3.1498    0.0949 C.3       1 <0>         0.1073
      3 N1         -2.1636   -3.0803    1.1718 N.am      1 <0>        -0.6022
      4 C3         -0.7946   -3.5470    0.9388 C.3       1 <0>         0.0929
      5 C4         -0.0239   -2.4906    0.1444 C.3       1 <0>        -0.1805
      6 C5         -2.5115   -2.5871    2.3768 C.2       1 <0>         0.5504
      7 O1         -3.6616   -2.2559    2.5890 O.2       1 <0>        -0.5208
      8 C6         -1.4942   -2.4490    3.4407 C.ar      1 <0>        -0.0966
      9 C7         -0.2346   -1.9269    3.1425 C.ar      1 <0>        -0.0883
     10 C8          0.7100   -1.8001    4.1400 C.ar      1 <0>        -0.0995
     11 C9          0.4110   -2.1897    5.4336 C.ar      1 <0>        -0.0989
     12 C10        -0.8355   -2.7085    5.7358 C.ar      1 <0>        -0.1224
     13 C11        -1.7912   -2.8347    4.7489 C.ar      1 <0>        -0.0537
     14 C12         1.4480   -2.0489    6.5180 C.3       1 <0>         0.1307
     15 H1          2.2618   -1.4169    6.1626 H         1 <0>         0.1520
     16 C13         1.9881   -3.4094    6.8763 C.ar      1 <0>        -0.1123
     17 C14         1.2668   -4.2403    7.7140 C.ar      1 <0>        -0.1350
     18 C15         1.7596   -5.4889    8.0446 C.ar      1 <0>        -0.0827
     19 C16         2.9746   -5.9095    7.5389 C.ar      1 <0>        -0.1210
     20 C17         3.7000   -5.0779    6.6985 C.ar      1 <0>         0.1293
     21 C18         3.2004   -3.8275    6.3633 C.ar      1 <0>        -0.1150
     22 O2          4.8954   -5.4892    6.1998 O.3       1 <0>        -0.4928
     23 N2          0.8354   -1.4371    7.7048 N.4       1 <0>        -0.3820
     24 C19         1.7841   -1.4854    8.8251 C.3       1 <0>        -0.0060
     25 C20         1.1395   -0.8652   10.0667 C.3       1 <0>         0.0612
     26 H2          0.2483   -1.4324   10.3356 H         1 <0>         0.0643
     27 N3          0.7663    0.5267    9.7779 N.3       1 <0>        -0.5312
     28 C21        -0.1641    0.5928    8.6421 C.3       1 <0>         0.0331
     29 C22         0.4912   -0.0394    7.4123 C.3       1 <0>         0.0366
     30 H3          1.3965    0.5123    7.1590 H         1 <0>         0.1457
     31 C23        -0.4828    0.0100    6.2334 C.3       1 <0>        -0.1982
     32 C24         0.1946    1.1756   10.9653 C.3       1 <0>         0.0780
     33 C25         0.0528    2.6542   10.7106 C.2       1 <0>        -0.1650
     34 C26        -1.1111    3.2361   10.8611 C.2       1 <0>        -0.1713
     35 C27         2.1346   -0.8970   11.2284 C.3       1 <0>        -0.1522
     36 H4         -4.5329   -4.5905   -0.7206 H         1 <0>         0.0727
     37 H5         -3.0260   -5.2927   -0.0847 H         1 <0>         0.0568
     38 H6         -4.2850   -4.7229    1.0371 H         1 <0>         0.0589
     39 H7         -2.6651   -2.9657   -0.8615 H         1 <0>         0.0822
     40 H8         -3.9242   -2.3959    0.2602 H         1 <0>         0.0898
     41 H9         -0.3001   -3.7146    1.8955 H         1 <0>         0.0848
     42 H10        -0.8196   -4.4793    0.3745 H         1 <0>         0.0844
     43 H11        -0.3677   -2.4914   -0.8899 H         1 <0>         0.0688
     44 H12        -0.1964   -1.5081    0.5839 H         1 <0>         0.0633
     45 H13         1.0413   -2.7197    0.1735 H         1 <0>         0.0748
     46 H14         0.0002   -1.6231    2.1331 H         1 <0>         0.1542
     47 H15         1.6850   -1.3963    3.9106 H         1 <0>         0.1422
     48 H16        -1.0624   -3.0110    6.7474 H         1 <0>         0.1241
     49 H17        -2.7655   -3.2352    4.9870 H         1 <0>         0.1431
     50 H18         0.3172   -3.9131    8.1109 H         1 <0>         0.1180
     51 H19         1.1944   -6.1360    8.6990 H         1 <0>         0.1410
     52 H20         3.3595   -6.8847    7.7981 H         1 <0>         0.1426
     53 H21         3.7610   -3.1801    5.7053 H         1 <0>         0.1404
     54 H22         4.8296   -5.9564    5.3556 H         1 <0>         0.4032
     55 H23         2.0487   -2.5223    9.0326 H         1 <0>         0.1399
     56 H24         2.6827   -0.9263    8.5646 H         1 <0>         0.1403
     57 H25        -1.0768    0.0497    8.8876 H         1 <0>         0.0587
     58 H26        -0.4061    1.6343    8.4304 H         1 <0>         0.1264
     59 H27        -1.2578   -0.7441    6.3705 H         1 <0>         0.0839
     60 H28        -0.9415    0.9974    6.1823 H         1 <0>         0.1010
     61 H29         0.0572   -0.1881    5.3075 H         1 <0>         0.0991
     62 H30        -0.7854    0.7478   11.1768 H         1 <0>         0.0491
     63 H31         0.8528    1.0156   11.8193 H         1 <0>         0.1015
     64 H32         0.9108    3.2339   10.4038 H         1 <0>         0.1193
     65 H33        -1.9691    2.6564   11.1679 H         1 <0>         0.0969
     66 H34        -1.2127    4.2957   10.6785 H         1 <0>         0.1068
     67 H35         3.0253   -0.3291   10.9595 H         1 <0>         0.0790
     68 H36         1.6752   -0.4552   12.1126 H         1 <0>         0.0800
     69 H37         2.4124   -1.9294   11.4407 H         1 <0>         0.0756
     70 H38        -0.0012   -1.9448    7.9508 H         1 <0>         0.4126
@<TRIPOS>BOND
     1    1    2 1
     2    1   36 1
     3    1   37 1
     4    1   38 1
     5    2    3 1
     6    2   39 1
     7    2   40 1
     8    3    4 1
     9    3    6 am
    10    4    5 1
    11    4   41 1
    12    4   42 1
    13    5   43 1
    14    5   44 1
    15    5   45 1
    16    6    7 2
    17    6    8 1
    18    8   13 ar
    19    8    9 ar
    20    9   10 ar
    21    9   46 1
    22   10   11 ar
    23   10   47 1
    24   11   12 ar
    25   11   14 1
    26   12   13 ar
    27   12   48 1
    28   13   49 1
    29   14   15 1
    30   14   16 1
    31   14   23 1
    32   16   21 ar
    33   16   17 ar
    34   17   18 ar
    35   17   50 1
    36   18   19 ar
    37   18   51 1
    38   19   20 ar
    39   19   52 1
    40   20   21 ar
    41   20   22 1
    42   21   53 1
    43   22   54 1
    44   23   29 1
    45   23   24 1
    46   23   70 1
    47   24   25 1
    48   24   55 1
    49   24   56 1
    50   25   26 1
    51   25   27 1
    52   25   35 1
    53   27   28 1
    54   27   32 1
    55   28   29 1
    56   28   57 1
    57   28   58 1
    58   29   30 1
    59   29   31 1
    60   31   59 1
    61   31   60 1
    62   31   61 1
    63   32   33 1
    64   32   62 1
    65   32   63 1
    66   33   34 2
    67   33   64 1
    68   34   65 1
    69   34   66 1
    70   35   67 1
    71   35   68 1
    72   35   69 1
@<TRIPOS>MOLECULE
ZINC22454243
   69    71     0     0     0
SMALL
USER_CHARGES

@<TRIPOS>ATOM
      1 C1         -1.6361    0.7400   -0.4048 C.3       1 <0>        -0.1678
      2 C2         -0.4795   -0.2224   -0.1279 C.3       1 <0>         0.1108
      3 N1          0.4432   -0.2172   -1.2658 N.am      1 <0>        -0.6082
      4 C3          1.5612    0.7290   -1.2981 C.3       1 <0>         0.0925
      5 C4          2.6581    0.2551   -0.3424 C.3       1 <0>        -0.1780
      6 C5          0.2635   -1.0829   -2.2831 C.2       1 <0>         0.5592
      7 O1         -0.6961   -1.8290   -2.2839 O.2       1 <0>        -0.5319
      8 C6          1.2336   -1.1251   -3.3980 C.ar      1 <0>        -0.1322
      9 C7          2.6016   -1.0221   -3.1410 C.ar      1 <0>        -0.0992
     10 C8          3.5016   -1.0626   -4.1859 C.ar      1 <0>        -0.1277
     11 C9          3.0506   -1.2045   -5.4862 C.ar      1 <0>        -0.0354
     12 C10         1.6958   -1.3067   -5.7478 C.ar      1 <0>        -0.0943
     13 C11         0.7857   -1.2739   -4.7115 C.ar      1 <0>        -0.0670
     14 C12         4.0394   -1.2475   -6.6226 C.3       1 <0>         0.1636
     15 H1          5.0218   -1.5231   -6.2392 H         1 <0>         0.0640
     16 C13         4.1166    0.1097   -7.2730 C.ar      1 <0>        -0.0647
     17 C14         3.0645    0.5664   -8.0456 C.ar      1 <0>        -0.1032
     18 C15         3.1322    1.8110   -8.6435 C.ar      1 <0>        -0.1050
     19 C16         4.2520    2.6017   -8.4708 C.ar      1 <0>        -0.1414
     20 C17         5.3087    2.1459   -7.6963 C.ar      1 <0>         0.1062
     21 C18         5.2357    0.8989   -7.0922 C.ar      1 <0>        -0.1362
     22 O2          6.4112    2.9218   -7.5248 O.3       1 <0>        -0.4990
     23 N2          3.6040   -2.2411   -7.6132 N.3       1 <0>        -0.5248
     24 C19         4.2086   -1.9758   -8.9261 C.3       1 <0>         0.0559
     25 C20         3.6696   -2.9819   -9.9457 C.3       1 <0>         0.0851
     26 H2          2.5899   -2.8638  -10.0373 H         1 <0>         0.0496
     27 N3          3.9770   -4.3460   -9.4936 N.3       1 <0>        -0.5331
     28 C21         3.3724   -4.6113   -8.1807 C.3       1 <0>         0.0659
     29 C22         3.9114   -3.6052   -7.1611 C.3       1 <0>         0.0883
     30 H3          4.9911   -3.7233   -7.0695 H         1 <0>         0.0512
     31 C23         3.2532   -3.8531   -5.8023 C.3       1 <0>        -0.1582
     32 C24         3.5416   -5.3396  -10.4841 C.3       1 <0>         0.0755
     33 C25         4.0858   -6.6941  -10.1097 C.2       1 <0>        -0.1452
     34 C26         3.2716   -7.7102   -9.9662 C.2       1 <0>        -0.1906
     35 C27         4.3274   -2.7337  -11.3046 C.3       1 <0>        -0.1494
     36 H4         -1.2443    1.7467   -0.5503 H         1 <0>         0.0550
     37 H5         -2.1655    0.4229   -1.3033 H         1 <0>         0.0597
     38 H6         -2.3226    0.7362    0.4418 H         1 <0>         0.0673
     39 H7          0.0500    0.0947    0.7706 H         1 <0>         0.0779
     40 H8         -0.8713   -1.2291    0.0175 H         1 <0>         0.0839
     41 H9          1.9608    0.7849   -2.3106 H         1 <0>         0.0934
     42 H10         1.2120    1.7146   -0.9903 H         1 <0>         0.0765
     43 H11         3.5738    0.8143   -0.5345 H         1 <0>         0.0720
     44 H12         2.3400    0.4212    0.6868 H         1 <0>         0.0627
     45 H13         2.8419   -0.8078   -0.4988 H         1 <0>         0.0643
     46 H14         2.9549   -0.9105   -2.1265 H         1 <0>         0.1392
     47 H15         4.5604   -0.9830   -3.9885 H         1 <0>         0.1255
     48 H16         1.3503   -1.4170   -6.7651 H         1 <0>         0.1358
     49 H17        -0.2713   -1.3586   -4.9166 H         1 <0>         0.1287
     50 H18         2.1886   -0.0505   -8.1824 H         1 <0>         0.1318
     51 H19         2.3093    2.1654   -9.2465 H         1 <0>         0.1283
     52 H20         4.3048    3.5736   -8.9387 H         1 <0>         0.1282
     53 H21         6.0550    0.5437   -6.4848 H         1 <0>         0.1265
     54 H22         6.3626    3.5105   -6.7593 H         1 <0>         0.3911
     55 H23         3.9564   -0.9644   -9.2449 H         1 <0>         0.0923
     56 H24         5.2917   -2.0754   -8.8545 H         1 <0>         0.0436
     57 H25         2.2893   -4.5117   -8.2523 H         1 <0>         0.0425
     58 H26         3.6246   -5.6227   -7.8619 H         1 <0>         0.0817
     59 H27         2.1735   -3.7358   -5.8948 H         1 <0>         0.0666
     60 H28         3.4814   -4.8649   -5.4672 H         1 <0>         0.0579
     61 H29         3.6359   -3.1351   -5.0769 H         1 <0>         0.0704
     62 H30         2.4525   -5.3787  -10.5051 H         1 <0>         0.0381
     63 H31         3.9140   -5.0580  -11.4691 H         1 <0>         0.0894
     64 H32         5.1470   -6.8270   -9.9596 H         1 <0>         0.1132
     65 H33         2.2104   -7.5773  -10.1162 H         1 <0>         0.0940
     66 H34         3.6616   -8.6809   -9.6978 H         1 <0>         0.0995
     67 H35         5.4070   -2.8526  -11.2128 H         1 <0>         0.0645
     68 H36         3.9433   -3.4504  -12.0305 H         1 <0>         0.0608
     69 H37         4.1005   -1.7212  -11.6386 H         1 <0>         0.0625
@<TRIPOS>BOND
     1    1    2 1
     2    1   36 1
     3    1   37 1
     4    1   38 1
     5    2    3 1
     6    2   39 1
     7    2   40 1
     8    3    4 1
     9    3    6 am
    10    4    5 1
    11    4   41 1
    12    4   42 1
    13    5   43 1
    14    5   44 1
    15    5   45 1
    16    6    7 2
    17    6    8 1
    18    8   13 ar
    19    8    9 ar
    20    9   10 ar
    21    9   46 1
    22   10   11 ar
    23   10   47 1
    24   11   12 ar
    25   11   14 1
    26   12   13 ar
    27   12   48 1
    28   13   49 1
    29   14   15 1
    30   14   16 1
    31   14   23 1
    32   16   21 ar
    33   16   17 ar
    34   17   18 ar
    35   17   50 1
    36   18   19 ar
    37   18   51 1
    38   19   20 ar
    39   19   52 1
    40   20   21 ar
    41   20   22 1
    42   21   53 1
    43   22   54 1
    44   23   29 1
    45   23   24 1
    46   24   25 1
    47   24   55 1
    48   24   56 1
    49   25   26 1
    50   25   27 1
    51   25   35 1
    52   27   28 1
    53   27   32 1
    54   28   29 1
    55   28   57 1
    56   28   58 1
    57   29   30 1
    58   29   31 1
    59   31   59 1
    60   31   60 1
    61   31   61 1
    62   32   33 1
    63   32   62 1
    64   32   63 1
    65   33   34 2
    66   33   64 1
    67   34   65 1
    68   34   66 1
    69   35   67 1
    70   35   68 1
    71   35   69 1
@<TRIPOS>MOLECULE
ZINC02507598
   56    58     0     0     0
SMALL
USER_CHARGES

@<TRIPOS>ATOM
      1 C1          2.0474   -4.5428    3.7208 C.3       1 <0>        -0.1451
      2 C2          1.4084   -4.0189    2.4331 C.3       1 <0>        -0.1420
      3 C3          1.3905   -2.5122    2.4581 C.2       1 <0>         0.5108
      4 O1          1.7601   -1.9177    3.4485 O.2       1 <0>        -0.4895
      5 N1          0.9639   -1.8254    1.3798 N.am      1 <0>        -0.5527
      6 C4          1.0704   -0.4305    1.3517 C.ar      1 <0>         0.1484
      7 C5          0.4802    0.2919    0.3229 C.ar      1 <0>        -0.1862
      8 C6          0.5872    1.6686    0.2980 C.ar      1 <0>        -0.0955
      9 C7          1.2812    2.3278    1.2960 C.ar      1 <0>        -0.1364
     10 C8          1.8704    1.6114    2.3216 C.ar      1 <0>        -0.0851
     11 C9          1.7618    0.2350    2.3556 C.ar      1 <0>        -0.1559
     12 C10         0.3886   -2.5393    0.2371 C.3       1 <0>         0.1258
     13 C11         1.1245   -2.1339   -1.0432 C.3       1 <0>        -0.1797
     14 C12         0.4678   -2.8217   -2.2420 C.3       1 <0>        -0.0012
     15 N2         -0.9391   -2.4136   -2.3345 N.4       1 <0>        -0.3872
     16 C13        -1.6673   -2.8623   -1.1416 C.3       1 <0>        -0.0081
     17 C14        -1.0928   -2.1761    0.0995 C.3       1 <0>        -0.1783
     18 C15        -1.5441   -3.0146   -3.5306 C.3       1 <0>        -0.0078
     19 C16        -2.9724   -2.4920   -3.6972 C.3       1 <0>        -0.0991
     20 C17        -3.5931   -3.1086   -4.9242 C.ar      1 <0>        -0.1186
     21 C18        -3.4581   -2.4767   -6.1540 C.ar      1 <0>        -0.0837
     22 C19        -4.0142   -3.0217   -7.2735 C.ar      1 <0>        -0.0973
     23 C20        -4.7331   -4.2405   -7.1773 C.ar      1 <0>         0.1545
     24 C21        -4.8615   -4.8733   -5.9145 C.ar      1 <0>        -0.1647
     25 C22        -4.2893   -4.3058   -4.8145 C.ar      1 <0>        -0.0767
     26 N3         -5.2795   -4.7821   -8.2560 N.2       1 <0>        -0.4642
     27 C23        -5.9117   -5.8565   -8.1640 C.1       1 <0>         0.2086
     28 S1         -6.6974   -7.1918   -8.0496 S.2       1 <0>         0.0750
     29 H1          1.4689   -4.2004    4.5789 H         1 <0>         0.0681
     30 H2          2.0603   -5.6325    3.7028 H         1 <0>         0.0700
     31 H3          3.0682   -4.1686    3.7982 H         1 <0>         0.0658
     32 H4          1.9868   -4.3613    1.5751 H         1 <0>         0.0959
     33 H5          0.3875   -4.3931    2.3558 H         1 <0>         0.0976
     34 H6         -0.0616   -0.2224   -0.4571 H         1 <0>         0.1211
     35 H7          0.1287    2.2309   -0.5020 H         1 <0>         0.1268
     36 H8          1.3634    3.4045    1.2743 H         1 <0>         0.1271
     37 H9          2.4120    2.1291    3.0994 H         1 <0>         0.1309
     38 H10         2.2178   -0.3236    3.1596 H         1 <0>         0.1750
     39 H11         0.4877   -3.6138    0.3913 H         1 <0>         0.1190
     40 H12         1.0686   -1.0525   -1.1683 H         1 <0>         0.1125
     41 H13         2.1686   -2.4395   -0.9752 H         1 <0>         0.1214
     42 H14         0.9895   -2.5354   -3.1552 H         1 <0>         0.1386
     43 H15         0.5245   -3.9029   -2.1160 H         1 <0>         0.1338
     44 H16        -2.7220   -2.6060   -1.2425 H         1 <0>         0.1396
     45 H17        -1.5651   -3.9427   -1.0391 H         1 <0>         0.1348
     46 H18        -1.6336   -2.5119    0.9843 H         1 <0>         0.1207
     47 H19        -1.1947   -1.0956   -0.0019 H         1 <0>         0.1093
     48 H20        -0.9552   -2.7486   -4.4084 H         1 <0>         0.1353
     49 H21        -1.5644   -4.0990   -3.4217 H         1 <0>         0.1335
     50 H22        -3.5613   -2.7581   -2.8194 H         1 <0>         0.0965
     51 H23        -2.9522   -1.4077   -3.8060 H         1 <0>         0.0976
     52 H24        -2.9101   -1.5486   -6.2238 H         1 <0>         0.1349
     53 H25        -3.9082   -2.5277   -8.2280 H         1 <0>         0.1412
     54 H26        -5.4058   -5.8018   -5.8254 H         1 <0>         0.1304
     55 H27        -4.3818   -4.7871   -3.8522 H         1 <0>         0.1315
     56 H28        -0.9930   -1.4083   -2.4018 H         1 <0>         0.4229
@<TRIPOS>BOND
     1    1    2 1
     2    1   29 1
     3    1   30 1
     4    1   31 1
     5    2    3 1
     6    2   32 1
     7    2   33 1
     8    3    4 2
     9    3    5 am
    10    5    6 1
    11    5   12 1
    12    6   11 ar
    13    6    7 ar
    14    7    8 ar
    15    7   34 1
    16    8    9 ar
    17    8   35 1
    18    9   10 ar
    19    9   36 1
    20   10   11 ar
    21   10   37 1
    22   11   38 1
    23   12   17 1
    24   12   13 1
    25   12   39 1
    26   13   14 1
    27   13   40 1
    28   13   41 1
    29   14   15 1
    30   14   42 1
    31   14   43 1
    32   15   16 1
    33   15   18 1
    34   15   56 1
    35   16   17 1
    36   16   44 1
    37   16   45 1
    38   17   46 1
    39   17   47 1
    40   18   19 1
    41   18   48 1
    42   18   49 1
    43   19   20 1
    44   19   50 1
    45   19   51 1
    46   20   25 ar
    47   20   21 ar
    48   21   22 ar
    49   21   52 1
    50   22   23 ar
    51   22   53 1
    52   23   24 ar
    53   23   26 1
    54   24   25 ar
    55   24   54 1
    56   25   55 1
    57   26   27 2
    58   27   28 2
@<TRIPOS>MOLECULE
ZINC04216763
   63    65     0     0     0
SMALL
USER_CHARGES
methyl 3-methyl-1-phenethyl-4-(phenyl-propanoyl-amino)-piperidine-4-carboxylate
@<TRIPOS>ATOM
      1 C1         -3.1088    8.4880    1.6261 C.3       1 <0>        -0.1524
      2 C2         -2.2275    7.2569    1.4059 C.3       1 <0>        -0.1602
      3 C3         -3.0918    6.0812    1.0294 C.2       1 <0>         0.4738
      4 O1         -4.0711    6.2467    0.3332 O.2       1 <0>        -0.4587
      5 N1         -2.7766    4.8458    1.4662 N.am      1 <0>        -0.5351
      6 C4         -1.4790    4.5713    1.9122 C.ar      1 <0>         0.1321
      7 C5         -1.1895    3.3464    2.4991 C.ar      1 <0>        -0.1089
      8 C6          0.0913    3.0802    2.9422 C.ar      1 <0>        -0.0965
      9 C7          1.0871    4.0279    2.7928 C.ar      1 <0>        -0.1220
     10 C8          0.8032    5.2466    2.2041 C.ar      1 <0>        -0.0900
     11 C9         -0.4766    5.5208    1.7633 C.ar      1 <0>        -0.1850
     12 C10        -3.7925    3.7903    1.4742 C.3       1 <0>         0.1725
     13 C11        -4.1659    3.4503    2.9197 C.3       1 <0>        -0.1652
     14 C12        -4.7733    4.6855    3.5886 C.3       1 <0>         0.0034
     15 C13        -5.6234    5.4878    1.4659 C.3       1 <0>        -0.0613
     16 C14        -5.0414    4.2765    0.7337 C.3       1 <0>        -0.0844
     17 H1         -5.7823    3.4775    0.7060 H         1 <0>         0.1090
     18 C15        -4.6654    4.6754   -0.6948 C.3       1 <0>        -0.1032
     19 C16        -6.6536    6.2093    3.5344 C.3       1 <0>         0.0029
     20 C17        -7.2170    5.7021    4.8634 C.3       1 <0>        -0.1011
     21 C18        -7.9234    6.8289    5.5722 C.ar      1 <0>        -0.1071
     22 C19        -7.2260    7.6392    6.4486 C.ar      1 <0>        -0.1102
     23 C20        -7.8727    8.6761    7.0947 C.ar      1 <0>        -0.1141
     24 C21        -9.2195    8.8956    6.8732 C.ar      1 <0>        -0.1046
     25 C22        -9.9180    8.0820    6.0009 C.ar      1 <0>        -0.1136
     26 C23        -9.2700    7.0487    5.3504 C.ar      1 <0>        -0.1097
     27 C24        -3.2476    2.5617    0.7925 C.2       1 <0>         0.4498
     28 O2         -3.9972    1.8041    0.2231 O.2       1 <0>        -0.4736
     29 O3         -1.9296    2.3090    0.8178 O.3       1 <0>        -0.3221
     30 C25        -1.4756    1.1076    0.1403 C.3       1 <0>         0.0141
     31 H2         -2.4837    9.3383    1.8985 H         1 <0>         0.0803
     32 H3         -3.6515    8.7151    0.7085 H         1 <0>         0.0738
     33 H4         -3.8191    8.2876    2.4282 H         1 <0>         0.0519
     34 H5         -1.6848    7.0297    2.3235 H         1 <0>         0.1142
     35 H6         -1.5172    7.4573    0.6038 H         1 <0>         0.1217
     36 H7         -1.9658    2.6041    2.6120 H         1 <0>         0.1325
     37 H8          0.3163    2.1291    3.4017 H         1 <0>         0.1301
     38 H9          2.0888    3.8158    3.1364 H         1 <0>         0.1290
     39 H10         1.5832    5.9846    2.0886 H         1 <0>         0.1327
     40 H11        -0.6977    6.4727    1.3036 H         1 <0>         0.1603
     41 H12        -4.8929    2.6382    2.9264 H         1 <0>         0.1154
     42 H13        -3.2724    3.1440    3.4639 H         1 <0>         0.1331
     43 H14        -5.0533    4.4426    4.6136 H         1 <0>         0.1405
     44 H15        -4.0409    5.4928    3.5937 H         1 <0>         0.1293
     45 H16        -6.5210    5.8277    0.9492 H         1 <0>         0.1311
     46 H17        -4.8871    6.2913    1.4812 H         1 <0>         0.2060
     47 H18        -4.8584    3.8401   -1.3679 H         1 <0>         0.0436
     48 H19        -5.2623    5.5344   -1.0012 H         1 <0>         0.0844
     49 H20        -3.6077    4.9358   -0.7328 H         1 <0>         0.0666
     50 H21        -5.9480    7.0183    3.7240 H         1 <0>         0.1298
     51 H22        -7.4685    6.5766    2.9108 H         1 <0>         0.1312
     52 H23        -7.9225    4.8932    4.6739 H         1 <0>         0.0945
     53 H24        -6.4020    5.3348    5.4871 H         1 <0>         0.0931
     54 H25        -6.1749    7.4648    6.6253 H         1 <0>         0.1231
     55 H26        -7.3269    9.3120    7.7760 H         1 <0>         0.1291
     56 H27        -9.7258    9.7029    7.3815 H         1 <0>         0.1294
     57 H28       -10.9702    8.2535    5.8278 H         1 <0>         0.1292
     58 H29        -9.8159    6.4129    4.6691 H         1 <0>         0.1239
     59 H30        -0.3932    1.0231    0.2369 H         1 <0>         0.1090
     60 H31        -1.9497    0.2354    0.5905 H         1 <0>         0.0698
     61 H32        -1.7431    1.1624   -0.9149 H         1 <0>         0.0678
     62 N2         -5.9845    5.0881    2.8428 N.4       1 <0>        -0.4026
     63 H33        -6.6295    4.2904    2.7997 H         1 <0>         0.4177
@<TRIPOS>BOND
     1    1    2 1
     2    1   31 1
     3    1   32 1
     4    1   33 1
     5    2    3 1
     6    2   34 1
     7    2   35 1
     8    3    4 2
     9    3    5 am
    10    5    6 1
    11    5   12 1
    12    6   11 ar
    13    6    7 ar
    14    7    8 ar
    15    7   36 1
    16    8    9 ar
    17    8   37 1
    18    9   10 ar
    19    9   38 1
    20   10   11 ar
    21   10   39 1
    22   11   40 1
    23   12   16 1
    24   12   13 1
    25   12   27 1
    26   13   14 1
    27   13   41 1
    28   13   42 1
    29   14   43 1
    30   14   44 1
    31   14   62 1
    32   15   16 1
    33   15   45 1
    34   15   46 1
    35   15   62 1
    36   16   17 1
    37   16   18 1
    38   18   47 1
    39   18   48 1
    40   18   49 1
    41   19   20 1
    42   19   50 1
    43   19   51 1
    44   19   62 1
    45   20   21 1
    46   20   52 1
    47   20   53 1
    48   21   26 ar
    49   21   22 ar
    50   22   23 ar
    51   22   54 1
    52   23   24 ar
    53   23   55 1
    54   24   25 ar
    55   24   56 1
    56   25   26 ar
    57   25   57 1
    58   26   58 1
    59   27   28 2
    60   27   29 1
    61   29   30 1
    62   30   59 1
    63   30   60 1
    64   30   61 1
    65   62   63 1
@<TRIPOS>MOLECULE
ZINC00056526
   36    37     0     0     0
SMALL
USER_CHARGES

@<TRIPOS>ATOM
      1 C1          2.5037    1.7126    3.2140 C.3       1 <0>        -0.1237
      2 C2          1.1585    2.2578    2.8086 C.ar      1 <0>        -0.0710
      3 C3          0.9379    3.6213    2.8044 C.ar      1 <0>        -0.1067
      4 C4         -0.2961    4.1223    2.4330 C.ar      1 <0>        -0.0798
      5 C5         -1.3133    3.2607    2.0647 C.ar      1 <0>        -0.1093
      6 C6         -1.0991    1.8965    2.0664 C.ar      1 <0>        -0.0914
      7 C7          0.1412    1.3902    2.4334 C.ar      1 <0>         0.0607
      8 N1          0.3631    0.0092    2.4310 N.pl3     1 <0>        -0.6353
      9 C8          0.4090   -0.6826    3.6204 C.cat     1 <0>         0.7405
     10 N2          0.7150   -1.9495    3.6259 N.pl3     1 <0>        -0.7671
     11 N3          0.1317   -0.0363    4.8039 N.pl3     1 <0>        -0.6291
     12 C9          0.1332   -0.7493    6.0072 C.ar      1 <0>         0.0596
     13 C10         1.1662   -0.5736    6.9191 C.ar      1 <0>        -0.0907
     14 C11         1.1645   -1.2787    8.1063 C.ar      1 <0>        -0.1071
     15 C12         0.1360   -2.1594    8.3878 C.ar      1 <0>        -0.0804
     16 C13        -0.8935   -2.3370    7.4821 C.ar      1 <0>        -0.1047
     17 C14        -0.9010   -1.6301    6.2954 C.ar      1 <0>        -0.0763
     18 C15        -2.0269   -1.8192    5.3117 C.3       1 <0>        -0.1303
     19 H1          3.1435    1.6334    2.3352 H         1 <0>         0.0869
     20 H2          2.9640    2.3834    3.9394 H         1 <0>         0.0836
     21 H3          2.3764    0.7265    3.6608 H         1 <0>         0.0530
     22 H4          1.7300    4.2968    3.0918 H         1 <0>         0.1408
     23 H5         -0.4662    5.1889    2.4309 H         1 <0>         0.1404
     24 H6         -2.2763    3.6551    1.7758 H         1 <0>         0.1415
     25 H7         -1.8940    1.2242    1.7789 H         1 <0>         0.1367
     26 H8          0.4847   -0.4610    1.5914 H         1 <0>         0.4415
     27 H9          0.6889   -2.4511    4.4558 H         1 <0>         0.4432
     28 H10        -0.0647    0.9136    4.8032 H         1 <0>         0.4406
     29 H11         1.9701    0.1134    6.6995 H         1 <0>         0.1367
     30 H12         1.9674   -1.1426    8.8157 H         1 <0>         0.1422
     31 H13         0.1371   -2.7100    9.3170 H         1 <0>         0.1410
     32 H14        -1.6949   -3.0260    7.7046 H         1 <0>         0.1415
     33 H15        -1.7760   -2.6259    4.6230 H         1 <0>         0.0747
     34 H16        -2.9407   -2.0717    5.8496 H         1 <0>         0.0884
     35 H17        -2.1784   -0.8967    4.7512 H         1 <0>         0.0670
     36 H18         0.9688   -2.3908    2.8003 H         1 <0>         0.4426
@<TRIPOS>BOND
     1    1    2 1
     2    1   19 1
     3    1   20 1
     4    1   21 1
     5    2    7 ar
     6    2    3 ar
     7    3    4 ar
     8    3   22 1
     9    4    5 ar
    10    4   23 1
    11    5    6 ar
    12    5   24 1
    13    6    7 ar
    14    6   25 1
    15    7    8 1
    16    8    9 1
    17    8   26 1
    18    9   10 2
    19    9   11 1
    20   10   27 1
    21   10   36 1
    22   11   12 1
    23   11   28 1
    24   12   17 ar
    25   12   13 ar
    26   13   14 ar
    27   13   29 1
    28   14   15 ar
    29   14   30 1
    30   15   16 ar
    31   15   31 1
    32   16   17 ar
    33   16   32 1
    34   17   18 1
    35   18   33 1
    36   18   34 1
    37   18   35 1
@<TRIPOS>MOLECULE
ZINC05966698
   39    41     0     0     0
SMALL
USER_CHARGES
3-(6-methyl-6-azabicyclo[3.3.1]non-1-yl)phenol
@<TRIPOS>ATOM
      1 C1         -3.9625    3.5082   -0.6811 C.3       1 <0>        -0.0429
      2 C2         -3.0781    1.5347    0.4294 C.3       1 <0>        -0.0069
      3 C3         -2.0816    0.9744    1.4330 C.3       1 <0>        -0.1321
      4 C4         -0.6883    1.5742    1.2875 C.3       1 <0>        -0.0096
      5 C5         -0.0128    1.0919    0.0080 C.3       1 <0>        -0.1136
      6 C6         -0.7176    1.5916   -1.2440 C.3       1 <0>        -0.1332
      7 C7         -0.9894    3.0884   -1.2004 C.3       1 <0>        -0.1257
      8 C8         -1.6538    3.5214    0.0997 C.3       1 <0>         0.0351
      9 H1         -1.7184    4.6216    0.1044 H         1 <0>         0.1301
     10 C9         -0.7724    3.1023    1.2821 C.3       1 <0>        -0.1341
     11 C10         0.1487    1.1469    2.4656 C.ar      1 <0>        -0.0735
     12 C11         0.6759    2.0980    3.3198 C.ar      1 <0>        -0.1324
     13 C12         1.4394    1.7089    4.4046 C.ar      1 <0>        -0.0943
     14 C13         1.6869    0.3686    4.6315 C.ar      1 <0>        -0.1398
     15 C14         1.1640   -0.5871    3.7729 C.ar      1 <0>         0.1167
     16 C15         0.3933   -0.1942    2.6880 C.ar      1 <0>        -0.1404
     17 O1          1.4064   -1.9059    3.9936 O.3       1 <0>        -0.4982
     18 H2         -3.6425    3.2791   -1.6976 H         1 <0>         0.1275
     19 H3         -4.9364    3.0550   -0.4960 H         1 <0>         0.1194
     20 H4         -4.0354    4.5888   -0.5581 H         1 <0>         0.1189
     21 H5         -2.9935    1.0232   -0.5270 H         1 <0>         0.1397
     22 H6         -4.0957    1.2978    0.8020 H         1 <0>         0.1167
     23 H7         -2.0176   -0.1141    1.3059 H         1 <0>         0.1103
     24 H8         -2.4493    1.1643    2.4494 H         1 <0>         0.0900
     25 H9          0.0021   -0.0041    0.0020 H         1 <0>         0.0789
     26 H10         1.0272    1.4393   -0.0000 H         1 <0>         0.0784
     27 H11        -0.0555    1.3932   -2.1078 H         1 <0>         0.0820
     28 H12        -1.6296    1.0330   -1.4267 H         1 <0>         0.0691
     29 H13        -0.0351    3.6238   -1.3040 H         1 <0>         0.1091
     30 H14        -1.6132    3.3705   -2.0528 H         1 <0>         0.0859
     31 H15         0.2227    3.5269    1.1637 H         1 <0>         0.1152
     32 H16        -1.2185    3.4514    2.2113 H         1 <0>         0.0920
     33 H17         0.4875    3.1464    3.1415 H         1 <0>         0.1277
     34 H18         1.8461    2.4533    5.0730 H         1 <0>         0.1320
     35 H19         2.2874    0.0654    5.4764 H         1 <0>         0.1337
     36 H20        -0.0153   -0.9364    2.0183 H         1 <0>         0.1283
     37 H21         2.2040   -2.2373    3.5589 H         1 <0>         0.3975
     38 N1         -3.0320    3.0144    0.3503 N.4       1 <0>        -0.3874
     39 H22        -3.3398    3.3843    1.2573 H         1 <0>         0.4297
@<TRIPOS>BOND
     1    1   18 1
     2    1   19 1
     3    1   20 1
     4    1   38 1
     5    2    3 1
     6    2   21 1
     7    2   22 1
     8    2   38 1
     9    3    4 1
    10    3   23 1
    11    3   24 1
    12    4   10 1
    13    4    5 1
    14    4   11 1
    15    5    6 1
    16    5   25 1
    17    5   26 1
    18    6    7 1
    19    6   27 1
    20    6   28 1
    21    7    8 1
    22    7   29 1
    23    7   30 1
    24    8    9 1
    25    8   10 1
    26    8   38 1
    27   10   31 1
    28   10   32 1
    29   11   16 ar
    30   11   12 ar
    31   12   13 ar
    32   12   33 1
    33   13   14 ar
    34   13   34 1
    35   14   15 ar
    36   14   35 1
    37   15   16 ar
    38   15   17 1
    39   16   36 1
    40   17   37 1
    41   38   39 1
@<TRIPOS>MOLECULE
ZINC05561290
   64    69     0     0     0
SMALL
USER_CHARGES
(1-hydroxy-1-methyl-butyl)-methoxy-methyl-BLAHol
@<TRIPOS>ATOM
      1 C1         -1.8728   -0.2831   -1.2025 C.3       1 <0>        -0.1541
      2 C2         -0.6848    0.6793   -1.2582 C.3       1 <0>        -0.1239
      3 C3          0.0983    0.5993    0.0538 C.3       1 <0>        -0.1541
      4 C4          1.2864    1.5618   -0.0018 C.3       1 <0>         0.1447
      5 C5          2.1134    1.2790   -1.2576 C.3       1 <0>        -0.1484
      6 C6          2.1599    1.3660    1.2390 C.3       1 <0>        -0.0878
      7 H1          2.4452    0.3170    1.3175 H         1 <0>         0.0972
      8 C7          3.4237    2.2284    1.1121 C.3       1 <0>        -0.1123
      9 C8          3.4807    3.1961    2.2845 C.3       1 <0>        -0.0357
     10 C9          2.1982    4.0134    2.2942 C.2       1 <0>        -0.1301
     11 C10         1.1012    3.2642    2.4075 C.2       1 <0>        -0.1567
     12 C11         1.3632    1.7683    2.4908 C.3       1 <0>         0.1410
     13 C12         2.2435    1.5017    3.7211 C.3       1 <0>         0.0813
     14 H2          2.5135    0.4485    3.7978 H         1 <0>         0.1268
     15 C13         3.4897    2.3807    3.5902 C.3       1 <0>        -0.0503
     16 C14         4.7776    1.6202    3.7697 C.3       1 <0>        -0.1227
     17 C15         5.9891    2.5376    3.5870 C.3       1 <0>        -0.0073
     18 C16         4.6958    4.1035    2.2915 C.3       1 <0>         0.0694
     19 H3          4.6973    4.7136    1.3882 H         1 <0>         0.1496
     20 C17         4.8114    5.0106    3.5172 C.3       1 <0>        -0.0920
     21 C18         3.8736    4.6793    4.6284 C.ar      1 <0>        -0.0484
     22 C19         3.2489    3.4471    4.6166 C.ar      1 <0>        -0.1771
     23 C20         2.1629    3.0874    5.3910 C.ar      1 <0>         0.1137
     24 C21         1.8394    3.9224    6.4701 C.ar      1 <0>         0.1018
     25 C22         2.5576    5.1103    6.5859 C.ar      1 <0>        -0.0988
     26 C23         3.5306    5.5060    5.6806 C.ar      1 <0>        -0.1176
     27 O1          0.8695    3.5877    7.3627 O.3       1 <0>        -0.4810
     28 O2          1.5991    1.9577    4.9246 O.3       1 <0>        -0.2691
     29 C24         7.1136    4.0140    2.0286 C.3       1 <0>        -0.0474
     30 O3          0.1420    1.0307    2.5727 O.3       1 <0>        -0.3502
     31 C25        -0.6552    1.3514    3.7145 C.3       1 <0>         0.0146
     32 O4          0.8077    2.9077   -0.0399 O.3       1 <0>        -0.5497
     33 H4         -1.5097   -1.3006   -1.0576 H         1 <0>         0.0530
     34 H5         -2.5245   -0.0084   -0.3731 H         1 <0>         0.0534
     35 H6         -2.4307   -0.2261   -2.1372 H         1 <0>         0.0550
     36 H7         -1.0479    1.6968   -1.4031 H         1 <0>         0.0635
     37 H8         -0.0331    0.4046   -2.0876 H         1 <0>         0.0618
     38 H9          0.4615   -0.4182    0.1987 H         1 <0>         0.0685
     39 H10        -0.5533    0.8741    0.8832 H         1 <0>         0.1007
     40 H11         2.9775    1.9430   -1.2807 H         1 <0>         0.0589
     41 H12         2.4517    0.2429   -1.2441 H         1 <0>         0.0705
     42 H13         1.5003    1.4495   -2.1425 H         1 <0>         0.0753
     43 H14         4.3054    1.5877    1.1245 H         1 <0>         0.0664
     44 H15         3.3917    2.7872    0.1767 H         1 <0>         0.1068
     45 H16         2.1782    5.0905    2.2173 H         1 <0>         0.1389
     46 H17         0.1072    3.6854    2.4380 H         1 <0>         0.1380
     47 H18         4.8025    1.1901    4.7710 H         1 <0>         0.1173
     48 H19         4.8237    0.8164    3.0350 H         1 <0>         0.0982
     49 H20         6.9018    1.9423    3.6146 H         1 <0>         0.1375
     50 H21         6.0122    3.2718    4.3923 H         1 <0>         0.1357
     51 H22         4.6259    6.0381    3.2044 H         1 <0>         0.1187
     52 H23         5.8312    4.9487    3.8969 H         1 <0>         0.1007
     53 H24         2.3451    5.7572    7.4241 H         1 <0>         0.1406
     54 H25         4.0209    6.4610    5.7984 H         1 <0>         0.1366
     55 H26         1.1904    3.0790    8.1199 H         1 <0>         0.3971
     56 H27         7.2319    4.7750    2.8000 H         1 <0>         0.1241
     57 H28         7.9794    3.3519    2.0356 H         1 <0>         0.1266
     58 H29         7.0316    4.4946    1.0537 H         1 <0>         0.1267
     59 H30        -0.9191    2.4087    3.6880 H         1 <0>         0.0452
     60 H31        -1.5640    0.7497    3.7037 H         1 <0>         0.0918
     61 H32        -0.0906    1.1406    4.6227 H         1 <0>         0.0692
     62 H33         0.0862    3.0861    0.5788 H         1 <0>         0.3749
     63 N1          5.8894    3.2182    2.2849 N.4       1 <0>        -0.4038
     64 H34         5.7858    2.5158    1.5432 H         1 <0>         0.4271
@<TRIPOS>BOND
     1    1    2 1
     2    1   33 1
     3    1   34 1
     4    1   35 1
     5    2    3 1
     6    2   36 1
     7    2   37 1
     8    3    4 1
     9    3   38 1
    10    3   39 1
    11    4    5 1
    12    4    6 1
    13    4   32 1
    14    5   40 1
    15    5   41 1
    16    5   42 1
    17    6    7 1
    18    6   12 1
    19    6    8 1
    20    8    9 1
    21    8   43 1
    22    8   44 1
    23    9   15 1
    24    9   18 1
    25    9   10 1
    26   10   11 2
    27   10   45 1
    28   11   12 1
    29   11   46 1
    30   12   13 1
    31   12   30 1
    32   13   14 1
    33   13   28 1
    34   13   15 1
    35   15   22 1
    36   15   16 1
    37   16   17 1
    38   16   47 1
    39   16   48 1
    40   17   49 1
    41   17   50 1
    42   17   63 1
    43   18   19 1
    44   18   20 1
    45   18   63 1
    46   20   21 1
    47   20   51 1
    48   20   52 1
    49   21   26 ar
    50   21   22 ar
    51   22   23 ar
    52   23   24 ar
    53   23   28 1
    54   24   25 ar
    55   24   27 1
    56   25   26 ar
    57   25   53 1
    58   26   54 1
    59   27   55 1
    60   29   56 1
    61   29   57 1
    62   29   58 1
    63   29   63 1
    64   30   31 1
    65   31   59 1
    66   31   60 1
    67   31   61 1
    68   32   62 1
    69   63   64 1
@<TRIPOS>MOLECULE
ZINC04215196
   60    62     0     0     0
SMALL
USER_CHARGES
methyl 1-phenethyl-4-(phenyl-propanoyl-amino)-piperidine-4-carboxylate
@<TRIPOS>ATOM
      1 C1          2.1074   -3.0605    2.2980 C.3       1 <0>        -0.1434
      2 C2          2.1109   -2.2022    1.0314 C.3       1 <0>        -0.1389
      3 C3          3.4150   -1.4529    0.9360 C.2       1 <0>         0.5226
      4 O1          4.2964   -1.6647    1.7419 O.2       1 <0>        -0.5046
      5 N1          3.6019   -0.5476   -0.0447 N.am      1 <0>        -0.5682
      6 C4          2.5467   -0.2174   -0.9023 C.ar      1 <0>         0.1148
      7 C5          2.0167   -1.1769   -1.7549 C.ar      1 <0>        -0.1448
      8 C6          0.9749   -0.8479   -2.5999 C.ar      1 <0>        -0.0980
      9 C7          0.4600    0.4354   -2.5979 C.ar      1 <0>        -0.1055
     10 C8          0.9856    1.3932   -1.7502 C.ar      1 <0>        -0.0939
     11 C9          2.0271    1.0704   -0.9024 C.ar      1 <0>        -0.1190
     12 C10         4.9097    0.0908   -0.2128 C.3       1 <0>         0.1859
     13 C11         4.9230    0.8946   -1.5160 C.3       1 <0>        -0.1516
     14 C12         4.7150   -0.0577   -2.6976 C.3       1 <0>        -0.0235
     15 C13         5.7598   -1.8797   -1.4888 C.3       1 <0>         0.0051
     16 C14         5.9995   -0.9831   -0.2720 C.3       1 <0>        -0.1564
     17 C15         5.6944   -1.9110   -3.9086 C.3       1 <0>        -0.0013
     18 C16         5.9705   -1.0638   -5.1524 C.3       1 <0>        -0.1005
     19 C17         5.8796   -1.9313   -6.3813 C.ar      1 <0>        -0.1078
     20 C18         7.0066   -2.5737   -6.8588 C.ar      1 <0>        -0.1096
     21 C19         6.9222   -3.3733   -7.9833 C.ar      1 <0>        -0.1136
     22 C20         5.7129   -3.5223   -8.6361 C.ar      1 <0>        -0.1041
     23 C21         4.5871   -2.8753   -8.1620 C.ar      1 <0>        -0.1141
     24 C22         4.6704   -2.0800   -7.0344 C.ar      1 <0>        -0.1097
     25 C23         5.1734    1.0124    0.9500 C.2       1 <0>         0.4618
     26 O2          6.2934    1.1259    1.3890 O.2       1 <0>        -0.4813
     27 O3          4.1642    1.7073    1.4980 O.3       1 <0>        -0.3490
     28 C24         4.4916    2.5755    2.6148 C.3       1 <0>         0.0336
     29 H1          1.1641   -3.6024    2.3670 H         1 <0>         0.0705
     30 H2          2.9327   -3.7714    2.2575 H         1 <0>         0.0649
     31 H3          2.2227   -2.4192    3.1718 H         1 <0>         0.0639
     32 H4          1.2856   -1.4913    1.0720 H         1 <0>         0.0999
     33 H5          1.9956   -2.8434    0.1576 H         1 <0>         0.0990
     34 H6          2.4189   -2.1792   -1.7574 H         1 <0>         0.1274
     35 H7          0.5622   -1.5937   -3.2632 H         1 <0>         0.1362
     36 H8         -0.3515    0.6915   -3.2630 H         1 <0>         0.1350
     37 H9          0.5815    2.3947   -1.7513 H         1 <0>         0.1368
     38 H10         2.4369    1.8188   -0.2403 H         1 <0>         0.1392
     39 H11         4.1215    1.6330   -1.4964 H         1 <0>         0.1319
     40 H12         5.8825    1.4008   -1.6215 H         1 <0>         0.1148
     41 H13         4.7386    0.5086   -3.6286 H         1 <0>         0.1407
     42 H14         3.7493   -0.5533   -2.5983 H         1 <0>         0.1496
     43 H15         6.5422   -2.6367   -1.5419 H         1 <0>         0.1417
     44 H16         4.7891   -2.3667   -1.3955 H         1 <0>         0.1274
     45 H17         6.9759   -0.5064   -0.3580 H         1 <0>         0.1164
     46 H18         5.9671   -1.5849    0.6362 H         1 <0>         0.1468
     47 H19         6.4312   -2.7117   -3.8435 H         1 <0>         0.1337
     48 H20         4.6953   -2.3413   -3.9765 H         1 <0>         0.1325
     49 H21         5.2338   -0.2631   -5.2175 H         1 <0>         0.0942
     50 H22         6.9697   -0.6336   -5.0844 H         1 <0>         0.0957
     51 H23         7.9523   -2.4540   -6.3511 H         1 <0>         0.1242
     52 H24         7.8019   -3.8785   -8.3539 H         1 <0>         0.1293
     53 H25         5.6477   -4.1440   -9.5168 H         1 <0>         0.1294
     54 H26         3.6423   -2.9915   -8.6722 H         1 <0>         0.1291
     55 H27         3.7908   -1.5745   -6.6640 H         1 <0>         0.1234
     56 H28         5.2201    3.3203    2.2946 H         1 <0>         0.0693
     57 H29         3.5882    3.0767    2.9624 H         1 <0>         0.1100
     58 H30         4.9122    1.9811    3.4259 H         1 <0>         0.0695
     59 N2          5.8095   -1.0513   -2.7125 N.4       1 <0>        -0.3947
     60 H31         6.7084   -0.5561   -2.7431 H         1 <0>         0.4273
@<TRIPOS>BOND
     1    1    2 1
     2    1   29 1
     3    1   30 1
     4    1   31 1
     5    2    3 1
     6    2   32 1
     7    2   33 1
     8    3    4 2
     9    3    5 am
    10    5    6 1
    11    5   12 1
    12    6   11 ar
    13    6    7 ar
    14    7    8 ar
    15    7   34 1
    16    8    9 ar
    17    8   35 1
    18    9   10 ar
    19    9   36 1
    20   10   11 ar
    21   10   37 1
    22   11   38 1
    23   12   16 1
    24   12   13 1
    25   12   25 1
    26   13   14 1
    27   13   39 1
    28   13   40 1
    29   14   41 1
    30   14   42 1
    31   14   59 1
    32   15   16 1
    33   15   43 1
    34   15   44 1
    35   15   59 1
    36   16   45 1
    37   16   46 1
    38   17   18 1
    39   17   47 1
    40   17   48 1
    41   17   59 1
    42   18   19 1
    43   18   49 1
    44   18   50 1
    45   19   24 ar
    46   19   20 ar
    47   20   21 ar
    48   20   51 1
    49   21   22 ar
    50   21   52 1
    51   22   23 ar
    52   22   53 1
    53   23   24 ar
    54   23   54 1
    55   24   55 1
    56   25   26 2
    57   25   27 1
    58   27   28 1
    59   28   56 1
    60   28   57 1
    61   28   58 1
    62   59   60 1
@<TRIPOS>MOLECULE
ZINC05768354
   61    63     0     0     0
SMALL
USER_CHARGES
[1-[4-(4-fluorophenyl)-4-oxo-butyl]-3-methyl-4-phenyl-4-piperidyl] propanoate
@<TRIPOS>ATOM
      1 C1         10.7193   -2.9519   -6.0945 C.3       1 <0>        -0.1472
      2 C2         11.0260   -1.9110   -5.0159 C.3       1 <0>        -0.1174
      3 C3         10.7875   -2.5126   -3.6550 C.2       1 <0>         0.4550
      4 O1         10.4108   -3.6565   -3.5577 O.2       1 <0>        -0.4773
      5 O2         10.9935   -1.7776   -2.5508 O.3       1 <0>        -0.3501
      6 C4         10.7467   -2.4230   -1.2738 C.3       1 <0>         0.1692
      7 C5          9.2761   -2.8407   -1.1873 C.3       1 <0>        -0.1766
      8 C6          8.3917   -1.5937   -1.2567 C.3       1 <0>        -0.0084
      9 C7         10.1230   -0.2388   -0.2374 C.3       1 <0>         0.0005
     10 C8         11.0591   -1.4454   -0.1375 C.3       1 <0>        -0.0921
     11 H1         10.9111   -1.9424    0.8212 H         1 <0>         0.1129
     12 C9         12.5110   -0.9763   -0.2509 C.3       1 <0>        -0.1500
     13 C10         7.8068    0.4520   -0.1019 C.3       1 <0>        -0.0046
     14 C11         6.3689   -0.0459   -0.2612 C.3       1 <0>        -0.1477
     15 C12         5.4087    1.1444   -0.2125 C.3       1 <0>        -0.1546
     16 C13         3.9924    0.6540   -0.3694 C.2       1 <0>         0.4028
     17 O3          3.7726   -0.5307   -0.5067 O.2       1 <0>        -0.4473
     18 C14         2.8772    1.6118   -0.3560 C.ar      1 <0>        -0.1969
     19 C15         1.5608    1.1597   -0.5015 C.ar      1 <0>        -0.0256
     20 C16         0.5204    2.0624   -0.4876 C.ar      1 <0>        -0.1649
     21 C17         0.7753    3.4169   -0.3304 C.ar      1 <0>         0.1442
     22 C18         2.0778    3.8716   -0.1857 C.ar      1 <0>        -0.1668
     23 C19         3.1273    2.9795   -0.1973 C.ar      1 <0>        -0.0431
     24 F1         -0.2491    4.2976   -0.3237 F         1 <0>        -0.1256
     25 C20        11.6246   -3.6412   -1.1457 C.ar      1 <0>        -0.1073
     26 C21        11.3153   -4.6220   -0.2221 C.ar      1 <0>        -0.1098
     27 C22        12.1179   -5.7417   -0.1080 C.ar      1 <0>        -0.1109
     28 C23        13.2356   -5.8756   -0.9102 C.ar      1 <0>        -0.1044
     29 C24        13.5479   -4.8922   -1.8302 C.ar      1 <0>        -0.1095
     30 C25        12.7424   -3.7750   -1.9480 C.ar      1 <0>        -0.0992
     31 H2          9.6782   -3.2640   -6.0126 H         1 <0>         0.0652
     32 H3         10.8918   -2.5168   -7.0789 H         1 <0>         0.0762
     33 H4         11.3694   -3.8165   -5.9604 H         1 <0>         0.0672
     34 H5         10.3759   -1.0464   -5.1500 H         1 <0>         0.1055
     35 H6         12.0671   -1.5988   -5.0978 H         1 <0>         0.1088
     36 H7          9.0365   -3.5035   -2.0188 H         1 <0>         0.1374
     37 H8          9.1002   -3.3603   -0.2454 H         1 <0>         0.1064
     38 H9          7.3445   -1.8865   -1.1810 H         1 <0>         0.1407
     39 H10         8.5582   -1.0828   -2.2050 H         1 <0>         0.1307
     40 H11        10.2814    0.2658   -1.1905 H         1 <0>         0.1392
     41 H12        10.3333    0.4525    0.5787 H         1 <0>         0.1359
     42 H13        12.7313   -0.2780    0.5566 H         1 <0>         0.0726
     43 H14        13.1772   -1.8360   -0.1797 H         1 <0>         0.0798
     44 H15        12.6588   -0.4806   -1.2103 H         1 <0>         0.0761
     45 H16         8.0437    1.1433   -0.9107 H         1 <0>         0.1335
     46 H17         7.9103    0.9634    0.8551 H         1 <0>         0.1331
     47 H18         6.1320   -0.7371    0.5476 H         1 <0>         0.0960
     48 H19         6.2653   -0.5572   -1.2182 H         1 <0>         0.0968
     49 H20         5.6261    1.7786   -0.9545 H         1 <0>         0.1002
     50 H21         5.5122    1.6557    0.7445 H         1 <0>         0.1129
     51 H22         1.3611    0.1055   -0.6247 H         1 <0>         0.1460
     52 H23        -0.4960    1.7148   -0.5998 H         1 <0>         0.1479
     53 H24         2.2695    4.9274   -0.0636 H         1 <0>         0.1470
     54 H25         4.1409    3.3347   -0.0842 H         1 <0>         0.1410
     55 H26        10.4445   -4.5154    0.4078 H         1 <0>         0.1198
     56 H27        11.8742   -6.5099    0.6111 H         1 <0>         0.1290
     57 H28        13.8652   -6.7483   -0.8180 H         1 <0>         0.1292
     58 H29        14.4213   -4.9966   -2.4568 H         1 <0>         0.1280
     59 H30        12.9865   -3.0066   -2.6665 H         1 <0>         0.1175
     60 N1          8.7248   -0.7055   -0.1229 N.4       1 <0>        -0.3942
     61 H31         8.6196   -1.2304    0.7533 H         1 <0>         0.4273
@<TRIPOS>BOND
     1    1    2 1
     2    1   31 1
     3    1   32 1
     4    1   33 1
     5    2    3 1
     6    2   34 1
     7    2   35 1
     8    3    4 2
     9    3    5 1
    10    5    6 1
    11    6   10 1
    12    6    7 1
    13    6   25 1
    14    7    8 1
    15    7   36 1
    16    7   37 1
    17    8   38 1
    18    8   39 1
    19    8   60 1
    20    9   10 1
    21    9   40 1
    22    9   41 1
    23    9   60 1
    24   10   11 1
    25   10   12 1
    26   12   42 1
    27   12   43 1
    28   12   44 1
    29   13   14 1
    30   13   45 1
    31   13   46 1
    32   13   60 1
    33   14   15 1
    34   14   47 1
    35   14   48 1
    36   15   16 1
    37   15   49 1
    38   15   50 1
    39   16   17 2
    40   16   18 1
    41   18   23 ar
    42   18   19 ar
    43   19   20 ar
    44   19   51 1
    45   20   21 ar
    46   20   52 1
    47   21   22 ar
    48   21   24 1
    49   22   23 ar
    50   22   53 1
    51   23   54 1
    52   25   30 ar
    53   25   26 ar
    54   26   27 ar
    55   26   55 1
    56   27   28 ar
    57   27   56 1
    58   28   29 ar
    59   28   57 1
    60   29   30 ar
    61   29   58 1
    62   30   59 1
    63   60   61 1
@<TRIPOS>MOLECULE
ZINC05768418
   61    63     0     0     0
SMALL
USER_CHARGES
[1-[4-(4-fluorophenyl)-4-oxo-butyl]-3-methyl-4-phenyl-4-piperidyl] propanoate
@<TRIPOS>ATOM
      1 C1          8.0589   -7.5747   -2.2333 C.3       1 <0>        -0.1464
      2 C2          7.7964   -6.5992   -1.0842 C.3       1 <0>        -0.1182
      3 C3          8.9025   -5.5771   -1.0303 C.2       1 <0>         0.4563
      4 O1          9.8078   -5.6240   -1.8291 O.2       1 <0>        -0.4772
      5 O2          8.8819   -4.6145   -0.0950 O.3       1 <0>        -0.3514
      6 C4          9.9161   -3.5983   -0.1720 C.3       1 <0>         0.1698
      7 C5          9.8139   -2.8648   -1.5122 C.3       1 <0>        -0.1791
      8 C6          8.4602   -2.1562   -1.5984 C.3       1 <0>        -0.0040
      9 C7          8.3808   -1.8912    0.8090 C.3       1 <0>        -0.0029
     10 C8          9.7322   -2.5918    0.9671 C.3       1 <0>        -0.0941
     11 H1          9.7613   -3.1148    1.9230 H         1 <0>         0.1305
     12 C9         10.8548   -1.5535    0.9176 C.3       1 <0>        -0.1722
     13 C10         7.1063   -0.4062   -0.6162 C.3       1 <0>        -0.0061
     14 C11         5.8870   -1.3166   -0.4563 C.3       1 <0>        -0.1422
     15 C12         4.6092   -0.4858   -0.5900 C.3       1 <0>        -0.1549
     16 C13         3.4083   -1.3825   -0.4326 C.2       1 <0>         0.4033
     17 O3          3.5595   -2.5692   -0.2331 O.2       1 <0>        -0.4469
     18 C14         2.0534   -0.8188   -0.5207 C.ar      1 <0>        -0.1968
     19 C15         0.9361   -1.6487   -0.3750 C.ar      1 <0>        -0.0256
     20 C16        -0.3307   -1.1140   -0.4583 C.ar      1 <0>        -0.1650
     21 C17        -0.5002    0.2437   -0.6865 C.ar      1 <0>         0.1441
     22 C18         0.6031    1.0719   -0.8318 C.ar      1 <0>        -0.1668
     23 C19         1.8753    0.5501   -0.7503 C.ar      1 <0>        -0.0432
     24 F1         -1.7453    0.7608   -0.7731 F         1 <0>        -0.1257
     25 C20        11.2706   -4.2485   -0.0557 C.ar      1 <0>        -0.1071
     26 C21        11.4116   -5.4315    0.6454 C.ar      1 <0>        -0.1017
     27 C22        12.6532   -6.0304    0.7480 C.ar      1 <0>        -0.1095
     28 C23        13.7557   -5.4411    0.1579 C.ar      1 <0>        -0.1042
     29 C24        13.6158   -4.2552   -0.5385 C.ar      1 <0>        -0.1128
     30 C25        12.3732   -3.6590   -0.6455 C.ar      1 <0>        -0.1072
     31 H2          7.2589   -8.3140   -2.2722 H         1 <0>         0.0761
     32 H3          8.0931   -7.0264   -3.1747 H         1 <0>         0.0645
     33 H4          9.0118   -8.0787   -2.0715 H         1 <0>         0.0670
     34 H5          7.7622   -7.1476   -0.1427 H         1 <0>         0.1091
     35 H6          6.8435   -6.0953   -1.2459 H         1 <0>         0.1064
     36 H7          9.9015   -3.5828   -2.3276 H         1 <0>         0.1350
     37 H8         10.6150   -2.1294   -1.5872 H         1 <0>         0.1092
     38 H9          7.6598   -2.8936   -1.5379 H         1 <0>         0.1324
     39 H10         8.3903   -1.6211   -2.5455 H         1 <0>         0.1354
     40 H11         8.2530   -1.1636    1.6105 H         1 <0>         0.1364
     41 H12         7.5808   -2.6298    0.8582 H         1 <0>         0.1420
     42 H13        10.8749   -1.0869   -0.0673 H         1 <0>         0.0564
     43 H14        10.6789   -0.7917    1.6771 H         1 <0>         0.0846
     44 H15        11.8104   -2.0422    1.1077 H         1 <0>         0.0941
     45 H16         7.0809    0.0659   -1.5982 H         1 <0>         0.1321
     46 H17         7.0899    0.3620    0.1569 H         1 <0>         0.1334
     47 H18         5.9124   -1.7888    0.5257 H         1 <0>         0.0968
     48 H19         5.9034   -2.0849   -1.2294 H         1 <0>         0.0931
     49 H20         4.5860   -0.0526   -1.4910 H         1 <0>         0.0999
     50 H21         4.5928    0.2824    0.1831 H         1 <0>         0.1127
     51 H22         1.0667   -2.7061   -0.1980 H         1 <0>         0.1460
     52 H23        -1.1938   -1.7534   -0.3460 H         1 <0>         0.1478
     53 H24         0.4643    2.1282   -1.0092 H         1 <0>         0.1469
     54 H25         2.7335    1.1960   -0.8633 H         1 <0>         0.1409
     55 H26        10.5510   -5.8897    1.1099 H         1 <0>         0.1198
     56 H27        12.7626   -6.9568    1.2923 H         1 <0>         0.1279
     57 H28        14.7264   -5.9071    0.2412 H         1 <0>         0.1287
     58 H29        14.4772   -3.7946   -0.9992 H         1 <0>         0.1285
     59 H30        12.2639   -2.7325   -1.1895 H         1 <0>         0.1204
     60 N1          8.3558   -1.1844   -0.4894 N.4       1 <0>        -0.3940
     61 H31         9.1550   -0.5413   -0.5339 H         1 <0>         0.4277
@<TRIPOS>BOND
     1    1    2 1
     2    1   31 1
     3    1   32 1
     4    1   33 1
     5    2    3 1
     6    2   34 1
     7    2   35 1
     8    3    4 2
     9    3    5 1
    10    5    6 1
    11    6   10 1
    12    6    7 1
    13    6   25 1
    14    7    8 1
    15    7   36 1
    16    7   37 1
    17    8   38 1
    18    8   39 1
    19    8   60 1
    20    9   10 1
    21    9   40 1
    22    9   41 1
    23    9   60 1
    24   10   11 1
    25   10   12 1
    26   12   42 1
    27   12   43 1
    28   12   44 1
    29   13   14 1
    30   13   45 1
    31   13   46 1
    32   13   60 1
    33   14   15 1
    34   14   47 1
    35   14   48 1
    36   15   16 1
    37   15   49 1
    38   15   50 1
    39   16   17 2
    40   16   18 1
    41   18   23 ar
    42   18   19 ar
    43   19   20 ar
    44   19   51 1
    45   20   21 ar
    46   20   52 1
    47   21   22 ar
    48   21   24 1
    49   22   23 ar
    50   22   53 1
    51   23   54 1
    52   25   30 ar
    53   25   26 ar
    54   26   27 ar
    55   26   55 1
    56   27   28 ar
    57   27   56 1
    58   28   29 ar
    59   28   57 1
    60   29   30 ar
    61   29   58 1
    62   30   59 1
    63   60   61 1
@<TRIPOS>MOLECULE
ZINC03783617
   61    63     0     0     0
SMALL
USER_CHARGES
3-[1-(3-cyclohexyl-3-hydroxy-propyl)-3,4-dimethyl-4-piperidyl]phenol
@<TRIPOS>ATOM
      1 C1          1.2753   -5.9874    6.3433 C.3       1 <0>        -0.1675
      2 C2          2.1716   -6.6399    5.2888 C.3       1 <0>        -0.1036
      3 H1          2.0043   -7.7169    5.2850 H         1 <0>         0.1202
      4 C3          1.8388   -6.0662    3.9097 C.3       1 <0>        -0.0004
      5 C4          3.4972   -4.3189    4.1726 C.3       1 <0>        -0.0076
      6 C5          3.8795   -4.8404    5.5597 C.3       1 <0>        -0.1427
      7 C6          3.6396   -6.3517    5.6154 C.3       1 <0>        -0.0184
      8 C7          4.5376   -7.0513    4.5932 C.3       1 <0>        -0.1534
      9 C8          3.9575   -6.8615    6.9974 C.ar      1 <0>        -0.0653
     10 C9          4.4861   -6.0044    7.9453 C.ar      1 <0>        -0.1325
     11 C10         4.7744   -6.4679    9.2154 C.ar      1 <0>        -0.0937
     12 C11         4.5446   -7.7916    9.5377 C.ar      1 <0>        -0.1405
     13 C12         4.0194   -8.6546    8.5872 C.ar      1 <0>         0.1174
     14 C13         3.7260   -8.1857    7.3147 C.ar      1 <0>        -0.1410
     15 O1          3.7921   -9.9569    8.9019 O.3       1 <0>        -0.4983
     16 C14         1.6449   -4.0113    2.6446 C.3       1 <0>        -0.0030
     17 C15         1.6822   -2.4870    2.7710 C.3       1 <0>        -0.1869
     18 C16         1.2248   -1.8548    1.4549 C.3       1 <0>         0.1168
     19 H2          0.2430   -2.2447    1.1864 H         1 <0>         0.1096
     20 C17         1.1426   -0.3360    1.6202 C.3       1 <0>        -0.1184
     21 C18         0.5670    0.2853    0.3460 C.3       1 <0>        -0.1114
     22 C19         0.4848    1.8041    0.5113 C.3       1 <0>        -0.1228
     23 C20         1.8850    2.3661    0.7652 C.3       1 <0>        -0.1238
     24 C21         2.4606    1.7448    2.0394 C.3       1 <0>        -0.1194
     25 C22         2.5428    0.2260    1.8741 C.3       1 <0>        -0.1204
     26 O2          2.1615   -2.1716    0.4233 O.3       1 <0>        -0.5536
     27 H3          0.2355   -6.2510    6.1498 H         1 <0>         0.0750
     28 H4          1.5618   -6.3421    7.3334 H         1 <0>         0.0875
     29 H5          1.3901   -4.9045    6.2980 H         1 <0>         0.0489
     30 H6          0.7904   -6.2572    3.6802 H         1 <0>         0.1310
     31 H7          2.4677   -6.5419    3.1572 H         1 <0>         0.1341
     32 H8          4.1182   -4.8028    3.4188 H         1 <0>         0.1338
     33 H9          3.6533   -3.2409    4.1342 H         1 <0>         0.1291
     34 H10         3.2683   -4.3468    6.3152 H         1 <0>         0.0944
     35 H11         4.9323   -4.6319    5.7500 H         1 <0>         0.1165
     36 H12         4.3085   -6.6804    3.5942 H         1 <0>         0.0581
     37 H13         5.5823   -6.8457    4.8264 H         1 <0>         0.0740
     38 H14         4.3618   -8.1264    4.6307 H         1 <0>         0.0729
     39 H15         4.6703   -4.9703    7.6940 H         1 <0>         0.1268
     40 H16         5.1833   -5.7956    9.9552 H         1 <0>         0.1317
     41 H17         4.7742   -8.1543   10.5288 H         1 <0>         0.1334
     42 H18         3.3173   -8.8557    6.5727 H         1 <0>         0.1279
     43 H19         4.5435  -10.5404    8.7285 H         1 <0>         0.3976
     44 H20         0.6275   -4.3326    2.4214 H         1 <0>         0.1295
     45 H21         2.3098   -4.3256    1.8401 H         1 <0>         0.1373
     46 H22         2.6996   -2.1657    2.9941 H         1 <0>         0.0921
     47 H23         1.0173   -2.1728    3.5754 H         1 <0>         0.0960
     48 H24         0.4965   -0.0969    2.4649 H         1 <0>         0.0817
     49 H25        -0.4306   -0.1150    0.1652 H         1 <0>         0.0633
     50 H26         1.2131    0.0462   -0.4987 H         1 <0>         0.0715
     51 H27         0.0747    2.2467   -0.3964 H         1 <0>         0.0668
     52 H28        -0.1613    2.0432    1.3560 H         1 <0>         0.0617
     53 H29         2.5311    2.1270   -0.0795 H         1 <0>         0.0635
     54 H30         1.8264    3.4481    0.8829 H         1 <0>         0.0655
     55 H31         1.8145    1.9839    2.8841 H         1 <0>         0.0629
     56 H32         3.4582    2.1451    2.2202 H         1 <0>         0.0653
     57 H33         2.9529   -0.2166    2.7818 H         1 <0>         0.0582
     58 H34         3.1889   -0.0131    1.0294 H         1 <0>         0.0667
     59 H35         3.0586   -1.8544    0.5957 H         1 <0>         0.3776
     60 N1          2.0675   -4.6056    3.9296 N.4       1 <0>        -0.3948
     61 H36         1.5114   -4.1918    4.6871 H         1 <0>         0.4232
@<TRIPOS>BOND
     1    1    2 1
     2    1   27 1
     3    1   28 1
     4    1   29 1
     5    2    3 1
     6    2    7 1
     7    2    4 1
     8    4   30 1
     9    4   31 1
    10    4   60 1
    11    5    6 1
    12    5   32 1
    13    5   33 1
    14    5   60 1
    15    6    7 1
    16    6   34 1
    17    6   35 1
    18    7    8 1
    19    7    9 1
    20    8   36 1
    21    8   37 1
    22    8   38 1
    23    9   14 ar
    24    9   10 ar
    25   10   11 ar
    26   10   39 1
    27   11   12 ar
    28   11   40 1
    29   12   13 ar
    30   12   41 1
    31   13   14 ar
    32   13   15 1
    33   14   42 1
    34   15   43 1
    35   16   17 1
    36   16   44 1
    37   16   45 1
    38   16   60 1
    39   17   18 1
    40   17   46 1
    41   17   47 1
    42   18   19 1
    43   18   20 1
    44   18   26 1
    45   20   25 1
    46   20   21 1
    47   20   48 1
    48   21   22 1
    49   21   49 1
    50   21   50 1
    51   22   23 1
    52   22   51 1
    53   22   52 1
    54   23   24 1
    55   23   53 1
    56   23   54 1
    57   24   25 1
    58   24   55 1
    59   24   56 1
    60   25   57 1
    61   25   58 1
    62   26   59 1
    63   60   61 1
@<TRIPOS>MOLECULE
ZINC26186543
   45    47     0     0     0
SMALL
USER_CHARGES
1-[(1R,5S)-3-cinnamyl-3,8-diazabicyclo[3.2.1]octan-8-yl]propan-1-one
@<TRIPOS>ATOM
      1 C1         -0.7288    1.5792    1.2668 C.3       1 <0>        -0.1396
      2 C2         -0.0127    1.0858    0.0080 C.3       1 <0>        -0.1411
      3 C3         -0.7416    1.5850   -1.2129 C.2       1 <0>         0.5330
      4 O1         -1.7359    2.2682   -1.0884 O.2       1 <0>        -0.5396
      5 N1         -0.2884    1.2723   -2.4431 N.am      1 <0>        -0.6258
      6 C4          0.9005    0.4631   -2.8107 C.3       1 <0>         0.1237
      7 H1          1.5711    0.2956   -1.9549 H         1 <0>         0.1049
      8 C5          1.5466    1.2527   -3.9735 C.3       1 <0>        -0.1150
      9 C6          0.3869    2.0433   -4.6017 C.3       1 <0>        -0.1120
     10 C7         -0.8530    1.6586   -3.7605 C.3       1 <0>         0.1342
     11 H2         -1.6045    2.4569   -3.6714 H         1 <0>         0.1078
     12 C8         -1.4599    0.3881   -4.3787 C.3       1 <0>         0.0436
     13 N2         -0.3866   -0.5879   -4.6141 N.3       1 <0>        -0.5261
     14 C9          0.3698   -0.8676   -3.3855 C.3       1 <0>         0.0437
     15 C10        -0.9198   -1.8262   -5.1974 C.3       1 <0>         0.0825
     16 C11         0.2213   -2.7002   -5.6500 C.2       1 <0>        -0.1342
     17 C12         0.3163   -3.9471   -5.2099 C.2       1 <0>        -0.1207
     18 C13         1.4356   -4.8043   -5.6539 C.ar      1 <0>        -0.0551
     19 C14         2.3907   -4.3061   -6.5407 C.ar      1 <0>        -0.1146
     20 C15         3.4368   -5.1093   -6.9460 C.ar      1 <0>        -0.1180
     21 C16         3.5327   -6.4102   -6.4851 C.ar      1 <0>        -0.1208
     22 C17         2.5856   -6.9122   -5.6106 C.ar      1 <0>        -0.1189
     23 C18         1.5384   -6.1172   -5.1924 C.ar      1 <0>        -0.1109
     24 H3         -0.1967    1.2148    2.1579 H         1 <0>         0.0633
     25 H4         -1.7608    1.1984    1.2746 H         1 <0>         0.0617
     26 H5         -0.7437    2.6791    1.2728 H         1 <0>         0.0629
     27 H6          1.0193    1.4666    0.0002 H         1 <0>         0.0933
     28 H7          0.0023   -0.0141    0.0019 H         1 <0>         0.0910
     29 H8          2.3264    1.9188   -3.5757 H         1 <0>         0.0644
     30 H9          1.9959    0.5489   -4.6896 H         1 <0>         0.0865
     31 H10         0.6026    3.1203   -4.5419 H         1 <0>         0.0651
     32 H11         0.2719    1.7504   -5.6557 H         1 <0>         0.0877
     33 H12        -2.2032   -0.0367   -3.6880 H         1 <0>         0.0386
     34 H13        -1.9475    0.6409   -5.3318 H         1 <0>         0.0903
     35 H14         1.2163   -1.5321   -3.6133 H         1 <0>         0.0912
     36 H15        -0.2867   -1.3503   -2.6466 H         1 <0>         0.0368
     37 H16        -1.5141   -2.3611   -4.4420 H         1 <0>         0.0396
     38 H17        -1.5577   -1.5806   -6.0592 H         1 <0>         0.0891
     39 H18         0.9755   -2.3035   -6.3456 H         1 <0>         0.1237
     40 H19        -0.4379   -4.3438   -4.5143 H         1 <0>         0.1178
     41 H20         2.3140   -3.2923   -6.9052 H         1 <0>         0.1250
     42 H21         4.1796   -4.7232   -7.6283 H         1 <0>         0.1233
     43 H22         4.3507   -7.0364   -6.8092 H         1 <0>         0.1220
     44 H23         2.6663   -7.9285   -5.2542 H         1 <0>         0.1231
     45 H24         0.8000   -6.5100   -4.5091 H         1 <0>         0.1224
@<TRIPOS>BOND
     1    1    2 1
     2    1   24 1
     3    1   25 1
     4    1   26 1
     5    2    3 1
     6    2   27 1
     7    2   28 1
     8    3    4 2
     9    3    5 am
    10    5   10 1
    11    5    6 1
    12    6    7 1
    13    6   14 1
    14    6    8 1
    15    8    9 1
    16    8   29 1
    17    8   30 1
    18    9   10 1
    19    9   31 1
    20    9   32 1
    21   10   11 1
    22   10   12 1
    23   12   13 1
    24   12   33 1
    25   12   34 1
    26   13   14 1
    27   13   15 1
    28   14   35 1
    29   14   36 1
    30   15   16 1
    31   15   37 1
    32   15   38 1
    33   16   17 2
    34   16   39 1
    35   17   18 1
    36   17   40 1
    37   18   23 ar
    38   18   19 ar
    39   19   20 ar
    40   19   41 1
    41   20   21 ar
    42   20   42 1
    43   21   22 ar
    44   21   43 1
    45   22   23 ar
    46   22   44 1
    47   23   45 1
@<TRIPOS>MOLECULE
ZINC26186543
   46    48     0     0     0
SMALL
USER_CHARGES
1-[(1R,5S)-3-cinnamyl-3,8-diazabicyclo[3.2.1]octan-8-yl]propan-1-one
@<TRIPOS>ATOM
      1 C1         -0.7288    1.5792    1.2668 C.3       1 <0>        -0.1465
      2 C2         -0.0127    1.0858    0.0080 C.3       1 <0>        -0.1408
      3 C3         -0.7416    1.5850   -1.2129 C.2       1 <0>         0.5380
      4 O1         -1.7359    2.2682   -1.0884 O.2       1 <0>        -0.5078
      5 N1         -0.2884    1.2723   -2.4431 N.am      1 <0>        -0.6342
      6 C4          0.9005    0.4631   -2.8107 C.3       1 <0>         0.1147
      7 H1          1.5711    0.2956   -1.9549 H         1 <0>         0.1439
      8 C5          1.5466    1.2527   -3.9735 C.3       1 <0>        -0.1563
      9 C6          0.3869    2.0433   -4.6017 C.3       1 <0>        -0.1527
     10 C7         -0.8530    1.6586   -3.7605 C.3       1 <0>         0.1215
     11 H2         -1.6045    2.4569   -3.6714 H         1 <0>         0.1458
     12 C8         -1.4599    0.3881   -4.3787 C.3       1 <0>        -0.0172
     13 N2         -0.3866   -0.5879   -4.6141 N.4       1 <0>        -0.3956
     14 C9          0.3698   -0.8676   -3.3855 C.3       1 <0>        -0.0191
     15 C10        -0.9198   -1.8262   -5.1974 C.3       1 <0>         0.0392
     16 C11         0.2213   -2.7002   -5.6500 C.2       1 <0>        -0.2524
     17 C12         0.3163   -3.9471   -5.2099 C.2       1 <0>        -0.0192
     18 C13         1.4356   -4.8043   -5.6539 C.ar      1 <0>        -0.0985
     19 C14         2.3907   -4.3061   -6.5407 C.ar      1 <0>        -0.1003
     20 C15         3.4368   -5.1093   -6.9460 C.ar      1 <0>        -0.1210
     21 C16         3.5327   -6.4102   -6.4851 C.ar      1 <0>        -0.0948
     22 C17         2.5856   -6.9122   -5.6106 C.ar      1 <0>        -0.1189
     23 C18         1.5384   -6.1172   -5.1924 C.ar      1 <0>        -0.0904
     24 H3         -0.1967    1.2148    2.1579 H         1 <0>         0.0715
     25 H4         -1.7608    1.1984    1.2746 H         1 <0>         0.0651
     26 H5         -0.7437    2.6791    1.2728 H         1 <0>         0.0670
     27 H6          1.0193    1.4666    0.0002 H         1 <0>         0.1002
     28 H7          0.0023   -0.0141    0.0019 H         1 <0>         0.0956
     29 H8          2.3264    1.9188   -3.5757 H         1 <0>         0.1061
     30 H9          1.9959    0.5489   -4.6896 H         1 <0>         0.0905
     31 H10         0.6026    3.1203   -4.5419 H         1 <0>         0.1067
     32 H11         0.2719    1.7504   -5.6557 H         1 <0>         0.0910
     33 H12        -2.2032   -0.0367   -3.6880 H         1 <0>         0.1313
     34 H13        -1.9475    0.6409   -5.3318 H         1 <0>         0.1443
     35 H14         1.2163   -1.5321   -3.6133 H         1 <0>         0.1441
     36 H15        -0.2867   -1.3503   -2.6466 H         1 <0>         0.1294
     37 H16        -1.5141   -2.3611   -4.4420 H         1 <0>         0.1263
     38 H17        -1.5577   -1.5806   -6.0592 H         1 <0>         0.1386
     39 H18         0.9755   -2.3035   -6.3456 H         1 <0>         0.1400
     40 H19        -0.4379   -4.3438   -4.5143 H         1 <0>         0.1320
     41 H20         2.3140   -3.2923   -6.9052 H         1 <0>         0.1237
     42 H21         4.1796   -4.7232   -7.6283 H         1 <0>         0.1300
     43 H22         4.3507   -7.0364   -6.8092 H         1 <0>         0.1308
     44 H23         2.6663   -7.9285   -5.2542 H         1 <0>         0.1318
     45 H24         0.8000   -6.5100   -4.5091 H         1 <0>         0.1286
     46 H25         0.3119   -0.1425   -5.3378 H         1 <0>         0.4380
@<TRIPOS>BOND
     1    1    2 1
     2    1   24 1
     3    1   25 1
     4    1   26 1
     5    2    3 1
     6    2   27 1
     7    2   28 1
     8    3    4 2
     9    3    5 am
    10    5   10 1
    11    5    6 1
    12    6    7 1
    13    6   14 1
    14    6    8 1
    15    8    9 1
    16    8   29 1
    17    8   30 1
    18    9   10 1
    19    9   31 1
    20    9   32 1
    21   10   11 1
    22   10   12 1
    23   12   13 1
    24   12   33 1
    25   12   34 1
    26   13   14 1
    27   13   15 1
    28   13   46 1
    29   14   35 1
    30   14   36 1
    31   15   16 1
    32   15   37 1
    33   15   38 1
    34   16   17 2
    35   16   39 1
    36   17   18 1
    37   17   40 1
    38   18   23 ar
    39   18   19 ar
    40   19   20 ar
    41   19   41 1
    42   20   21 ar
    43   20   42 1
    44   21   22 ar
    45   21   43 1
    46   22   23 ar
    47   22   44 1
    48   23   45 1
@<TRIPOS>MOLECULE
ZINC26263384
   45    47     0     0     0
SMALL
USER_CHARGES

@<TRIPOS>ATOM
      1 C1         -0.0187    1.5258    0.0104 C.3       1 <0>        -0.1382
      2 C2          0.0021   -0.0041    0.0020 C.3       1 <0>        -0.1438
      3 C3         -1.4117   -0.5257    0.0127 C.2       1 <0>         0.5127
      4 O1         -2.3441    0.2498    0.0258 O.2       1 <0>        -0.5404
      5 N1         -1.6400   -1.8540    0.0078 N.am      1 <0>        -0.6100
      6 C4         -0.5200   -2.8083   -0.0019 C.3       1 <0>         0.1203
      7 C5         -0.7946   -3.8764    1.0715 C.3       1 <0>         0.0450
      8 H1          0.0157   -4.6017    1.1456 H         1 <0>         0.1066
      9 C6         -1.0498   -3.1469    2.4098 C.3       1 <0>        -0.1442
     10 C7         -2.5678   -2.8739    2.4309 C.3       1 <0>        -0.1436
     11 C8         -3.0969   -3.4623    1.1034 C.3       1 <0>         0.0456
     12 H2         -4.1026   -3.8700    1.2052 H         1 <0>         0.1041
     13 C9         -3.0144   -2.3797    0.0181 C.3       1 <0>         0.1260
     14 N2         -2.0934   -4.5166    0.7318 N.3       1 <0>        -0.4940
     15 C10        -2.2991   -5.7399    1.5187 C.3       1 <0>         0.0713
     16 C11        -3.4918   -6.4881    0.9815 C.2       1 <0>        -0.1322
     17 C12        -3.3686   -7.7559    0.6142 C.2       1 <0>        -0.1112
     18 C13        -4.5385   -8.4898    0.0873 C.ar      1 <0>        -0.0555
     19 C14        -5.7726   -7.8493   -0.0301 C.ar      1 <0>        -0.1149
     20 C15        -6.8607   -8.5400   -0.5227 C.ar      1 <0>        -0.1182
     21 C16        -6.7302   -9.8648   -0.8993 C.ar      1 <0>        -0.1211
     22 C17        -5.5096  -10.5056   -0.7849 C.ar      1 <0>        -0.1189
     23 C18        -4.4121   -9.8243   -0.3001 C.ar      1 <0>        -0.1103
     24 H3          1.0039    1.9031    0.0027 H         1 <0>         0.0618
     25 H4         -0.5459    1.8868   -0.8726 H         1 <0>         0.0620
     26 H5         -0.5289    1.8773    0.9072 H         1 <0>         0.0610
     27 H6          0.5123   -0.3556   -0.8948 H         1 <0>         0.0930
     28 H7          0.5293   -0.3651    0.8851 H         1 <0>         0.0911
     29 H8         -0.4471   -3.2808   -0.9814 H         1 <0>         0.0791
     30 H9          0.4098   -2.2873    0.2265 H         1 <0>         0.0889
     31 H10        -0.7675   -3.7836    3.2483 H         1 <0>         0.0675
     32 H11        -0.4955   -2.2089    2.4419 H         1 <0>         0.0713
     33 H12        -3.0316   -3.3765    3.2797 H         1 <0>         0.0670
     34 H13        -2.7596   -1.8018    2.4733 H         1 <0>         0.0744
     35 H14        -3.7132   -1.5788    0.2594 H         1 <0>         0.0925
     36 H15        -3.2559   -2.7982   -0.9590 H         1 <0>         0.0767
     37 H16        -1.4128   -6.3705    1.4484 H         1 <0>         0.0807
     38 H17        -2.4753   -5.4758    2.5614 H         1 <0>         0.0526
     39 H18        -4.4470   -5.9915    0.8957 H         1 <0>         0.1129
     40 H19        -2.4134   -8.2525    0.7000 H         1 <0>         0.1183
     41 H20        -5.8759   -6.8153    0.2642 H         1 <0>         0.1227
     42 H21        -7.8165   -8.0454   -0.6141 H         1 <0>         0.1229
     43 H22        -7.5851  -10.4011   -1.2839 H         1 <0>         0.1220
     44 H23        -5.4144  -11.5402   -1.0799 H         1 <0>         0.1233
     45 H24        -3.4584  -10.3242   -0.2161 H         1 <0>         0.1234
@<TRIPOS>BOND
     1    1    2 1
     2    1   24 1
     3    1   25 1
     4    1   26 1
     5    2    3 1
     6    2   27 1
     7    2   28 1
     8    3    4 2
     9    3    5 am
    10    5   13 1
    11    5    6 1
    12    6    7 1
    13    6   29 1
    14    6   30 1
    15    7    8 1
    16    7   14 1
    17    7    9 1
    18    9   10 1
    19    9   31 1
    20    9   32 1
    21   10   11 1
    22   10   33 1
    23   10   34 1
    24   11   12 1
    25   11   13 1
    26   11   14 1
    27   13   35 1
    28   13   36 1
    29   14   15 1
    30   15   16 1
    31   15   37 1
    32   15   38 1
    33   16   17 2
    34   16   39 1
    35   17   18 1
    36   17   40 1
    37   18   23 ar
    38   18   19 ar
    39   19   20 ar
    40   19   41 1
    41   20   21 ar
    42   20   42 1
    43   21   22 ar
    44   21   43 1
    45   22   23 ar
    46   22   44 1
    47   23   45 1
@<TRIPOS>MOLECULE
ZINC26263384
   46    48     0     0     0
SMALL
USER_CHARGES

@<TRIPOS>ATOM
      1 C1         -0.0187    1.5258    0.0104 C.3       1 <0>        -0.1445
      2 C2          0.0021   -0.0041    0.0020 C.3       1 <0>        -0.1442
      3 C3          0.7309   -0.5033    1.2229 C.2       1 <0>         0.5203
      4 O1          1.1887    0.2867    2.0212 O.2       1 <0>        -0.5077
      5 N1          0.8741   -1.8277    1.4277 N.am      1 <0>        -0.6318
      6 C4          0.3300   -2.7994    0.4659 C.3       1 <0>         0.0881
      7 C5          1.4234   -3.8414    0.1708 C.3       1 <0>         0.0175
      8 H1          1.1008   -4.5776   -0.5654 H         1 <0>         0.1624
      9 C6          2.6913   -3.0814   -0.2799 C.3       1 <0>        -0.1337
     10 C7          3.4613   -2.7844    1.0234 C.3       1 <0>        -0.1344
     11 C8          2.5911   -3.3909    2.1473 C.3       1 <0>         0.0276
     12 H2          3.1921   -3.7807    2.9688 H         1 <0>         0.1589
     13 C9          1.5830   -2.3316    2.6147 C.3       1 <0>         0.0893
     14 N2          1.7944   -4.4679    1.4677 N.4       1 <0>        -0.3974
     15 C10         2.6228   -5.6606    1.2463 C.3       1 <0>         0.0433
     16 C11         2.8817   -6.3441    2.5642 C.2       1 <0>        -0.2516
     17 C12         2.5730   -7.6240    2.7190 C.2       1 <0>        -0.0139
     18 C13         2.8269   -8.2944    4.0117 C.ar      1 <0>        -0.0997
     19 C14         3.3860   -7.5814    5.0728 C.ar      1 <0>        -0.0997
     20 C15         3.6205   -8.2131    6.2768 C.ar      1 <0>        -0.1211
     21 C16         3.3030   -9.5505    6.4331 C.ar      1 <0>        -0.0945
     22 C17         2.7488  -10.2631    5.3849 C.ar      1 <0>        -0.1191
     23 C18         2.5031   -9.6415    4.1778 C.ar      1 <0>        -0.0900
     24 H3          1.0039    1.9031    0.0027 H         1 <0>         0.0649
     25 H4         -0.5459    1.8868   -0.8726 H         1 <0>         0.0703
     26 H5         -0.5289    1.8773    0.9072 H         1 <0>         0.0659
     27 H6         -1.0205   -0.3814    0.0098 H         1 <0>         0.0994
     28 H7          0.5123   -0.3556   -0.8948 H         1 <0>         0.0968
     29 H8         -0.5427   -3.2924    0.8942 H         1 <0>         0.0973
     30 H9          0.0500   -2.2884   -0.4553 H         1 <0>         0.1317
     31 H10         3.2923   -3.7055   -0.9413 H         1 <0>         0.1018
     32 H11         2.4186   -2.1516   -0.7791 H         1 <0>         0.1085
     33 H12         4.4406   -3.2627    1.0024 H         1 <0>         0.1010
     34 H13         3.5669   -1.7088    1.1645 H         1 <0>         0.1108
     35 H14         2.1211   -1.5153    3.0965 H         1 <0>         0.1343
     36 H15         0.8682   -2.7657    3.3138 H         1 <0>         0.0958
     37 H16         2.1018   -6.3459    0.5778 H         1 <0>         0.1290
     38 H17         3.5714   -5.3660    0.7974 H         1 <0>         0.1335
     39 H18         3.3186   -5.7912    3.3826 H         1 <0>         0.1344
     40 H19         2.1360   -8.1769    1.9006 H         1 <0>         0.1302
     41 H20         3.6350   -6.5375    4.9518 H         1 <0>         0.1228
     42 H21         4.0533   -7.6623    7.0989 H         1 <0>         0.1301
     43 H22         3.4888  -10.0404    7.3775 H         1 <0>         0.1310
     44 H23         2.5037  -11.3071    5.5130 H         1 <0>         0.1321
     45 H24         2.0656  -10.1975    3.3619 H         1 <0>         0.1291
     46 H25         0.9682   -4.7015    1.9977 H         1 <0>         0.4253
@<TRIPOS>BOND
     1    1    2 1
     2    1   24 1
     3    1   25 1
     4    1   26 1
     5    2    3 1
     6    2   27 1
     7    2   28 1
     8    3    4 2
     9    3    5 am
    10    5   13 1
    11    5    6 1
    12    6    7 1
    13    6   29 1
    14    6   30 1
    15    7    8 1
    16    7   14 1
    17    7    9 1
    18    9   10 1
    19    9   31 1
    20    9   32 1
    21   10   11 1
    22   10   33 1
    23   10   34 1
    24   11   12 1
    25   11   13 1
    26   11   14 1
    27   13   35 1
    28   13   36 1
    29   14   15 1
    30   14   46 1
    31   15   16 1
    32   15   37 1
    33   15   38 1
    34   16   17 2
    35   16   39 1
    36   17   18 1
    37   17   40 1
    38   18   23 ar
    39   18   19 ar
    40   19   20 ar
    41   19   41 1
    42   20   21 ar
    43   20   42 1
    44   21   22 ar
    45   21   43 1
    46   22   23 ar
    47   22   44 1
    48   23   45 1
@<TRIPOS>MOLECULE
ZINC03782341
   63    65     0     0     0
SMALL
USER_CHARGES
2-[2-benzyl-3-[4-(3-hydroxyphenyl)-3,4-dimethyl-1-piperidyl]-propanoyl]aminoacetic acid
@<TRIPOS>ATOM
      1 C1         -7.7359    4.6641   -3.3101 C.3       1 <0>        -0.1755
      2 C2         -7.5019    5.9968   -2.5959 C.3       1 <0>        -0.1014
      3 H1         -8.4504    6.3787   -2.2181 H         1 <0>         0.1190
      4 C3         -6.5340    5.7880   -1.4290 C.3       1 <0>        -0.0002
      5 C4         -4.6289    6.2645   -2.8489 C.3       1 <0>        -0.0116
      6 C5         -5.5400    6.4875   -4.0581 C.3       1 <0>        -0.1523
      7 C6         -6.8991    7.0045   -3.5786 C.3       1 <0>        -0.0174
      8 C7         -6.7171    8.3536   -2.8802 C.3       1 <0>        -0.1505
      9 C8         -7.8206    7.1691   -4.7597 C.ar      1 <0>        -0.0631
     10 C9         -7.3881    6.8230   -6.0268 C.ar      1 <0>        -0.1211
     11 C10        -8.2327    6.9683   -7.1116 C.ar      1 <0>        -0.0923
     12 C11        -9.5078    7.4698   -6.9336 C.ar      1 <0>        -0.1416
     13 C12        -9.9421    7.8226   -5.6644 C.ar      1 <0>         0.1079
     14 C13        -9.0943    7.6709   -4.5765 C.ar      1 <0>        -0.1406
     15 O1        -11.1959    8.3157   -5.4867 O.3       1 <0>        -0.4988
     16 C14        -4.3416    4.9494   -0.8368 C.3       1 <0>        -0.0002
     17 C15        -3.1220    4.2105   -1.3913 C.3       1 <0>        -0.1276
     18 H2         -2.6533    4.8146   -2.1681 H         1 <0>         0.1147
     19 C16        -2.1190    3.9631   -0.2627 C.3       1 <0>        -0.0582
     20 C17        -1.6398    5.2841    0.2819 C.ar      1 <0>        -0.0970
     21 C18        -0.6056    5.9552   -0.3433 C.ar      1 <0>        -0.1133
     22 C19        -0.1622    7.1641    0.1597 C.ar      1 <0>        -0.1124
     23 C20        -0.7604    7.7071    1.2814 C.ar      1 <0>        -0.1166
     24 C21        -1.7984    7.0388    1.9032 C.ar      1 <0>        -0.1157
     25 C22        -2.2383    5.8273    1.4033 C.ar      1 <0>        -0.1241
     26 C23        -3.5568    2.8909   -1.9750 C.2       1 <0>         0.4831
     27 O2         -3.4696    1.8774   -1.3146 O.2       1 <0>        -0.5096
     28 N1         -4.0426    2.8370   -3.2311 N.am      1 <0>        -0.7110
     29 C24        -4.4652    1.5542   -3.7986 C.3       1 <0>         0.0649
     30 C25        -4.9648    1.7671   -5.2043 C.2       1 <0>         0.4586
     31 O3         -4.9675    2.8764   -5.6831 O.co2     1 <0>        -0.6404
     32 H3         -8.1154    3.9317   -2.5976 H         1 <0>         0.0707
     33 H4         -8.4631    4.8034   -4.1101 H         1 <0>         0.0885
     34 H5         -6.7960    4.3078   -3.7315 H         1 <0>         0.0629
     35 H6         -6.9538    5.0602   -0.7346 H         1 <0>         0.1294
     36 H7         -6.3785    6.7352   -0.9124 H         1 <0>         0.1347
     37 H8         -4.4824    7.2094   -2.3255 H         1 <0>         0.1366
     38 H9         -3.6651    5.8829   -3.1857 H         1 <0>         0.1277
     39 H10        -5.6758    5.5458   -4.5900 H         1 <0>         0.1114
     40 H11        -5.0868    7.2204   -4.7257 H         1 <0>         0.1186
     41 H12        -6.0488    8.2340   -2.0275 H         1 <0>         0.0568
     42 H13        -6.2880    9.0702   -3.5805 H         1 <0>         0.0729
     43 H14        -7.6848    8.7176   -2.5351 H         1 <0>         0.0708
     44 H15        -6.3904    6.4347   -6.1685 H         1 <0>         0.1339
     45 H16        -7.8941    6.6934   -8.0996 H         1 <0>         0.1321
     46 H17       -10.1656    7.5873   -7.7820 H         1 <0>         0.1301
     47 H18        -9.4300    7.9452   -3.5873 H         1 <0>         0.1260
     48 H19       -11.2539    9.2783   -5.5585 H         1 <0>         0.3916
     49 H20        -4.8614    4.3091   -0.1242 H         1 <0>         0.1364
     50 H21        -4.0171    5.8616   -0.3361 H         1 <0>         0.1462
     51 H22        -1.2695    3.3996   -0.6486 H         1 <0>         0.0980
     52 H23        -2.6004    3.3951    0.5333 H         1 <0>         0.0966
     53 H24        -0.1412    5.5331   -1.2222 H         1 <0>         0.1254
     54 H25         0.6486    7.6864   -0.3263 H         1 <0>         0.1257
     55 H26        -0.4170    8.6538    1.6717 H         1 <0>         0.1244
     56 H27        -2.2660    7.4632    2.7793 H         1 <0>         0.1247
     57 H28        -3.0493    5.3052    1.8891 H         1 <0>         0.1236
     58 H29        -4.1123    3.6476   -3.7593 H         1 <0>         0.3968
     59 H30        -3.6191    0.8672   -3.8138 H         1 <0>         0.0845
     60 H31        -5.2645    1.1329   -3.1888 H         1 <0>         0.0816
     61 N2         -5.2540    5.2670   -1.9547 N.4       1 <0>        -0.4048
     62 H32        -5.4377    4.4097   -2.4889 H         1 <0>         0.4251
     63 O4         -5.4068    0.7242   -5.9247 O.co2     1 <0>        -0.7349
@<TRIPOS>BOND
     1    1    2 1
     2    1   32 1
     3    1   33 1
     4    1   34 1
     5    2    3 1
     6    2    7 1
     7    2    4 1
     8    4   35 1
     9    4   36 1
    10    4   61 1
    11    5    6 1
    12    5   37 1
    13    5   38 1
    14    5   61 1
    15    6    7 1
    16    6   39 1
    17    6   40 1
    18    7    8 1
    19    7    9 1
    20    8   41 1
    21    8   42 1
    22    8   43 1
    23    9   14 ar
    24    9   10 ar
    25   10   11 ar
    26   10   44 1
    27   11   12 ar
    28   11   45 1
    29   12   13 ar
    30   12   46 1
    31   13   14 ar
    32   13   15 1
    33   14   47 1
    34   15   48 1
    35   16   17 1
    36   16   49 1
    37   16   50 1
    38   16   61 1
    39   17   18 1
    40   17   19 1
    41   17   26 1
    42   19   20 1
    43   19   51 1
    44   19   52 1
    45   20   25 ar
    46   20   21 ar
    47   21   22 ar
    48   21   53 1
    49   22   23 ar
    50   22   54 1
    51   23   24 ar
    52   23   55 1
    53   24   25 ar
    54   24   56 1
    55   25   57 1
    56   26   27 2
    57   26   28 am
    58   28   29 1
    59   28   58 1
    60   29   30 1
    61   29   59 1
    62   29   60 1
    63   30   31 2
    64   30   63 1
    65   61   62 1
@<TRIPOS>MOLECULE
ZINC03802417
   63    65     0     0     0
SMALL
USER_CHARGES
2-[2-benzyl-3-[4-(3-hydroxyphenyl)-3,4-dimethyl-1-piperidyl]-propanoyl]aminoacetic acid
@<TRIPOS>ATOM
      1 C1          7.1065    1.2095    0.1366 C.3       1 <0>        -0.1689
      2 C2          6.3271    1.1352    1.4511 C.3       1 <0>        -0.1017
      3 H1          6.9196    0.6040    2.1959 H         1 <0>         0.1196
      4 C3          6.0292    2.5513    1.9491 C.3       1 <0>        -0.0012
      5 C4          3.9221    2.5906    0.7528 C.3       1 <0>        -0.0116
      6 C5          4.1572    1.1757    0.2190 C.3       1 <0>        -0.1423
      7 C6          5.0082    0.3919    1.2220 C.3       1 <0>        -0.0202
      8 C7          4.2528    0.2681    2.5468 C.3       1 <0>        -0.1541
      9 C8          5.2934   -0.9829    0.6746 C.ar      1 <0>        -0.0614
     10 C9          4.8705   -1.3212   -0.5978 C.ar      1 <0>        -0.1314
     11 C10         5.1347   -2.5799   -1.1047 C.ar      1 <0>        -0.0948
     12 C11         5.8132   -3.5067   -0.3368 C.ar      1 <0>        -0.1422
     13 C12         6.2338   -3.1716    0.9418 C.ar      1 <0>         0.1145
     14 C13         5.9720   -1.9058    1.4463 C.ar      1 <0>        -0.1396
     15 O1          6.9017   -4.0813    1.6989 O.3       1 <0>        -0.4989
     16 C14         5.0241    4.6661    1.3345 C.3       1 <0>         0.0123
     17 C15         4.5861    5.4709    0.1092 C.3       1 <0>        -0.1348
     18 H2          3.6841    5.0278   -0.3131 H         1 <0>         0.1117
     19 C16         5.7014    5.4532   -0.9379 C.3       1 <0>        -0.0713
     20 C17         5.2321    6.1595   -2.1837 C.ar      1 <0>        -0.1129
     21 C18         4.4933    5.4742   -3.1300 C.ar      1 <0>        -0.1181
     22 C19         4.0587    6.1233   -4.2704 C.ar      1 <0>        -0.1143
     23 C20         4.3718    7.4550   -4.4696 C.ar      1 <0>        -0.0989
     24 C21         5.1150    8.1388   -3.5258 C.ar      1 <0>        -0.1021
     25 C22         5.5452    7.4911   -2.3828 C.ar      1 <0>        -0.0948
     26 C23         4.3030    6.8936    0.5177 C.2       1 <0>         0.5139
     27 O2          4.8728    7.3748    1.4741 O.2       1 <0>        -0.5506
     28 N1          3.4166    7.6313   -0.1799 N.am      1 <0>        -0.6791
     29 C24         3.2179    9.0444    0.1517 C.3       1 <0>         0.0730
     30 C25         2.0965    9.6039   -0.6853 C.2       1 <0>         0.4575
     31 O3          1.5843    8.9230   -1.5419 O.co2     1 <0>        -0.6322
     32 H3          6.5528    1.8157   -0.5804 H         1 <0>         0.0492
     33 H4          8.0819    1.6611    0.3175 H         1 <0>         0.0760
     34 H5          7.2401    0.2046   -0.2639 H         1 <0>         0.0866
     35 H6          6.9659    3.0880    2.0995 H         1 <0>         0.1326
     36 H7          5.4860    2.4977    2.8926 H         1 <0>         0.1353
     37 H8          3.3888    2.5368    1.7019 H         1 <0>         0.1358
     38 H9          3.3285    3.1558    0.0343 H         1 <0>         0.1324
     39 H10         3.1991    0.6738    0.0842 H         1 <0>         0.1169
     40 H11         4.6777    1.2293   -0.7371 H         1 <0>         0.0944
     41 H12         3.3120   -0.2567    2.3809 H         1 <0>         0.0735
     42 H13         4.8593   -0.2899    3.2601 H         1 <0>         0.0719
     43 H14         4.0490    1.2629    2.9431 H         1 <0>         0.0606
     44 H15         4.3364   -0.5995   -1.1981 H         1 <0>         0.1285
     45 H16         4.8070   -2.8404   -2.1003 H         1 <0>         0.1309
     46 H17         6.0155   -4.4914   -0.7316 H         1 <0>         0.1315
     47 H18         6.2982   -1.6426    2.4416 H         1 <0>         0.1286
     48 H19         6.3279   -4.6342    2.2467 H         1 <0>         0.3957
     49 H20         5.9619    5.0686    1.7173 H         1 <0>         0.1440
     50 H21         4.2576    4.7337    2.1066 H         1 <0>         0.1394
     51 H22         6.5803    5.9616   -0.5413 H         1 <0>         0.0951
     52 H23         5.9566    4.4214   -1.1795 H         1 <0>         0.0687
     53 H24         4.2524    4.4326   -2.9765 H         1 <0>         0.1146
     54 H25         3.4783    5.5889   -5.0080 H         1 <0>         0.1235
     55 H26         4.0360    7.9609   -5.3627 H         1 <0>         0.1252
     56 H27         5.3600    9.1791   -3.6815 H         1 <0>         0.1254
     57 H28         6.1262    8.0253   -1.6456 H         1 <0>         0.1187
     58 H29         2.9103    7.2267   -0.9016 H         1 <0>         0.4101
     59 H30         4.1345    9.5979   -0.0523 H         1 <0>         0.0745
     60 H31         2.9645    9.1376    1.2077 H         1 <0>         0.0792
     61 N2          5.2283    3.2603    0.9284 N.4       1 <0>        -0.3969
     62 H32         5.7348    3.2414    0.0355 H         1 <0>         0.4206
     63 O4          1.6667   10.8587   -0.4791 O.co2     1 <0>        -0.7473
@<TRIPOS>BOND
     1    1    2 1
     2    1   32 1
     3    1   33 1
     4    1   34 1
     5    2    3 1
     6    2    7 1
     7    2    4 1
     8    4   35 1
     9    4   36 1
    10    4   61 1
    11    5    6 1
    12    5   37 1
    13    5   38 1
    14    5   61 1
    15    6    7 1
    16    6   39 1
    17    6   40 1
    18    7    8 1
    19    7    9 1
    20    8   41 1
    21    8   42 1
    22    8   43 1
    23    9   14 ar
    24    9   10 ar
    25   10   11 ar
    26   10   44 1
    27   11   12 ar
    28   11   45 1
    29   12   13 ar
    30   12   46 1
    31   13   14 ar
    32   13   15 1
    33   14   47 1
    34   15   48 1
    35   16   17 1
    36   16   49 1
    37   16   50 1
    38   16   61 1
    39   17   18 1
    40   17   19 1
    41   17   26 1
    42   19   20 1
    43   19   51 1
    44   19   52 1
    45   20   25 ar
    46   20   21 ar
    47   21   22 ar
    48   21   53 1
    49   22   23 ar
    50   22   54 1
    51   23   24 ar
    52   23   55 1
    53   24   25 ar
    54   24   56 1
    55   25   57 1
    56   26   27 2
    57   26   28 am
    58   28   29 1
    59   28   58 1
    60   29   30 1
    61   29   59 1
    62   29   60 1
    63   30   31 2
    64   30   63 1
    65   61   62 1
