@<TRIPOS>MOLECULE
ZINC13553172
   45    47     0     0     0
SMALL
USER_CHARGES
1-[(4-fluorophenyl)methyl]-4-[3-(trifluoromethyl)phenyl]piperidin-4-ol
@<TRIPOS>ATOM
      1 C1          1.1748    1.7831    0.0004 C.ar      1 <0>        -0.1098
      2 C2          1.1561    3.1655    0.0081 C.ar      1 <0>        -0.0821
      3 C3         -0.0501    3.8402    0.0223 C.ar      1 <0>        -0.1291
      4 C4         -1.2379    3.1327    0.0294 C.ar      1 <0>        -0.0572
      5 C5         -1.2192    1.7508    0.0173 C.ar      1 <0>        -0.1697
      6 C6         -0.0126    1.0758    0.0080 C.ar      1 <0>        -0.0596
      7 C7         -2.5139    0.9796    0.0192 C.3       1 <0>         0.5060
      8 F1         -2.2397   -0.3922    0.0104 F         1 <0>        -0.1715
      9 F2         -3.2466    1.3013    1.1668 F         1 <0>        -0.1725
     10 F3         -3.2574    1.3138   -1.1177 F         1 <0>        -0.1742
     11 C8         -0.0705    5.3471    0.0307 C.3       1 <0>         0.1751
     12 C9         -0.0870    5.8666   -1.4096 C.3       1 <0>        -0.1709
     13 C10        -0.0446    7.3963   -1.3954 C.3       1 <0>        -0.0025
     14 C11         1.1842    7.4014    0.6932 C.3       1 <0>         0.0017
     15 C12         1.1801    5.8718    0.7414 C.3       1 <0>        -0.1344
     16 C13         1.3134    9.3079   -0.7932 C.3       1 <0>         0.0516
     17 C14         1.5411    9.7049   -2.2290 C.ar      1 <0>        -0.1778
     18 C15         2.8280    9.7860   -2.7274 C.ar      1 <0>        -0.0620
     19 C16         3.0378   10.1454   -4.0452 C.ar      1 <0>        -0.1508
     20 C17         1.9590   10.4344   -4.8636 C.ar      1 <0>         0.1406
     21 C18         0.6708   10.3579   -4.3619 C.ar      1 <0>        -0.1512
     22 C19         0.4631    9.9932   -3.0452 C.ar      1 <0>        -0.0650
     23 F4          2.1631   10.7903   -6.1508 F         1 <0>        -0.1218
     24 O1         -1.2373    5.8050    0.7169 O.3       1 <0>        -0.5462
     25 H1          2.1173    1.2559   -0.0111 H         1 <0>         0.1438
     26 H2          2.0840    3.7182    0.0025 H         1 <0>         0.1347
     27 H3         -2.1804    3.6599    0.0409 H         1 <0>         0.1340
     28 H4          0.0021   -0.0041    0.0020 H         1 <0>         0.1469
     29 H5          0.7825    5.4843   -1.9443 H         1 <0>         0.1005
     30 H6         -0.9971    5.5314   -1.9070 H         1 <0>         0.1171
     31 H7         -0.9220    7.7782   -0.8735 H         1 <0>         0.1376
     32 H8         -0.0405    7.7689   -2.4197 H         1 <0>         0.1305
     33 H9          0.3010    7.7833    1.2053 H         1 <0>         0.1412
     34 H10         2.0807    7.7779    1.1859 H         1 <0>         0.1330
     35 H11         1.1746    5.5404    1.7797 H         1 <0>         0.1249
     36 H12         2.0701    5.4891    0.2419 H         1 <0>         0.1043
     37 H13         0.4054    9.7847   -0.4240 H         1 <0>         0.1398
     38 H14         2.1627    9.6267   -0.1890 H         1 <0>         0.1385
     39 H15         3.6695    9.5646   -2.0877 H         1 <0>         0.1426
     40 H16         4.0431   10.2047   -4.4355 H         1 <0>         0.1499
     41 H17        -0.1715   10.5827   -4.9994 H         1 <0>         0.1498
     42 H18        -0.5416    9.9331   -2.6537 H         1 <0>         0.1422
     43 H19        -2.0683    5.5111    0.3192 H         1 <0>         0.3913
     44 N1          1.1942    7.8370   -0.7197 N.4       1 <0>        -0.3934
     45 H20         2.0006    7.4131   -1.1931 H         1 <0>         0.4240
@<TRIPOS>BOND
     1    1    6 ar
     2    1    2 ar
     3    1   25 1
     4    2    3 ar
     5    2   26 1
     6    3    4 ar
     7    3   11 1
     8    4    5 ar
     9    4   27 1
    10    5    6 ar
    11    5    7 1
    12    6   28 1
    13    7    8 1
    14    7    9 1
    15    7   10 1
    16   11   15 1
    17   11   12 1
    18   11   24 1
    19   12   13 1
    20   12   29 1
    21   12   30 1
    22   13   31 1
    23   13   32 1
    24   13   44 1
    25   14   15 1
    26   14   33 1
    27   14   34 1
    28   14   44 1
    29   15   35 1
    30   15   36 1
    31   16   17 1
    32   16   37 1
    33   16   38 1
    34   16   44 1
    35   17   22 ar
    36   17   18 ar
    37   18   19 ar
    38   18   39 1
    39   19   20 ar
    40   19   40 1
    41   20   21 ar
    42   20   23 1
    43   21   22 ar
    44   21   41 1
    45   22   42 1
    46   24   43 1
    47   44   45 1
@<TRIPOS>MOLECULE
ZINC38321402
   76    82     0     0     0
SMALL
USER_CHARGES

@<TRIPOS>ATOM
      1 C1          0.4310    1.5076   -1.3639 C.3       1 <0>        -0.1699
      2 C2         -0.0188    0.3493   -0.4713 C.3       1 <0>         0.1576
      3 C3          0.8533    0.3050    0.7849 C.3       1 <0>        -0.1001
      4 H1          0.9533   -0.7284    1.1169 H         1 <0>         0.0974
      5 C4          2.2417    0.8672    0.4567 C.3       1 <0>        -0.1345
      6 C5          2.5263    2.0512    1.3689 C.3       1 <0>        -0.0586
      7 C6          1.4722    3.1390    1.1281 C.3       1 <0>        -0.1114
      8 C7          0.0822    2.5870    1.4447 C.3       1 <0>        -0.1498
      9 C8          0.1872    1.1290    1.8917 C.3       1 <0>         0.1392
     10 C9          1.0327    1.0439    3.1653 C.3       1 <0>         0.0737
     11 H2          1.0947    0.0154    3.5210 H         1 <0>         0.1169
     12 C10         2.4211    1.5903    2.8308 C.3       1 <0>        -0.0454
     13 C11         3.5334    0.6459    3.2104 C.3       1 <0>        -0.1211
     14 C12         4.8977    1.2224    2.8250 C.3       1 <0>        -0.0107
     15 N1          4.9039    1.5632    1.3942 N.4       1 <0>        -0.3880
     16 C13         3.9169    2.6439    1.1753 C.3       1 <0>         0.0573
     17 H3          4.0109    3.0155    0.1550 H         1 <0>         0.1466
     18 C14         4.2611    3.7755    2.1430 C.3       1 <0>        -0.0941
     19 C15         3.3087    3.9382    3.2785 C.ar      1 <0>        -0.0530
     20 C16         2.4464    2.8973    3.5666 C.ar      1 <0>        -0.1746
     21 C17         1.3619    2.9528    4.4179 C.ar      1 <0>         0.1067
     22 C18         1.2530    4.0777    5.2475 C.ar      1 <0>         0.1057
     23 C19         2.1993    5.0849    5.0689 C.ar      1 <0>        -0.1016
     24 C20         3.1915    5.0414    4.1010 C.ar      1 <0>        -0.1156
     25 O1          0.2703    4.1813    6.1819 O.3       1 <0>        -0.4801
     26 O2          0.5194    1.9113    4.1927 O.3       1 <0>        -0.2684
     27 C21         6.2414    2.0255    1.0000 C.3       1 <0>         0.0212
     28 C22         7.2410    0.8761    1.1433 C.3       1 <0>        -0.2106
     29 C23         8.3675    1.0428    2.1650 C.3       1 <0>        -0.1682
     30 C24         8.6743    1.1230    0.6683 C.3       1 <0>        -0.1475
     31 O3         -1.1209    0.6142    2.1484 O.3       1 <0>        -0.3618
     32 C25        -1.8316    1.3163    3.1702 C.3       1 <0>         0.0249
     33 C26         0.1216   -0.9683   -1.2363 C.3       1 <0>        -0.0923
     34 C27         1.5655   -1.1278   -1.7166 C.3       1 <0>        -0.1503
     35 C28        -0.2410   -2.1344   -0.3145 C.3       1 <0>        -0.1511
     36 C29        -0.8193   -0.9603   -2.4428 C.3       1 <0>        -0.1409
     37 O4         -1.3846    0.5392   -0.0965 O.3       1 <0>        -0.5375
     38 H4          1.4583    1.3396   -1.6870 H         1 <0>         0.0768
     39 H5         -0.2192    1.5675   -2.2367 H         1 <0>         0.0727
     40 H6          0.3742    2.4411   -0.8040 H         1 <0>         0.0769
     41 H7          2.9945    0.0951    0.6157 H         1 <0>         0.0626
     42 H8          2.2663    1.1937   -0.5830 H         1 <0>         0.1156
     43 H9          1.6787    3.9934    1.7726 H         1 <0>         0.0852
     44 H10         1.5083    3.4547    0.0854 H         1 <0>         0.0824
     45 H11        -0.3688    3.1782    2.2417 H         1 <0>         0.0742
     46 H12        -0.5427    2.6480    0.5537 H         1 <0>         0.1053
     47 H13         3.5075    0.4765    4.2868 H         1 <0>         0.1160
     48 H14         3.3878   -0.3039    2.6958 H         1 <0>         0.0964
     49 H15         5.0916    2.1197    3.4126 H         1 <0>         0.1353
     50 H16         5.6736    0.4834    3.0253 H         1 <0>         0.1376
     51 H17         5.2547    3.5897    2.5508 H         1 <0>         0.1003
     52 H18         4.2922    4.7101    1.5830 H         1 <0>         0.1186
     53 H19         2.1577    5.9460    5.7194 H         1 <0>         0.1408
     54 H20         3.8735    5.8714    3.9904 H         1 <0>         0.1369
     55 H21         0.5111    3.8231    7.0472 H         1 <0>         0.3974
     56 H22         6.2190    2.3604   -0.0370 H         1 <0>         0.1355
     57 H23         6.5440    2.8524    1.6425 H         1 <0>         0.1310
     58 H24         6.8303   -0.1241    1.0052 H         1 <0>         0.1241
     59 H25         8.3965    1.9714    2.7352 H         1 <0>         0.1057
     60 H26         8.6981    0.1522    2.6995 H         1 <0>         0.1101
     61 H27         9.2067    0.2852    0.2180 H         1 <0>         0.1125
     62 H28         8.9051    2.1044    0.2537 H         1 <0>         0.1080
     63 H29        -2.8145    0.8648    3.3049 H         1 <0>         0.0882
     64 H30        -1.2743    1.2592    4.1052 H         1 <0>         0.0627
     65 H31        -1.9481    2.3605    2.8799 H         1 <0>         0.0458
     66 H32         2.1889   -1.4642   -0.8881 H         1 <0>         0.0512
     67 H33         1.6018   -1.8631   -2.5205 H         1 <0>         0.0620
     68 H34         1.9343   -0.1699   -2.0833 H         1 <0>         0.0601
     69 H35        -1.2697   -2.0207    0.0277 H         1 <0>         0.0606
     70 H36        -0.1410   -3.0730   -0.8595 H         1 <0>         0.0624
     71 H37         0.4292   -2.1401    0.5450 H         1 <0>         0.0560
     72 H38        -0.5609   -0.1296   -3.0995 H         1 <0>         0.0572
     73 H39        -0.7193   -1.8990   -2.9878 H         1 <0>         0.0552
     74 H40        -1.8479   -0.8467   -2.1006 H         1 <0>         0.0645
     75 H41        -1.7375   -0.1594    0.4713 H         1 <0>         0.3835
     76 H42         4.6485    0.7530    0.8497 H         1 <0>         0.4222
@<TRIPOS>BOND
     1    1    2 1
     2    1   38 1
     3    1   39 1
     4    1   40 1
     5    2    3 1
     6    2   33 1
     7    2   37 1
     8    3    4 1
     9    3    9 1
    10    3    5 1
    11    5    6 1
    12    5   41 1
    13    5   42 1
    14    6   12 1
    15    6   16 1
    16    6    7 1
    17    7    8 1
    18    7   43 1
    19    7   44 1
    20    8    9 1
    21    8   45 1
    22    8   46 1
    23    9   10 1
    24    9   31 1
    25   10   11 1
    26   10   26 1
    27   10   12 1
    28   12   20 1
    29   12   13 1
    30   13   14 1
    31   13   47 1
    32   13   48 1
    33   14   15 1
    34   14   49 1
    35   14   50 1
    36   15   16 1
    37   15   27 1
    38   15   76 1
    39   16   17 1
    40   16   18 1
    41   18   19 1
    42   18   51 1
    43   18   52 1
    44   19   24 ar
    45   19   20 ar
    46   20   21 ar
    47   21   22 ar
    48   21   26 1
    49   22   23 ar
    50   22   25 1
    51   23   24 ar
    52   23   53 1
    53   24   54 1
    54   25   55 1
    55   27   28 1
    56   27   56 1
    57   27   57 1
    58   28   30 1
    59   28   29 1
    60   28   58 1
    61   29   30 1
    62   29   59 1
    63   29   60 1
    64   30   61 1
    65   30   62 1
    66   31   32 1
    67   32   63 1
    68   32   64 1
    69   32   65 1
    70   33   34 1
    71   33   35 1
    72   33   36 1
    73   34   66 1
    74   34   67 1
    75   34   68 1
    76   35   69 1
    77   35   70 1
    78   35   71 1
    79   36   72 1
    80   36   73 1
    81   36   74 1
    82   37   75 1
@<TRIPOS>MOLECULE
ZINC53147203
   74    75     0     0     0
SMALL
USER_CHARGES

@<TRIPOS>ATOM
      1 C1         -0.0225    1.8097    0.0120 C.3       1 <0>        -0.1211
      2 S1          0.0021   -0.0041    0.0020 S.3       1 <0>        -0.2721
      3 C2         -1.7518   -0.4668    0.0163 C.3       1 <0>        -0.0758
      4 C3         -1.8771   -1.9917    0.0093 C.3       1 <0>        -0.0932
      5 C4         -3.3564   -2.3820    0.0213 C.3       1 <0>         0.0814
      6 H1         -3.8661   -1.9002   -0.8131 H         1 <0>         0.0862
      7 C5         -3.4823   -3.8780   -0.1094 C.2       1 <0>         0.4933
      8 O1         -3.8614   -4.5431    0.8396 O.co2     1 <0>        -0.6829
      9 O2         -3.2050   -4.4233   -1.1640 O.co2     1 <0>        -0.6914
     10 N1         -3.9655   -1.9489    1.2813 N.am      1 <0>        -0.6867
     11 C6         -5.2910   -1.7131    1.3430 C.2       1 <0>         0.5116
     12 O3         -5.9796   -1.8594    0.3554 O.2       1 <0>        -0.5408
     13 C7         -5.9176   -1.2675    2.6392 C.3       1 <0>         0.1412
     14 H2         -5.4677   -0.3265    2.9556 H         1 <0>         0.1113
     15 C8         -5.6812   -2.3321    3.7123 C.3       1 <0>        -0.0910
     16 C9         -6.1992   -1.8339    5.0369 C.ar      1 <0>        -0.0566
     17 C10        -5.3674   -1.1219    5.8808 C.ar      1 <0>        -0.1047
     18 C11        -5.8426   -0.6649    7.0957 C.ar      1 <0>        -0.1131
     19 C12        -7.1497   -0.9194    7.4667 C.ar      1 <0>        -0.1244
     20 C13        -7.9817   -1.6306    6.6224 C.ar      1 <0>        -0.1147
     21 C14        -7.5078   -2.0839    5.4055 C.ar      1 <0>        -0.1103
     22 N2         -7.3576   -1.0799    2.4463 N.am      1 <0>        -0.7022
     23 C15        -8.0409   -0.2388    3.2477 C.2       1 <0>         0.5105
     24 O4         -7.4636    0.3627    4.1285 O.2       1 <0>        -0.5219
     25 C16        -9.5222   -0.0457    3.0493 C.3       1 <0>         0.1012
     26 N3        -10.0269    0.9100    4.0383 N.am      1 <0>        -0.7065
     27 C17       -11.3339    1.2390    4.0517 C.2       1 <0>         0.5121
     28 O5        -12.0921    0.7438    3.2450 O.2       1 <0>        -0.5379
     29 C18       -11.8530    2.2221    5.0690 C.3       1 <0>         0.0991
     30 N4        -13.2931    2.4098    4.8762 N.am      1 <0>        -0.7135
     31 C19       -13.9763    3.2509    5.6775 C.2       1 <0>         0.4823
     32 O6        -13.3990    3.8524    6.5583 O.2       1 <0>        -0.5427
     33 C20       -15.4577    3.4439    5.4791 C.3       1 <0>         0.0845
     34 H3        -15.9216    2.4847    5.2494 H         1 <0>         0.1071
     35 C21       -15.6949    4.4155    4.3212 C.3       1 <0>        -0.0684
     36 C22       -17.1726    4.5139    4.0428 C.ar      1 <0>        -0.0781
     37 C23       -17.7642    3.6487    3.1411 C.ar      1 <0>        -0.1010
     38 C24       -19.1186    3.7372    2.8837 C.ar      1 <0>        -0.1459
     39 C25       -19.8853    4.6950    3.5313 C.ar      1 <0>         0.0996
     40 C26       -19.2895    5.5617    4.4360 C.ar      1 <0>        -0.1467
     41 C27       -17.9356    5.4657    4.6937 C.ar      1 <0>        -0.0735
     42 O7        -21.2178    4.7844    3.2795 O.3       1 <0>        -0.5022
     43 N5        -16.0489    3.9920    6.7072 N.3       1 <0>        -0.8134
     44 H4          1.0001    2.1870    0.0043 H         1 <0>         0.0982
     45 H5         -0.5497    2.1708   -0.8711 H         1 <0>         0.0736
     46 H6         -0.5327    2.1613    0.9088 H         1 <0>         0.0731
     47 H7         -2.2257   -0.0675    0.9130 H         1 <0>         0.0773
     48 H8         -2.2427   -0.0579   -0.8669 H         1 <0>         0.0796
     49 H9         -1.4032   -2.3910   -0.8874 H         1 <0>         0.0924
     50 H10        -1.3862   -2.4006    0.8924 H         1 <0>         0.0733
     51 H11        -3.4147   -1.8318    2.0712 H         1 <0>         0.3931
     52 H12        -6.2058   -3.2473    3.4380 H         1 <0>         0.0871
     53 H13        -4.6134   -2.5358    3.7932 H         1 <0>         0.0920
     54 H14        -4.3462   -0.9231    5.5910 H         1 <0>         0.1165
     55 H15        -5.1925   -0.1092    7.7554 H         1 <0>         0.1148
     56 H16        -7.5207   -0.5629    8.4162 H         1 <0>         0.1128
     57 H17        -9.0029   -1.8298    6.9124 H         1 <0>         0.1114
     58 H18        -8.1590   -2.6364    4.7443 H         1 <0>         0.1104
     59 H19        -7.8194   -1.5610    1.7419 H         1 <0>         0.4134
     60 H20        -9.7075    0.3377    2.0460 H         1 <0>         0.1019
     61 H21       -10.0329   -1.0007    3.1733 H         1 <0>         0.1012
     62 H22        -9.4205    1.3060    4.6835 H         1 <0>         0.4159
     63 H23       -11.6677    1.8386    6.0724 H         1 <0>         0.1016
     64 H24       -11.3423    3.1770    4.9450 H         1 <0>         0.1017
     65 H25       -13.7548    1.9287    4.1717 H         1 <0>         0.4137
     66 H26       -15.3090    5.3994    4.5877 H         1 <0>         0.0807
     67 H27       -15.1808    4.0524    3.4313 H         1 <0>         0.0840
     68 H28       -17.1669    2.9032    2.6372 H         1 <0>         0.1260
     69 H29       -19.5800    3.0616    2.1788 H         1 <0>         0.1266
     70 H30       -19.8842    6.3083    4.9413 H         1 <0>         0.1259
     71 H31       -17.4721    6.1373    5.4012 H         1 <0>         0.1259
     72 H32       -21.7653    4.2387    3.8604 H         1 <0>         0.3895
     73 H33       -15.9622    3.3401    7.4724 H         1 <0>         0.3470
     74 H34       -15.6352    4.8819    6.9417 H         1 <0>         0.3503
@<TRIPOS>BOND
     1    1    2 1
     2    1   44 1
     3    1   45 1
     4    1   46 1
     5    2    3 1
     6    3    4 1
     7    3   47 1
     8    3   48 1
     9    4    5 1
    10    4   49 1
    11    4   50 1
    12    5    6 1
    13    5    7 1
    14    5   10 1
    15    7    8 2
    16    7    9 1
    17   10   11 am
    18   10   51 1
    19   11   12 2
    20   11   13 1
    21   13   14 1
    22   13   15 1
    23   13   22 1
    24   15   16 1
    25   15   52 1
    26   15   53 1
    27   16   21 ar
    28   16   17 ar
    29   17   18 ar
    30   17   54 1
    31   18   19 ar
    32   18   55 1
    33   19   20 ar
    34   19   56 1
    35   20   21 ar
    36   20   57 1
    37   21   58 1
    38   22   23 am
    39   22   59 1
    40   23   24 2
    41   23   25 1
    42   25   26 1
    43   25   60 1
    44   25   61 1
    45   26   27 am
    46   26   62 1
    47   27   28 2
    48   27   29 1
    49   29   30 1
    50   29   63 1
    51   29   64 1
    52   30   31 am
    53   30   65 1
    54   31   32 2
    55   31   33 1
    56   33   34 1
    57   33   35 1
    58   33   43 1
    59   35   36 1
    60   35   66 1
    61   35   67 1
    62   36   41 ar
    63   36   37 ar
    64   37   38 ar
    65   37   68 1
    66   38   39 ar
    67   38   69 1
    68   39   40 ar
    69   39   42 1
    70   40   41 ar
    71   40   70 1
    72   41   71 1
    73   42   72 1
    74   43   73 1
    75   43   74 1
@<TRIPOS>MOLECULE
ZINC00602902
   57    60     0     0     0
SMALL
USER_CHARGES

@<TRIPOS>ATOM
      1 C1         -0.0095    1.5771   -0.0196 C.3       1 <0>        -0.1481
      2 C2          0.0095    0.0473   -0.0152 C.3       1 <0>        -0.0832
      3 C3          0.7133   -0.4499   -1.2515 C.ar      1 <0>        -0.1153
      4 C4         -0.0072   -0.6870   -2.4076 C.ar      1 <0>        -0.0776
      5 C5          0.6355   -1.1432   -3.5421 C.ar      1 <0>        -0.1458
      6 C6          2.0052   -1.3631   -3.5210 C.ar      1 <0>         0.1240
      7 C7          2.7259   -1.1241   -2.3599 C.ar      1 <0>        -0.2040
      8 C8          2.0793   -0.6629   -1.2295 C.ar      1 <0>        -0.0793
      9 O1          2.6397   -1.8123   -4.6356 O.3       1 <0>        -0.3191
     10 C9          4.0509   -2.0164   -4.5410 C.3       1 <0>         0.1055
     11 C10         4.5765   -2.5118   -5.8636 C.ar      1 <0>        -0.0209
     12 C11         3.7152   -2.6917   -6.9264 C.ar      1 <0>        -0.1047
     13 C12         4.1961   -3.1469   -8.1410 C.ar      1 <0>        -0.0751
     14 C13         5.5425   -3.4249   -8.2989 C.ar      1 <0>        -0.1234
     15 C14         6.4143   -3.2494   -7.2446 C.ar      1 <0>        -0.0807
     16 C15         5.9367   -2.7843   -6.0179 C.ar      1 <0>        -0.1483
     17 C16         6.8661   -2.5881   -4.8855 C.2       1 <0>         0.5705
     18 O2          6.4464   -2.1886   -3.8168 O.2       1 <0>        -0.5105
     19 N1          8.1790   -2.8522   -5.0377 N.am      1 <0>        -0.6729
     20 C17         9.0733   -2.5758   -3.9979 C.ar      1 <0>         0.1722
     21 C18         8.6686   -2.7491   -2.6700 C.ar      1 <0>        -0.0379
     22 C19         9.5172   -2.4879   -1.6403 C.ar      1 <0>        -0.1225
     23 C20        10.8228   -2.0367   -1.9023 C.ar      1 <0>         0.1587
     24 C21        11.2375   -1.8602   -3.2441 C.ar      1 <0>        -0.1104
     25 C22        10.3481   -2.1403   -4.2900 C.ar      1 <0>        -0.1023
     26 C23        12.5535   -1.4057   -3.5002 C.ar      1 <0>         0.3574
     27 C24        13.3759   -1.1546   -2.4135 C.ar      1 <0>        -0.2639
     28 C25        12.8941   -1.3525   -1.1266 C.ar      1 <0>         0.2627
     29 N2         11.6719   -1.7747   -0.9016 N.ar      1 <0>        -0.5048
     30 C26        13.8004   -1.0755    0.0451 C.3       1 <0>        -0.1500
     31 N3         13.0056   -1.2180   -4.7981 N.pl3     1 <0>        -0.8000
     32 H1          1.0135    1.9532   -0.0314 H         1 <0>         0.0537
     33 H2         -0.5371    1.9313   -0.9052 H         1 <0>         0.0562
     34 H3         -0.5186    1.9368    0.8746 H         1 <0>         0.0591
     35 H4          0.5371   -0.3069    0.8705 H         1 <0>         0.0703
     36 H5         -1.0135   -0.3288   -0.0034 H         1 <0>         0.0728
     37 H6         -1.0734   -0.5156   -2.4235 H         1 <0>         0.1304
     38 H7          0.0722   -1.3289   -4.4446 H         1 <0>         0.1313
     39 H8          3.7922   -1.2945   -2.3409 H         1 <0>         0.1287
     40 H9          2.6406   -0.4725   -0.3267 H         1 <0>         0.1228
     41 H10         4.5378   -1.0751   -4.2861 H         1 <0>         0.0876
     42 H11         4.2601   -2.7549   -3.7672 H         1 <0>         0.0879
     43 H12         2.6632   -2.4770   -6.8097 H         1 <0>         0.1462
     44 H13         3.5176   -3.2864   -8.9697 H         1 <0>         0.1376
     45 H14         5.9114   -3.7803   -9.2497 H         1 <0>         0.1368
     46 H15         7.4648   -3.4670   -7.3690 H         1 <0>         0.1275
     47 H16         8.5038   -3.2338   -5.8682 H         1 <0>         0.4202
     48 H17         7.6673   -3.0950   -2.4597 H         1 <0>         0.1690
     49 H18         9.1882   -2.6268   -0.6210 H         1 <0>         0.1608
     50 H19        10.6577   -2.0122   -5.3167 H         1 <0>         0.1496
     51 H20        14.3868   -0.8069   -2.5669 H         1 <0>         0.1782
     52 H21        13.6884   -0.0361    0.3534 H         1 <0>         0.1182
     53 H22        13.5334   -1.7312    0.8739 H         1 <0>         0.0992
     54 H23        14.8351   -1.2591   -0.2445 H         1 <0>         0.1169
     55 H24        12.4171   -1.3988   -5.5476 H         1 <0>         0.4198
     56 H25        13.9104   -0.9060   -4.9561 H         1 <0>         0.4275
     57 H26        11.3762   -1.8995    0.0138 H         1 <0>         0.4413
@<TRIPOS>BOND
     1    1    2 1
     2    1   32 1
     3    1   33 1
     4    1   34 1
     5    2    3 1
     6    2   35 1
     7    2   36 1
     8    3    8 ar
     9    3    4 ar
    10    4    5 ar
    11    4   37 1
    12    5    6 ar
    13    5   38 1
    14    6    7 ar
    15    6    9 1
    16    7    8 ar
    17    7   39 1
    18    8   40 1
    19    9   10 1
    20   10   11 1
    21   10   41 1
    22   10   42 1
    23   11   16 ar
    24   11   12 ar
    25   12   13 ar
    26   12   43 1
    27   13   14 ar
    28   13   44 1
    29   14   15 ar
    30   14   45 1
    31   15   16 ar
    32   15   46 1
    33   16   17 1
    34   17   18 2
    35   17   19 am
    36   19   20 1
    37   19   47 1
    38   20   25 ar
    39   20   21 ar
    40   21   22 ar
    41   21   48 1
    42   22   23 ar
    43   22   49 1
    44   23   29 ar
    45   23   24 ar
    46   24   25 ar
    47   24   26 ar
    48   25   50 1
    49   26   27 ar
    50   26   31 1
    51   27   28 ar
    52   27   51 1
    53   28   29 ar
    54   28   30 1
    55   29   57 1
    56   30   52 1
    57   30   53 1
    58   30   54 1
    59   31   55 1
    60   31   56 1
@<TRIPOS>MOLECULE
ZINC58512951
   82    84     0     0     0
SMALL
USER_CHARGES

@<TRIPOS>ATOM
      1 C1          0.7162    1.8563   -0.5029 C.3       1 <0>        -0.1755
      2 C2          0.6586    0.3299   -0.5904 C.3       1 <0>        -0.0075
      3 C3          1.4848   -0.1438   -1.7878 C.3       1 <0>         0.1495
      4 H1          1.7800   -1.1823   -1.6375 H         1 <0>         0.1197
      5 C4          2.7165    0.7144   -1.9197 C.2       1 <0>         0.4918
      6 O1          2.9900    1.5356   -1.0701 O.2       1 <0>        -0.4668
      7 N1          3.5186    0.5520   -3.0116 N.am      1 <0>        -0.7176
      8 C5          4.7103    1.4268   -3.0696 C.3       1 <0>         0.0984
      9 C6          5.5806    1.1351   -1.8742 C.2       1 <0>         0.5169
     10 O2          5.9158   -0.0006   -1.6122 O.2       1 <0>        -0.5335
     11 N2          5.9848    2.1858   -1.0897 N.am      1 <0>        -0.6990
     12 C7          6.8316    1.7862    0.0640 C.3       1 <0>         0.1254
     13 H2          7.0627    0.7230   -0.0010 H         1 <0>         0.1132
     14 C8          6.0666    2.0628    1.3325 C.2       1 <0>         0.5126
     15 O3          6.2633    3.0807    1.9618 O.2       1 <0>        -0.4904
     16 N3          5.1483    1.1489    1.7611 N.am      1 <0>        -0.7099
     17 C9          4.4385    1.4896    3.0134 C.3       1 <0>         0.0916
     18 H3          5.0954    1.3143    3.8654 H         1 <0>         0.0677
     19 C10         3.1976    0.6022    3.1311 C.3       1 <0>        -0.0198
     20 S1          1.8931    1.2400    2.0439 S.3       1 <0>        -0.0694
     21 S2          1.3334   -0.3889    0.9323 S.3       1 <0>        -0.2221
     22 C11         2.7027    0.6068    4.5788 C.3       1 <0>        -0.1278
     23 C12         3.5521   -0.8276    2.7178 C.3       1 <0>        -0.1519
     24 C13         4.0263    2.9388    2.9827 C.2       1 <0>         0.5124
     25 O4          4.1287    3.5799    1.9507 O.co2     1 <0>        -0.6435
     26 O5          3.5906    3.4702    3.9898 O.co2     1 <0>        -0.7048
     27 C14         8.1291    2.5970    0.0565 C.3       1 <0>        -0.0791
     28 C15         8.9348    2.2443   -1.1673 C.ar      1 <0>        -0.0619
     29 C16         9.8481    1.2077   -1.1180 C.ar      1 <0>        -0.1013
     30 C17        10.5873    0.8837   -2.2400 C.ar      1 <0>        -0.1078
     31 C18        10.4131    1.5970   -3.4126 C.ar      1 <0>        -0.0409
     32 C19         9.4989    2.6343   -3.4613 C.ar      1 <0>        -0.1102
     33 C20         8.7562    2.9537   -2.3402 C.ar      1 <0>        -0.0979
     34 Cl1        11.3416    1.1910   -4.8221 Cl        1 <0>        -0.0805
     35 N4          0.6818   -0.0362   -3.0084 N.am      1 <0>        -0.7142
     36 C21         0.9583   -0.8214   -4.0683 C.2       1 <0>         0.5207
     37 O6          1.8718   -1.6171   -4.0117 O.2       1 <0>        -0.5197
     38 C22         0.1322   -0.7108   -5.3239 C.3       1 <0>         0.0849
     39 H4         -0.0882    0.3381   -5.5225 H         1 <0>         0.1056
     40 C23        -1.1769   -1.4816   -5.1427 C.3       1 <0>        -0.1126
     41 C24        -2.0554   -1.2702   -6.3487 C.ar      1 <0>        -0.0934
     42 C25        -2.9450   -0.2121   -6.3776 C.ar      1 <0>        -0.0956
     43 C26        -3.7518   -0.0163   -7.4818 C.ar      1 <0>        -0.1401
     44 C27        -3.6685   -0.8822   -8.5625 C.ar      1 <0>         0.1036
     45 C28        -2.7748   -1.9429   -8.5313 C.ar      1 <0>        -0.1400
     46 C29        -1.9665   -2.1312   -7.4269 C.ar      1 <0>        -0.1027
     47 O7         -4.4614   -0.6921   -9.6497 O.3       1 <0>        -0.5004
     48 N5          0.8811   -1.2763   -6.4541 N.3       1 <0>        -0.8244
     49 C30        -0.7944   -0.1164   -0.7648 C.3       1 <0>        -0.1228
     50 H5          1.6422    2.1575   -0.0131 H         1 <0>         0.1394
     51 H6          0.6820    2.2794   -1.5069 H         1 <0>         0.0573
     52 H7         -0.1345    2.2196    0.0736 H         1 <0>         0.0570
     53 H8          3.3202   -0.0961   -3.7055 H         1 <0>         0.4153
     54 H9          5.2670    1.2263   -3.9850 H         1 <0>         0.1074
     55 H10         4.3988    2.4711   -3.0492 H         1 <0>         0.0880
     56 H11         5.7401    3.1066   -1.2721 H         1 <0>         0.4158
     57 H12         4.9720    0.3280    1.2752 H         1 <0>         0.3912
     58 H13         2.4501    1.6255    4.8731 H         1 <0>         0.0900
     59 H14         1.8187   -0.0254    4.6626 H         1 <0>         0.0556
     60 H15         3.4866    0.2237    5.2320 H         1 <0>         0.0613
     61 H16         4.4196   -1.1653    3.2849 H         1 <0>         0.0714
     62 H17         2.7067   -1.4849    2.9214 H         1 <0>         0.0653
     63 H18         3.7826   -0.8514    1.6527 H         1 <0>         0.0688
     64 H19         7.8925    3.6609    0.0415 H         1 <0>         0.0918
     65 H20         8.7072    2.3659    0.9511 H         1 <0>         0.0890
     66 H21         9.9843    0.6512   -0.2025 H         1 <0>         0.1309
     67 H22        11.3011    0.0741   -2.2012 H         1 <0>         0.1301
     68 H23         9.3627    3.1917   -4.3762 H         1 <0>         0.1301
     69 H24         8.0391    3.7603   -2.3795 H         1 <0>         0.1307
     70 H25        -0.0489    0.6002   -3.0537 H         1 <0>         0.4056
     71 H26        -0.9606   -2.5442   -5.0326 H         1 <0>         0.0833
     72 H27        -1.6905   -1.1211   -4.2514 H         1 <0>         0.0860
     73 H28        -3.0095    0.4617   -5.5360 H         1 <0>         0.1293
     74 H29        -4.4470    0.8099   -7.5035 H         1 <0>         0.1301
     75 H30        -2.7081   -2.6183   -9.3713 H         1 <0>         0.1296
     76 H31        -1.2675   -2.9542   -7.4039 H         1 <0>         0.1260
     77 H32        -4.0700   -0.1241  -10.3274 H         1 <0>         0.3917
     78 H33         1.0977   -2.2487   -6.2940 H         1 <0>         0.3525
     79 H34         0.3756   -1.1560   -7.3191 H         1 <0>         0.3494
     80 H35        -1.1999    0.3155   -1.6797 H         1 <0>         0.0626
     81 H36        -0.8355   -1.2039   -0.8271 H         1 <0>         0.0639
     82 H37        -1.3830    0.2211    0.0883 H         1 <0>         0.0747
@<TRIPOS>BOND
     1    1    2 1
     2    1   50 1
     3    1   51 1
     4    1   52 1
     5    2   21 1
     6    2    3 1
     7    2   49 1
     8    3    4 1
     9    3    5 1
    10    3   35 1
    11    5    6 2
    12    5    7 am
    13    7    8 1
    14    7   53 1
    15    8    9 1
    16    8   54 1
    17    8   55 1
    18    9   10 2
    19    9   11 am
    20   11   12 1
    21   11   56 1
    22   12   13 1
    23   12   14 1
    24   12   27 1
    25   14   15 2
    26   14   16 am
    27   16   17 1
    28   16   57 1
    29   17   18 1
    30   17   19 1
    31   17   24 1
    32   19   20 1
    33   19   22 1
    34   19   23 1
    35   20   21 1
    36   22   58 1
    37   22   59 1
    38   22   60 1
    39   23   61 1
    40   23   62 1
    41   23   63 1
    42   24   25 2
    43   24   26 1
    44   27   28 1
    45   27   64 1
    46   27   65 1
    47   28   33 ar
    48   28   29 ar
    49   29   30 ar
    50   29   66 1
    51   30   31 ar
    52   30   67 1
    53   31   32 ar
    54   31   34 1
    55   32   33 ar
    56   32   68 1
    57   33   69 1
    58   35   36 am
    59   35   70 1
    60   36   37 2
    61   36   38 1
    62   38   39 1
    63   38   40 1
    64   38   48 1
    65   40   41 1
    66   40   71 1
    67   40   72 1
    68   41   46 ar
    69   41   42 ar
    70   42   43 ar
    71   42   73 1
    72   43   44 ar
    73   43   74 1
    74   44   45 ar
    75   44   47 1
    76   45   46 ar
    77   45   75 1
    78   46   76 1
    79   47   77 1
    80   48   78 1
    81   48   79 1
    82   49   80 1
    83   49   81 1
    84   49   82 1
@<TRIPOS>MOLECULE
ZINC13679981
   69    73     0     0     0
SMALL
USER_CHARGES
(2R)-1-benzyl-N-(3-spiro[1H-isobenzofuran-3,4'-piperidine]-1'-ylpropyl)pyrrolidine-2-carboxamide
@<TRIPOS>ATOM
      1 C1         -8.1007   -7.1835   -1.0255 C.ar      1 <0>        -0.0803
      2 C2         -8.1141   -5.8018   -1.0666 C.ar      1 <0>        -0.1112
      3 C3         -6.9256   -5.1014   -1.1550 C.ar      1 <0>        -0.0905
      4 C4         -5.7237   -5.7827   -1.2022 C.ar      1 <0>        -0.1631
      5 C5         -5.7106   -7.1645   -1.1664 C.ar      1 <0>        -0.1004
      6 C6         -6.8988   -7.8648   -1.0728 C.ar      1 <0>        -0.1115
      7 C7         -4.4281   -5.0191   -1.2989 C.3       1 <0>         0.0524
      8 C8         -3.9334   -5.9424    0.8890 C.3       1 <0>        -0.0222
      9 C9         -2.4923   -6.1507    1.4000 C.3       1 <0>        -0.1374
     10 C10        -1.8710   -4.7322    1.2879 C.3       1 <0>        -0.1332
     11 C11        -2.5509   -4.1950    0.0039 C.3       1 <0>         0.0023
     12 H1         -2.0324   -4.5619   -0.8819 H         1 <0>         0.1693
     13 C12        -2.5713   -2.6882    0.0122 C.2       1 <0>         0.5149
     14 O1         -3.6297   -2.0961    0.0255 O.2       1 <0>        -0.5142
     15 N1         -1.4134   -1.9985    0.0048 N.am      1 <0>        -0.7096
     16 C13        -1.4333   -0.5336    0.0129 C.3       1 <0>         0.1196
     17 C14         0.0021   -0.0041    0.0020 C.3       1 <0>        -0.1666
     18 C15        -0.0187    1.5258    0.0104 C.3       1 <0>        -0.0008
     19 C16         2.0606    1.6798    1.2406 C.3       1 <0>        -0.0020
     20 C17         3.5319    2.0889    1.1307 C.3       1 <0>        -0.1349
     21 C18         3.6196    3.5918    0.8706 C.3       1 <0>         0.1462
     22 C19         2.8330    3.9519   -0.3888 C.3       1 <0>        -0.1563
     23 C20         1.3837    3.4843   -0.2305 C.3       1 <0>         0.0041
     24 C21         5.0596    4.0145    0.7253 C.ar      1 <0>        -0.1438
     25 C22         6.1368    3.4666    0.0594 C.ar      1 <0>        -0.0861
     26 C23         7.3688    4.0929    0.1059 C.ar      1 <0>        -0.1099
     27 C24         7.5220    5.2671    0.8196 C.ar      1 <0>        -0.0952
     28 C25         6.4429    5.8168    1.4873 C.ar      1 <0>        -0.0885
     29 C26         5.2137    5.1924    1.4407 C.ar      1 <0>        -0.1240
     30 C27         3.8706    5.5290    2.0461 C.3       1 <0>         0.0881
     31 O2          3.0979    4.3148    1.9965 O.3       1 <0>        -0.3505
     32 H2         -9.0293   -7.7307   -0.9569 H         1 <0>         0.1383
     33 H3         -9.0532   -5.2696   -1.0301 H         1 <0>         0.1378
     34 H4         -6.9361   -4.0220   -1.1874 H         1 <0>         0.1313
     35 H5         -4.7719   -7.6969   -1.2077 H         1 <0>         0.1323
     36 H6         -6.8884   -8.9442   -1.0410 H         1 <0>         0.1384
     37 H7         -4.5965   -4.0839   -1.8329 H         1 <0>         0.1345
     38 H8         -3.6930   -5.6175   -1.8372 H         1 <0>         0.1352
     39 H9         -4.6102   -5.8082    1.7328 H         1 <0>         0.1330
     40 H10        -4.2468   -6.8012    0.2954 H         1 <0>         0.1450
     41 H11        -2.4959   -6.4898    2.4359 H         1 <0>         0.1198
     42 H12        -1.9571   -6.8579    0.7663 H         1 <0>         0.1053
     43 H13        -0.7895   -4.7864    1.1637 H         1 <0>         0.1243
     44 H14        -2.1331   -4.1227    2.1527 H         1 <0>         0.1038
     45 H15        -0.5669   -2.4720   -0.0058 H         1 <0>         0.4129
     46 H16        -1.9435   -0.1821    0.9097 H         1 <0>         0.0902
     47 H17        -1.9605   -0.1726   -0.8702 H         1 <0>         0.0899
     48 H18         0.5123   -0.3556   -0.8948 H         1 <0>         0.0982
     49 H19         0.5293   -0.3651    0.8851 H         1 <0>         0.0985
     50 H20        -0.5459    1.8868   -0.8726 H         1 <0>         0.1356
     51 H21        -0.5289    1.8773    0.9072 H         1 <0>         0.1381
     52 H22         1.6002    2.2014    2.0798 H         1 <0>         0.1398
     53 H23         1.9937    0.6037    1.4010 H         1 <0>         0.1288
     54 H24         3.9991    1.5492    0.3070 H         1 <0>         0.1009
     55 H25         4.0471    1.8499    2.0610 H         1 <0>         0.1224
     56 H26         3.2820    3.4598   -1.2515 H         1 <0>         0.1005
     57 H27         2.8530    5.0319   -0.5346 H         1 <0>         0.1185
     58 H28         0.8256    3.7173   -1.1373 H         1 <0>         0.1329
     59 H29         0.9278    3.9947    0.6179 H         1 <0>         0.1391
     60 H30         6.0178    2.5492   -0.4981 H         1 <0>         0.1237
     61 H31         8.2121    3.6642   -0.4151 H         1 <0>         0.1359
     62 H32         8.4848    5.7551    0.8559 H         1 <0>         0.1378
     63 H33         6.5624    6.7342    2.0445 H         1 <0>         0.1334
     64 H34         3.9951    5.8530    3.0794 H         1 <0>         0.1092
     65 H35         3.3818    6.3105    1.4644 H         1 <0>         0.0862
     66 N2         -3.9293   -4.7202    0.0688 N.4       1 <0>        -0.3831
     67 H36        -4.5403   -4.0182    0.5024 H         1 <0>         0.4355
     68 N3          1.3730    2.0202   -0.0236 N.4       1 <0>        -0.3940
     69 H37         1.8676    1.5705   -0.8030 H         1 <0>         0.4251
@<TRIPOS>BOND
     1    1    6 ar
     2    1    2 ar
     3    1   32 1
     4    2    3 ar
     5    2   33 1
     6    3    4 ar
     7    3   34 1
     8    4    5 ar
     9    4    7 1
    10    5    6 ar
    11    5   35 1
    12    6   36 1
    13    7   37 1
    14    7   38 1
    15    7   66 1
    16    8    9 1
    17    8   39 1
    18    8   40 1
    19    8   66 1
    20    9   10 1
    21    9   41 1
    22    9   42 1
    23   10   11 1
    24   10   43 1
    25   10   44 1
    26   11   12 1
    27   11   13 1
    28   11   66 1
    29   13   14 2
    30   13   15 am
    31   15   16 1
    32   15   45 1
    33   16   17 1
    34   16   46 1
    35   16   47 1
    36   17   18 1
    37   17   48 1
    38   17   49 1
    39   18   50 1
    40   18   51 1
    41   18   68 1
    42   19   20 1
    43   19   52 1
    44   19   53 1
    45   19   68 1
    46   20   21 1
    47   20   54 1
    48   20   55 1
    49   21   31 1
    50   21   22 1
    51   21   24 1
    52   22   23 1
    53   22   56 1
    54   22   57 1
    55   23   58 1
    56   23   59 1
    57   23   68 1
    58   24   29 ar
    59   24   25 ar
    60   25   26 ar
    61   25   60 1
    62   26   27 ar
    63   26   61 1
    64   27   28 ar
    65   27   62 1
    66   28   29 ar
    67   28   63 1
    68   29   30 1
    69   30   31 1
    70   30   64 1
    71   30   65 1
    72   66   67 1
    73   68   69 1
@<TRIPOS>MOLECULE
ZINC01699052
   48    51     0     0     0
SMALL
USER_CHARGES
8-benzyl-1-phenyl-1,3,8-triazaspiro[4.5]decan-4-one
@<TRIPOS>ATOM
      1 C1         -6.8443   -2.3610    3.7036 C.ar      1 <0>        -0.0843
      2 C2         -7.5373   -1.2678    3.2182 C.ar      1 <0>        -0.1133
      3 C3         -7.2127   -0.7360    1.9842 C.ar      1 <0>        -0.0961
      4 C4         -6.1953   -1.2975    1.2355 C.ar      1 <0>        -0.1618
      5 C5         -5.5061   -2.3941    1.7185 C.ar      1 <0>        -0.0945
      6 C6         -5.8272   -2.9228    2.9547 C.ar      1 <0>        -0.1135
      7 C7         -5.8417   -0.7179   -0.1099 C.3       1 <0>         0.0493
      8 C8         -4.2734    0.7386   -1.2411 C.3       1 <0>        -0.0007
      9 C9         -3.1013    1.6988   -1.0194 C.3       1 <0>        -0.1657
     10 C10        -3.5811    2.9033   -0.2140 C.3       1 <0>         0.0519
     11 C11        -4.2019    2.4469    1.1035 C.3       1 <0>        -0.1185
     12 C12        -5.3386    1.4626    0.8134 C.3       1 <0>        -0.0174
     13 C13        -4.5749    3.7095   -1.0134 C.2       1 <0>         0.5296
     14 O1         -5.7405    3.4254   -1.1908 O.2       1 <0>        -0.5108
     15 N1         -3.9453    4.8011   -1.4969 N.am      1 <0>        -0.7202
     16 C14        -2.5377    4.7828   -1.0787 C.3       1 <0>         0.2383
     17 N2         -2.4537    3.8224    0.0465 N.pl3     1 <0>        -0.4408
     18 C15        -1.2361    3.1382    0.0307 C.ar      1 <0>         0.0805
     19 C16        -0.2407    3.5091   -0.8644 C.ar      1 <0>        -0.1598
     20 C17         0.9597    2.8265   -0.8814 C.ar      1 <0>        -0.0848
     21 C18         1.1756    1.7821   -0.0011 C.ar      1 <0>        -0.1238
     22 C19         0.1889    1.4139    0.8951 C.ar      1 <0>        -0.0948
     23 C20        -1.0160    2.0886    0.9137 C.ar      1 <0>        -0.1412
     24 H1         -7.0977   -2.7763    4.6678 H         1 <0>         0.1355
     25 H2         -8.3322   -0.8291    3.8031 H         1 <0>         0.1361
     26 H3         -7.7541    0.1181    1.6050 H         1 <0>         0.1321
     27 H4         -4.7142   -2.8356    1.1316 H         1 <0>         0.1309
     28 H5         -5.2860   -3.7770    3.3338 H         1 <0>         0.1357
     29 H6         -6.7310   -0.2776   -0.5609 H         1 <0>         0.1388
     30 H7         -5.4595   -1.5077   -0.7566 H         1 <0>         0.1356
     31 H8         -5.0527    1.2425   -1.8128 H         1 <0>         0.1381
     32 H9         -3.9273   -0.1364   -1.7912 H         1 <0>         0.1363
     33 H10        -2.7187    2.0346   -1.9832 H         1 <0>         0.1152
     34 H11        -2.3101    1.1867   -0.4717 H         1 <0>         0.1192
     35 H12        -3.4427    1.9567    1.7129 H         1 <0>         0.1022
     36 H13        -4.5964    3.3109    1.6383 H         1 <0>         0.1230
     37 H14        -6.1106    1.9614    0.2275 H         1 <0>         0.1530
     38 H15        -5.7651    1.1128    1.7536 H         1 <0>         0.1353
     39 H16        -4.3592    5.4920   -2.0374 H         1 <0>         0.4325
     40 H17        -2.2320    5.7754   -0.7479 H         1 <0>         0.1178
     41 H18        -1.9062    4.4508   -1.9028 H         1 <0>         0.0853
     42 H19        -0.4070    4.3275   -1.5492 H         1 <0>         0.1353
     43 H20         1.7324    3.1115   -1.5801 H         1 <0>         0.1327
     44 H21         2.1171    1.2531   -0.0132 H         1 <0>         0.1309
     45 H22         0.3609    0.5981    1.5816 H         1 <0>         0.1318
     46 H23        -1.7860    1.8008    1.6141 H         1 <0>         0.1259
     47 N3         -4.7915    0.3046    0.0744 N.4       1 <0>        -0.3888
     48 H24        -4.0212   -0.1029    0.6174 H         1 <0>         0.4224
@<TRIPOS>BOND
     1    1    6 ar
     2    1    2 ar
     3    1   24 1
     4    2    3 ar
     5    2   25 1
     6    3    4 ar
     7    3   26 1
     8    4    5 ar
     9    4    7 1
    10    5    6 ar
    11    5   27 1
    12    6   28 1
    13    7   29 1
    14    7   30 1
    15    7   47 1
    16    8    9 1
    17    8   31 1
    18    8   32 1
    19    8   47 1
    20    9   10 1
    21    9   33 1
    22    9   34 1
    23   10   17 1
    24   10   11 1
    25   10   13 1
    26   11   12 1
    27   11   35 1
    28   11   36 1
    29   12   37 1
    30   12   38 1
    31   12   47 1
    32   13   14 2
    33   13   15 am
    34   15   16 1
    35   15   39 1
    36   16   17 1
    37   16   40 1
    38   16   41 1
    39   17   18 1
    40   18   23 ar
    41   18   19 ar
    42   19   20 ar
    43   19   42 1
    44   20   21 ar
    45   20   43 1
    46   21   22 ar
    47   21   44 1
    48   22   23 ar
    49   22   45 1
    50   23   46 1
    51   47   48 1
@<TRIPOS>MOLECULE
ZINC00320034
   42    44     0     0     0
SMALL
USER_CHARGES

@<TRIPOS>ATOM
      1 C1         -0.0167    1.3781    0.0096 C.ar      1 <0>        -0.0841
      2 C2          1.1709    2.0855    0.0021 C.ar      1 <0>        -0.1134
      3 C3          2.3773    1.4107   -0.0130 C.ar      1 <0>        -0.0972
      4 C4          2.3960    0.0285   -0.0201 C.ar      1 <0>        -0.1616
      5 C5          1.2084   -0.6789   -0.0117 C.ar      1 <0>        -0.0942
      6 C6          0.0021   -0.0041    0.0020 C.ar      1 <0>        -0.1132
      7 C7          3.7112   -0.7071   -0.0376 C.3       1 <0>         0.0451
      8 N1          4.1530   -0.9531    1.3416 N.4       1 <0>        -0.3811
      9 C8          4.4244    0.3290    2.0029 C.3       1 <0>        -0.0087
     10 C9          4.8069    0.0828    3.4639 C.3       1 <0>        -0.1303
     11 C10         6.0600   -0.7959    3.5167 C.3       1 <0>         0.1745
     12 C11         5.7896   -2.0995    2.7599 C.3       1 <0>        -0.1694
     13 C12         5.3707   -1.7725    1.3250 C.3       1 <0>        -0.0026
     14 C13         6.3972   -1.1072    4.9521 C.ar      1 <0>        -0.1285
     15 C14         5.3907   -1.1904    5.8961 C.ar      1 <0>        -0.1145
     16 C15         5.7000   -1.4759    7.2128 C.ar      1 <0>        -0.1125
     17 C16         7.0157   -1.6786    7.5855 C.ar      1 <0>        -0.1061
     18 C17         8.0220   -1.5962    6.6413 C.ar      1 <0>        -0.1099
     19 C18         7.7123   -1.3150    5.3238 C.ar      1 <0>        -0.1072
     20 O1          7.1529   -0.1068    2.9061 O.3       1 <0>        -0.5490
     21 H1         -0.9591    1.9053    0.0259 H         1 <0>         0.1359
     22 H2          1.1563    3.1654    0.0076 H         1 <0>         0.1363
     23 H3          3.3051    1.9634   -0.0196 H         1 <0>         0.1315
     24 H4          1.2231   -1.7588   -0.0176 H         1 <0>         0.1309
     25 H5         -0.9258   -0.5567    0.0082 H         1 <0>         0.1361
     26 H6          3.5884   -1.6586   -0.5549 H         1 <0>         0.1367
     27 H7          4.4573   -0.1052   -0.5563 H         1 <0>         0.1359
     28 H8          5.2450    0.8337    1.4930 H         1 <0>         0.1370
     29 H9          3.5326    0.9544    1.9617 H         1 <0>         0.1327
     30 H10         5.0097    1.0357    3.9526 H         1 <0>         0.1215
     31 H11         3.9868   -0.4218    3.9748 H         1 <0>         0.1025
     32 H12         6.6949   -2.7065    2.7454 H         1 <0>         0.1166
     33 H13         4.9899   -2.6494    3.2562 H         1 <0>         0.0994
     34 H14         5.1776   -2.6984    0.7833 H         1 <0>         0.1323
     35 H15         6.1712   -1.2229    0.8296 H         1 <0>         0.1352
     36 H16         4.3629   -1.0320    5.6049 H         1 <0>         0.1229
     37 H17         4.9138   -1.5402    7.9504 H         1 <0>         0.1291
     38 H18         7.2574   -1.9009    8.6143 H         1 <0>         0.1298
     39 H19         9.0499   -1.7543    6.9325 H         1 <0>         0.1300
     40 H20         8.4981   -1.2543    4.5854 H         1 <0>         0.1223
     41 H21         7.9810   -0.6061    2.9043 H         1 <0>         0.3899
     42 H22         3.4271   -1.4414    1.8443 H         1 <0>         0.4196
@<TRIPOS>BOND
     1    1    6 ar
     2    1    2 ar
     3    1   21 1
     4    2    3 ar
     5    2   22 1
     6    3    4 ar
     7    3   23 1
     8    4    5 ar
     9    4    7 1
    10    5    6 ar
    11    5   24 1
    12    6   25 1
    13    7    8 1
    14    7   26 1
    15    7   27 1
    16    8   13 1
    17    8    9 1
    18    8   42 1
    19    9   10 1
    20    9   28 1
    21    9   29 1
    22   10   11 1
    23   10   30 1
    24   10   31 1
    25   11   12 1
    26   11   14 1
    27   11   20 1
    28   12   13 1
    29   12   32 1
    30   12   33 1
    31   13   34 1
    32   13   35 1
    33   14   19 ar
    34   14   15 ar
    35   15   16 ar
    36   15   36 1
    37   16   17 ar
    38   16   37 1
    39   17   18 ar
    40   17   38 1
    41   18   19 ar
    42   18   39 1
    43   19   40 1
    44   20   41 1
@<TRIPOS>MOLECULE
ZINC24912441
   47    50     0     0     0
SMALL
USER_CHARGES
4-phenyl-8-(2-pyridylmethyl)-2,4,8-triazaspiro[4.5]decan-1-one
@<TRIPOS>ATOM
      1 C1          1.9740    9.0089   -6.0449 C.ar      1 <0>        -0.1254
      2 C2          1.9065    7.7327   -5.5166 C.ar      1 <0>        -0.0948
      3 C3          0.6839    7.1884   -5.1760 C.ar      1 <0>        -0.1436
      4 C4         -0.4791    7.9243   -5.3647 C.ar      1 <0>         0.0831
      5 C5         -0.4082    9.2040   -5.9005 C.ar      1 <0>        -0.1605
      6 C6          0.8182    9.7443   -6.2340 C.ar      1 <0>        -0.0845
      7 N1         -1.7174    7.3767   -5.0218 N.pl3     1 <0>        -0.4441
      8 C7         -2.7940    8.3888   -5.1304 C.3       1 <0>         0.2267
      9 N2         -3.7515    8.0843   -4.0595 N.am      1 <0>        -0.7306
     10 C8         -3.1660    7.2844   -3.1435 C.2       1 <0>         0.5352
     11 O1         -3.6864    6.8643   -2.1317 O.2       1 <0>        -0.5114
     12 C9         -1.7535    7.0026   -3.5927 C.3       1 <0>         0.0543
     13 C10        -0.7629    7.8531   -2.8022 C.3       1 <0>        -0.1656
     14 C11        -0.7831    7.4206   -1.3334 C.3       1 <0>        -0.0024
     15 N3         -0.4415    5.9955   -1.2382 N.4       1 <0>        -0.3899
     16 C12        -1.4266    5.1632   -1.9405 C.3       1 <0>        -0.0134
     17 C13        -1.4277    5.5205   -3.4296 C.3       1 <0>        -0.1188
     18 C14        -0.3049    5.5795    0.1640 C.3       1 <0>         0.0575
     19 C15        -0.1994    4.0778    0.2344 C.ar      1 <0>         0.0576
     20 C16         1.0471    3.4819    0.2782 C.ar      1 <0>        -0.1449
     21 C17         1.1331    2.0998    0.3424 C.ar      1 <0>        -0.0678
     22 C18        -0.0431    1.3654    0.3603 C.ar      1 <0>        -0.1372
     23 C19        -1.2531    2.0306    0.3080 C.ar      1 <0>         0.1093
     24 N4         -1.2971    3.3476    0.2532 N.ar      1 <0>        -0.4643
     25 H1          2.9314    9.4321   -6.3107 H         1 <0>         0.1304
     26 H2          2.8110    7.1609   -5.3705 H         1 <0>         0.1313
     27 H3          0.6319    6.1915   -4.7638 H         1 <0>         0.1253
     28 H4         -1.3108    9.7772   -6.0526 H         1 <0>         0.1353
     29 H5          0.8744   10.7407   -6.6468 H         1 <0>         0.1322
     30 H6         -2.3660    9.3943   -5.0046 H         1 <0>         0.0831
     31 H7         -3.2694    8.3138   -6.1195 H         1 <0>         0.1157
     32 H8         -4.7695    8.4992   -4.0976 H         1 <0>         0.4604
     33 H9          0.2482    7.7149   -3.2127 H         1 <0>         0.1205
     34 H10        -1.0476    8.9129   -2.8777 H         1 <0>         0.1157
     35 H11        -0.0490    8.0123   -0.7668 H         1 <0>         0.1401
     36 H12        -1.7875    7.5856   -0.9163 H         1 <0>         0.1362
     37 H13        -1.1638    4.1021   -1.8182 H         1 <0>         0.1324
     38 H14        -2.4265    5.3442   -1.5192 H         1 <0>         0.1558
     39 H15        -2.1860    4.9188   -3.9520 H         1 <0>         0.1218
     40 H16        -0.4361    5.3137   -3.8586 H         1 <0>         0.1006
     41 H17         0.6012    6.0313    0.5939 H         1 <0>         0.1464
     42 H18        -1.1857    5.9123    0.7327 H         1 <0>         0.1442
     43 H19         1.9426    4.0854    0.2629 H         1 <0>         0.1444
     44 H20         2.0933    1.6067    0.3780 H         1 <0>         0.1488
     45 H21        -0.0137    0.2869    0.4099 H         1 <0>         0.1501
     46 H22        -2.1736    1.4657    0.3166 H         1 <0>         0.1710
     47 H23         0.5307    5.8511   -1.7322 H         1 <0>         0.4335
@<TRIPOS>BOND
     1    1    6 ar
     2    1    2 ar
     3    1   25 1
     4    2    3 ar
     5    2   26 1
     6    3    4 ar
     7    3   27 1
     8    4    5 ar
     9    4    7 1
    10    5    6 ar
    11    5   28 1
    12    6   29 1
    13    7   12 1
    14    7    8 1
    15    8    9 1
    16    8   30 1
    17    8   31 1
    18    9   10 am
    19    9   32 1
    20   10   11 2
    21   10   12 1
    22   12   17 1
    23   12   13 1
    24   13   14 1
    25   13   33 1
    26   13   34 1
    27   14   15 1
    28   14   35 1
    29   14   36 1
    30   15   16 1
    31   15   18 1
    32   15   47 1
    33   16   17 1
    34   16   37 1
    35   16   38 1
    36   17   39 1
    37   17   40 1
    38   18   19 1
    39   18   41 1
    40   18   42 1
    41   19   24 ar
    42   19   20 ar
    43   20   21 ar
    44   20   43 1
    45   21   22 ar
    46   21   44 1
    47   22   23 ar
    48   22   45 1
    49   23   24 ar
    50   23   46 1
@<TRIPOS>MOLECULE
ZINC24912362
   47    50     0     0     0
SMALL
USER_CHARGES
4-phenyl-8-(3-pyridylmethyl)-2,4,8-triazaspiro[4.5]decan-1-one
@<TRIPOS>ATOM
      1 C1          1.1756    1.7821   -0.0011 C.ar      1 <0>        -0.1248
      2 C2          0.9597    2.8265   -0.8814 C.ar      1 <0>        -0.0846
      3 C3         -0.2407    3.5091   -0.8644 C.ar      1 <0>        -0.1606
      4 C4         -1.2361    3.1382    0.0307 C.ar      1 <0>         0.0823
      5 C5         -1.0160    2.0886    0.9137 C.ar      1 <0>        -0.1426
      6 C6          0.1889    1.4139    0.8951 C.ar      1 <0>        -0.0949
      7 N1         -2.4537    3.8224    0.0465 N.pl3     1 <0>        -0.4437
      8 C7         -2.5377    4.7828   -1.0787 C.3       1 <0>         0.2260
      9 N2         -3.9453    4.8011   -1.4969 N.am      1 <0>        -0.7293
     10 C8         -4.5749    3.7095   -1.0134 C.2       1 <0>         0.5364
     11 O1         -5.7405    3.4254   -1.1908 O.2       1 <0>        -0.5154
     12 C9         -3.5811    2.9033   -0.2140 C.3       1 <0>         0.0539
     13 C10        -4.2019    2.4469    1.1035 C.3       1 <0>        -0.1183
     14 C11        -5.3386    1.4626    0.8134 C.3       1 <0>        -0.0217
     15 N3         -4.8137    0.3179    0.0580 N.4       1 <0>        -0.3927
     16 C12        -4.2734    0.7386   -1.2411 C.3       1 <0>        -0.0034
     17 C13        -3.1013    1.6988   -1.0194 C.3       1 <0>        -0.1658
     18 C14        -5.8417   -0.7179   -0.1099 C.3       1 <0>         0.0523
     19 C15        -6.1953   -1.2975    1.2355 C.ar      1 <0>        -0.2152
     20 C16        -5.5097   -2.3975    1.7283 C.ar      1 <0>        -0.0473
     21 C17        -5.8660   -2.8940    2.9727 C.ar      1 <0>        -0.1657
     22 C18        -6.8923   -2.2864    3.6715 C.ar      1 <0>         0.1361
     23 N4         -7.5259   -1.2447    3.1695 N.ar      1 <0>        -0.4745
     24 C19        -7.2107   -0.7430    1.9912 C.ar      1 <0>         0.1293
     25 H1          2.1171    1.2531   -0.0132 H         1 <0>         0.1306
     26 H2          1.7324    3.1115   -1.5801 H         1 <0>         0.1324
     27 H3         -0.4070    4.3275   -1.5492 H         1 <0>         0.1355
     28 H4         -1.7860    1.8008    1.6141 H         1 <0>         0.1254
     29 H5          0.3609    0.5981    1.5816 H         1 <0>         0.1313
     30 H6         -2.2132    5.7769   -0.7373 H         1 <0>         0.1164
     31 H7         -1.8857    4.4457   -1.8980 H         1 <0>         0.0838
     32 H8         -4.3255    5.6299   -2.1122 H         1 <0>         0.4611
     33 H9         -3.4351    1.9530    1.7184 H         1 <0>         0.1023
     34 H10        -4.5990    3.3192    1.6434 H         1 <0>         0.1240
     35 H11        -5.7690    1.1096    1.7622 H         1 <0>         0.1340
     36 H12        -6.1177    1.9661    0.2221 H         1 <0>         0.1532
     37 H13        -3.9241   -0.1445   -1.7963 H         1 <0>         0.1392
     38 H14        -5.0599    1.2470   -1.8181 H         1 <0>         0.1362
     39 H15        -2.7145    2.0383   -1.9916 H         1 <0>         0.1156
     40 H16        -2.3022    1.1829   -0.4668 H         1 <0>         0.1200
     41 H17        -6.7391   -0.2734   -0.5650 H         1 <0>         0.1399
     42 H18        -5.4560   -1.5149   -0.7626 H         1 <0>         0.1410
     43 H19        -4.7143   -2.8542    1.1580 H         1 <0>         0.1448
     44 H20        -5.3511   -3.7471    3.3890 H         1 <0>         0.1504
     45 H21        -7.1788   -2.6696    4.6397 H         1 <0>         0.1703
     46 H22        -7.7523    0.1113    1.6126 H         1 <0>         0.1624
     47 H23        -3.9863   -0.1148    0.6395 H         1 <0>         0.4344
@<TRIPOS>BOND
     1    1    6 ar
     2    1    2 ar
     3    1   25 1
     4    2    3 ar
     5    2   26 1
     6    3    4 ar
     7    3   27 1
     8    4    5 ar
     9    4    7 1
    10    5    6 ar
    11    5   28 1
    12    6   29 1
    13    7   12 1
    14    7    8 1
    15    8    9 1
    16    8   30 1
    17    8   31 1
    18    9   10 am
    19    9   32 1
    20   10   11 2
    21   10   12 1
    22   12   17 1
    23   12   13 1
    24   13   14 1
    25   13   33 1
    26   13   34 1
    27   14   15 1
    28   14   35 1
    29   14   36 1
    30   15   16 1
    31   15   18 1
    32   15   47 1
    33   16   17 1
    34   16   37 1
    35   16   38 1
    36   17   39 1
    37   17   40 1
    38   18   19 1
    39   18   41 1
    40   18   42 1
    41   19   24 ar
    42   19   20 ar
    43   20   21 ar
    44   20   43 1
    45   21   22 ar
    46   21   44 1
    47   22   23 ar
    48   22   45 1
    49   23   24 ar
    50   24   46 1
@<TRIPOS>MOLECULE
ZINC04216763
   63    65     0     0     0
SMALL
USER_CHARGES
methyl 3-methyl-1-phenethyl-4-(phenyl-propanoyl-amino)-piperidine-4-carboxylate
@<TRIPOS>ATOM
      1 C1         -3.1088    8.4880    1.6261 C.3       1 <0>        -0.1524
      2 C2         -2.2275    7.2569    1.4059 C.3       1 <0>        -0.1602
      3 C3         -3.0918    6.0812    1.0294 C.2       1 <0>         0.4738
      4 O1         -4.0711    6.2467    0.3332 O.2       1 <0>        -0.4587
      5 N1         -2.7766    4.8458    1.4662 N.am      1 <0>        -0.5351
      6 C4         -1.4790    4.5713    1.9122 C.ar      1 <0>         0.1321
      7 C5         -1.1895    3.3464    2.4991 C.ar      1 <0>        -0.1089
      8 C6          0.0913    3.0802    2.9422 C.ar      1 <0>        -0.0965
      9 C7          1.0871    4.0279    2.7928 C.ar      1 <0>        -0.1220
     10 C8          0.8032    5.2466    2.2041 C.ar      1 <0>        -0.0900
     11 C9         -0.4766    5.5208    1.7633 C.ar      1 <0>        -0.1850
     12 C10        -3.7925    3.7903    1.4742 C.3       1 <0>         0.1725
     13 C11        -4.1659    3.4503    2.9197 C.3       1 <0>        -0.1652
     14 C12        -4.7733    4.6855    3.5886 C.3       1 <0>         0.0034
     15 C13        -5.6234    5.4878    1.4659 C.3       1 <0>        -0.0613
     16 C14        -5.0414    4.2765    0.7337 C.3       1 <0>        -0.0844
     17 H1         -5.7823    3.4775    0.7060 H         1 <0>         0.1090
     18 C15        -4.6654    4.6754   -0.6948 C.3       1 <0>        -0.1032
     19 C16        -6.6536    6.2093    3.5344 C.3       1 <0>         0.0029
     20 C17        -7.2170    5.7021    4.8634 C.3       1 <0>        -0.1011
     21 C18        -7.9234    6.8289    5.5722 C.ar      1 <0>        -0.1071
     22 C19        -7.2260    7.6392    6.4486 C.ar      1 <0>        -0.1102
     23 C20        -7.8727    8.6761    7.0947 C.ar      1 <0>        -0.1141
     24 C21        -9.2195    8.8956    6.8732 C.ar      1 <0>        -0.1046
     25 C22        -9.9180    8.0820    6.0009 C.ar      1 <0>        -0.1136
     26 C23        -9.2700    7.0487    5.3504 C.ar      1 <0>        -0.1097
     27 C24        -3.2476    2.5617    0.7925 C.2       1 <0>         0.4498
     28 O2         -3.9972    1.8041    0.2231 O.2       1 <0>        -0.4736
     29 O3         -1.9296    2.3090    0.8178 O.3       1 <0>        -0.3221
     30 C25        -1.4756    1.1076    0.1403 C.3       1 <0>         0.0141
     31 H2         -2.4837    9.3383    1.8985 H         1 <0>         0.0803
     32 H3         -3.6515    8.7151    0.7085 H         1 <0>         0.0738
     33 H4         -3.8191    8.2876    2.4282 H         1 <0>         0.0519
     34 H5         -1.6848    7.0297    2.3235 H         1 <0>         0.1142
     35 H6         -1.5172    7.4573    0.6038 H         1 <0>         0.1217
     36 H7         -1.9658    2.6041    2.6120 H         1 <0>         0.1325
     37 H8          0.3163    2.1291    3.4017 H         1 <0>         0.1301
     38 H9          2.0888    3.8158    3.1364 H         1 <0>         0.1290
     39 H10         1.5832    5.9846    2.0886 H         1 <0>         0.1327
     40 H11        -0.6977    6.4727    1.3036 H         1 <0>         0.1603
     41 H12        -4.8929    2.6382    2.9264 H         1 <0>         0.1154
     42 H13        -3.2724    3.1440    3.4639 H         1 <0>         0.1331
     43 H14        -5.0533    4.4426    4.6136 H         1 <0>         0.1405
     44 H15        -4.0409    5.4928    3.5937 H         1 <0>         0.1293
     45 H16        -6.5210    5.8277    0.9492 H         1 <0>         0.1311
     46 H17        -4.8871    6.2913    1.4812 H         1 <0>         0.2060
     47 H18        -4.8584    3.8401   -1.3679 H         1 <0>         0.0436
     48 H19        -5.2623    5.5344   -1.0012 H         1 <0>         0.0844
     49 H20        -3.6077    4.9358   -0.7328 H         1 <0>         0.0666
     50 H21        -5.9480    7.0183    3.7240 H         1 <0>         0.1298
     51 H22        -7.4685    6.5766    2.9108 H         1 <0>         0.1312
     52 H23        -7.9225    4.8932    4.6739 H         1 <0>         0.0945
     53 H24        -6.4020    5.3348    5.4871 H         1 <0>         0.0931
     54 H25        -6.1749    7.4648    6.6253 H         1 <0>         0.1231
     55 H26        -7.3269    9.3120    7.7760 H         1 <0>         0.1291
     56 H27        -9.7258    9.7029    7.3815 H         1 <0>         0.1294
     57 H28       -10.9702    8.2535    5.8278 H         1 <0>         0.1292
     58 H29        -9.8159    6.4129    4.6691 H         1 <0>         0.1239
     59 H30        -0.3932    1.0231    0.2369 H         1 <0>         0.1090
     60 H31        -1.9497    0.2354    0.5905 H         1 <0>         0.0698
     61 H32        -1.7431    1.1624   -0.9149 H         1 <0>         0.0678
     62 N2         -5.9845    5.0881    2.8428 N.4       1 <0>        -0.4026
     63 H33        -6.6295    4.2904    2.7997 H         1 <0>         0.4177
@<TRIPOS>BOND
     1    1    2 1
     2    1   31 1
     3    1   32 1
     4    1   33 1
     5    2    3 1
     6    2   34 1
     7    2   35 1
     8    3    4 2
     9    3    5 am
    10    5    6 1
    11    5   12 1
    12    6   11 ar
    13    6    7 ar
    14    7    8 ar
    15    7   36 1
    16    8    9 ar
    17    8   37 1
    18    9   10 ar
    19    9   38 1
    20   10   11 ar
    21   10   39 1
    22   11   40 1
    23   12   16 1
    24   12   13 1
    25   12   27 1
    26   13   14 1
    27   13   41 1
    28   13   42 1
    29   14   43 1
    30   14   44 1
    31   14   62 1
    32   15   16 1
    33   15   45 1
    34   15   46 1
    35   15   62 1
    36   16   17 1
    37   16   18 1
    38   18   47 1
    39   18   48 1
    40   18   49 1
    41   19   20 1
    42   19   50 1
    43   19   51 1
    44   19   62 1
    45   20   21 1
    46   20   52 1
    47   20   53 1
    48   21   26 ar
    49   21   22 ar
    50   22   23 ar
    51   22   54 1
    52   23   24 ar
    53   23   55 1
    54   24   25 ar
    55   24   56 1
    56   25   26 ar
    57   25   57 1
    58   26   58 1
    59   27   28 2
    60   27   29 1
    61   29   30 1
    62   30   59 1
    63   30   60 1
    64   30   61 1
    65   62   63 1
@<TRIPOS>MOLECULE
ZINC01718862
   45    48     0     0     0
SMALL
USER_CHARGES
1-(1-benzyl-4-piperidyl)-3H-benzoimidazol-2-one
@<TRIPOS>ATOM
      1 C1         -6.4550    6.9731    3.9602 C.ar      1 <0>        -0.0841
      2 C2         -5.1616    7.3817    3.6933 C.ar      1 <0>        -0.1145
      3 C3         -4.6111    7.1617    2.4446 C.ar      1 <0>        -0.0973
      4 C4         -5.3540    6.5335    1.4626 C.ar      1 <0>        -0.1621
      5 C5         -6.6493    6.1300    1.7277 C.ar      1 <0>        -0.0932
      6 C6         -7.1981    6.3453    2.9781 C.ar      1 <0>        -0.1129
      7 C7         -4.7539    6.2941    0.1011 C.3       1 <0>         0.0492
      8 C8         -3.2879    4.8194   -1.1385 C.3       1 <0>         0.0069
      9 C9         -2.7234    3.3979   -1.1904 C.3       1 <0>        -0.1681
     10 C10        -1.8516    3.1548    0.0447 C.3       1 <0>         0.1610
     11 C11        -2.6893    3.3838    1.3058 C.3       1 <0>        -0.1651
     12 C12        -3.2561    4.8052    1.2845 C.3       1 <0>         0.0002
     13 N1         -1.3555    1.7764    0.0301 N.am      1 <0>        -0.5377
     14 C13        -0.0169    1.3921    0.0097 C.ar      1 <0>         0.0793
     15 C14         1.1760    2.0989    0.0021 C.ar      1 <0>        -0.1046
     16 C15         2.3780    1.4188   -0.0122 C.ar      1 <0>        -0.1027
     17 C16         2.3967    0.0346   -0.0198 C.ar      1 <0>        -0.0990
     18 C17         1.2138   -0.6781   -0.0128 C.ar      1 <0>        -0.0998
     19 C18         0.0021   -0.0041    0.0020 C.ar      1 <0>         0.0914
     20 N2         -1.3257   -0.4247    0.0124 N.am      1 <0>        -0.6393
     21 H1         -1.6293   -1.3460    0.0109 H         1 <0>         0.4398
     22 C19        -2.1159    0.6653    0.0258 C.2       1 <0>         0.6857
     23 O1         -3.3326    0.6487    0.0373 O.2       1 <0>        -0.5583
     24 H2         -6.8850    7.1447    4.9359 H         1 <0>         0.1358
     25 H3         -4.5812    7.8725    4.4606 H         1 <0>         0.1361
     26 H4         -3.6006    7.4809    2.2361 H         1 <0>         0.1308
     27 H5         -7.2312    5.6432    0.9591 H         1 <0>         0.1314
     28 H6         -8.2086    6.0265    3.1865 H         1 <0>         0.1362
     29 H7         -4.0290    7.0776   -0.1193 H         1 <0>         0.1377
     30 H8         -5.5428    6.3069   -0.6510 H         1 <0>         0.1358
     31 H9         -2.4669    5.5365   -1.1394 H         1 <0>         0.1343
     32 H10        -3.9208    4.9909   -2.0092 H         1 <0>         0.1367
     33 H11        -2.1205    3.2784   -2.0906 H         1 <0>         0.1177
     34 H12        -3.5437    2.6802   -1.2038 H         1 <0>         0.1074
     35 H13        -1.0084    3.8455    0.0371 H         1 <0>         0.1143
     36 H14        -3.5095    2.6663    1.3331 H         1 <0>         0.1058
     37 H15        -2.0622    3.2542    2.1878 H         1 <0>         0.1160
     38 H16        -2.4353    5.5223    1.2723 H         1 <0>         0.1322
     39 H17        -3.8658    4.9664    2.1736 H         1 <0>         0.1380
     40 H18         1.1653    3.1788    0.0076 H         1 <0>         0.1287
     41 H19         3.3072    1.9692   -0.0182 H         1 <0>         0.1388
     42 H20         3.3406   -0.4903   -0.0317 H         1 <0>         0.1402
     43 H21         1.2324   -1.7579   -0.0191 H         1 <0>         0.1369
     44 N3         -4.1048    4.9669    0.0850 N.4       1 <0>        -0.3955
     45 H22        -4.8307    4.2407    0.0903 H         1 <0>         0.4301
@<TRIPOS>BOND
     1    1    6 ar
     2    1    2 ar
     3    1   24 1
     4    2    3 ar
     5    2   25 1
     6    3    4 ar
     7    3   26 1
     8    4    5 ar
     9    4    7 1
    10    5    6 ar
    11    5   27 1
    12    6   28 1
    13    7   29 1
    14    7   30 1
    15    7   44 1
    16    8    9 1
    17    8   31 1
    18    8   32 1
    19    8   44 1
    20    9   10 1
    21    9   33 1
    22    9   34 1
    23   10   11 1
    24   10   13 1
    25   10   35 1
    26   11   12 1
    27   11   36 1
    28   11   37 1
    29   12   38 1
    30   12   39 1
    31   12   44 1
    32   13   22 am
    33   13   14 1
    34   14   19 ar
    35   14   15 ar
    36   15   16 ar
    37   15   40 1
    38   16   17 ar
    39   16   41 1
    40   17   18 ar
    41   17   42 1
    42   18   19 ar
    43   18   43 1
    44   19   20 1
    45   20   21 1
    46   20   22 am
    47   22   23 2
    48   44   45 1
@<TRIPOS>MOLECULE
ZINC01503084
   46    49     0     0     0
SMALL
USER_CHARGES
1-(1-benzyl-4-piperidyl)indolin-2-one
@<TRIPOS>ATOM
      1 C1         -1.8990    6.6512   -4.5312 C.ar      1 <0>        -0.0840
      2 C2         -2.3498    6.5816   -3.2263 C.ar      1 <0>        -0.1145
      3 C3         -1.4918    6.1818   -2.2189 C.ar      1 <0>        -0.0973
      4 C4         -0.1827    5.8520   -2.5164 C.ar      1 <0>        -0.1621
      5 C5          0.2697    5.9270   -3.8205 C.ar      1 <0>        -0.0933
      6 C6         -0.5898    6.3217   -4.8286 C.ar      1 <0>        -0.1128
      7 C7          0.7528    5.4165   -1.4181 C.3       1 <0>         0.0490
      8 C8          1.3908    3.5213   -0.0538 C.3       1 <0>         0.0066
      9 C9          1.4182    1.9921   -0.0008 C.3       1 <0>        -0.1667
     10 C10        -0.0178    1.4608    0.0101 C.3       1 <0>         0.1360
     11 C11        -0.7513    1.9694   -1.2341 C.3       1 <0>        -0.1641
     12 C12        -0.7158    3.4993   -1.2513 C.3       1 <0>         0.0002
     13 N1          0.0021   -0.0041    0.0020 N.am      1 <0>        -0.5465
     14 C13        -0.5522   -0.7950    1.0091 C.ar      1 <0>         0.1275
     15 C14        -1.2119   -0.4427    2.1851 C.ar      1 <0>        -0.1346
     16 C15        -1.6777   -1.4218    3.0377 C.ar      1 <0>        -0.0830
     17 C16        -1.4946   -2.7586    2.7340 C.ar      1 <0>        -0.1269
     18 C17        -0.8489   -3.1163    1.5633 C.ar      1 <0>        -0.0636
     19 C18        -0.3778   -2.1409    0.7134 C.ar      1 <0>        -0.1350
     20 C19         0.3660   -2.1946   -0.6011 C.3       1 <0>        -0.1181
     21 C20         0.5611   -0.7402   -0.9732 C.2       1 <0>         0.5322
     22 O1          1.1172   -0.3187   -1.9653 O.2       1 <0>        -0.5028
     23 H1         -2.5695    6.9632   -5.3183 H         1 <0>         0.1361
     24 H2         -3.3726    6.8394   -2.9939 H         1 <0>         0.1362
     25 H3         -1.8440    6.1275   -1.1994 H         1 <0>         0.1305
     26 H4          1.2936    5.6735   -4.0522 H         1 <0>         0.1313
     27 H5         -0.2375    6.3764   -5.8481 H         1 <0>         0.1364
     28 H6          0.4643    5.8971   -0.4833 H         1 <0>         0.1374
     29 H7          1.7726    5.7035   -1.6745 H         1 <0>         0.1357
     30 H8          0.8789    3.9061    0.8282 H         1 <0>         0.1336
     31 H9          2.4118    3.9022   -0.0763 H         1 <0>         0.1360
     32 H10         1.9328    1.6685    0.9040 H         1 <0>         0.1170
     33 H11         1.9423    1.6064   -0.8752 H         1 <0>         0.1046
     34 H12        -0.5298    1.8132    0.9055 H         1 <0>         0.1102
     35 H13        -0.2615    1.5839   -2.1283 H         1 <0>         0.1038
     36 H14        -1.7867    1.6297   -1.2104 H         1 <0>         0.1152
     37 H15        -1.2178    3.8843   -0.3637 H         1 <0>         0.1315
     38 H16        -1.2248    3.8643   -2.1434 H         1 <0>         0.1375
     39 H17        -1.3592    0.5991    2.4291 H         1 <0>         0.1226
     40 H18        -2.1886   -1.1430    3.9474 H         1 <0>         0.1353
     41 H19        -1.8619   -3.5214    3.4046 H         1 <0>         0.1360
     42 H20        -0.7027   -4.1591    1.3233 H         1 <0>         0.1349
     43 H21        -0.2307   -2.7055   -1.3569 H         1 <0>         0.1285
     44 H22         1.3291   -2.6898   -0.4774 H         1 <0>         0.1289
     45 N2          0.6931    3.9462   -1.2859 N.4       1 <0>        -0.3950
     46 H23         1.1580    3.5195   -2.0958 H         1 <0>         0.4295
@<TRIPOS>BOND
     1    1    6 ar
     2    1    2 ar
     3    1   23 1
     4    2    3 ar
     5    2   24 1
     6    3    4 ar
     7    3   25 1
     8    4    5 ar
     9    4    7 1
    10    5    6 ar
    11    5   26 1
    12    6   27 1
    13    7   28 1
    14    7   29 1
    15    7   45 1
    16    8    9 1
    17    8   30 1
    18    8   31 1
    19    8   45 1
    20    9   10 1
    21    9   32 1
    22    9   33 1
    23   10   11 1
    24   10   13 1
    25   10   34 1
    26   11   12 1
    27   11   35 1
    28   11   36 1
    29   12   37 1
    30   12   38 1
    31   12   45 1
    32   13   21 am
    33   13   14 1
    34   14   19 ar
    35   14   15 ar
    36   15   16 ar
    37   15   39 1
    38   16   17 ar
    39   16   40 1
    40   17   18 ar
    41   17   41 1
    42   18   19 ar
    43   18   42 1
    44   19   20 1
    45   20   21 1
    46   20   43 1
    47   20   44 1
    48   21   22 2
    49   45   46 1
@<TRIPOS>MOLECULE
ZINC01483900
   67    70     0     0     0
SMALL
USER_CHARGES
3-[1-(cyclooctylmethyl)-3-(hydroxymethyl)-4-piperidyl]-1-ethyl-benzoimidazol-2-one
@<TRIPOS>ATOM
      1 C1         -5.3272    4.3360    4.3550 C.3       1 <0>        -0.1719
      2 C2         -3.9422    3.8682    4.8064 C.3       1 <0>         0.1238
      3 N1         -3.5749    2.6529    4.0753 N.am      1 <0>        -0.5331
      4 C3         -3.8463    1.3470    4.4764 C.ar      1 <0>         0.0965
      5 C4         -4.4862    0.8040    5.5802 C.ar      1 <0>        -0.1008
      6 C5         -4.6032   -0.5668    5.7016 C.ar      1 <0>        -0.0981
      7 C6         -4.0840   -1.4009    4.7263 C.ar      1 <0>        -0.1047
      8 C7         -3.4445   -0.8694    3.6236 C.ar      1 <0>        -0.1047
      9 C8         -3.3283    0.5059    3.4896 C.ar      1 <0>         0.0765
     10 N2         -2.7499    1.3265    2.5242 N.am      1 <0>        -0.5391
     11 C9         -2.9168    2.6081    2.9016 C.2       1 <0>         0.6830
     12 O1         -2.5315    3.5786    2.2767 O.2       1 <0>        -0.5553
     13 C10        -2.0796    0.8728    1.3031 C.3       1 <0>         0.1671
     14 H1         -2.0934   -0.2164    1.2632 H         1 <0>         0.1162
     15 C11        -0.6304    1.3666    1.2996 C.3       1 <0>        -0.1642
     16 C12         0.0458    0.9403   -0.0055 C.3       1 <0>        -0.0022
     17 C13        -2.0672    1.0105   -1.1899 C.3       1 <0>         0.0106
     18 C14        -2.8062    1.4389    0.0799 C.3       1 <0>        -0.1297
     19 H2         -2.8268    2.5270    0.1395 H         1 <0>         0.1200
     20 C15        -4.2385    0.9022    0.0430 C.3       1 <0>         0.0875
     21 O2         -4.9498    1.5166   -1.0334 O.3       1 <0>        -0.5727
     22 C16         0.0128    1.2346   -2.4081 C.3       1 <0>        -0.0036
     23 C17         1.3486    1.9804   -2.4234 C.3       1 <0>        -0.1392
     24 C18         1.0914    3.4882   -2.3815 C.3       1 <0>        -0.1227
     25 C19         2.3822    4.2151   -1.9994 C.3       1 <0>        -0.1331
     26 C20         3.0596    3.4789   -0.8420 C.3       1 <0>        -0.1255
     27 C21         4.3765    2.8689   -1.3267 C.3       1 <0>        -0.1276
     28 C22         4.0826    1.6204   -2.1608 C.3       1 <0>        -0.1271
     29 C23         3.5805    2.0376   -3.5444 C.3       1 <0>        -0.1325
     30 C24         2.1144    1.6289   -3.7005 C.3       1 <0>        -0.1076
     31 H3         -5.6004    5.2402    4.8990 H         1 <0>         0.0816
     32 H4         -5.3088    4.5469    3.2858 H         1 <0>         0.0613
     33 H5         -6.0590    3.5543    4.5587 H         1 <0>         0.0622
     34 H6         -3.9605    3.6573    5.8757 H         1 <0>         0.0944
     35 H7         -3.2104    4.6499    4.6028 H         1 <0>         0.0964
     36 H8         -4.8920    1.4515    6.3434 H         1 <0>         0.1344
     37 H9         -5.1016   -0.9898    6.5613 H         1 <0>         0.1393
     38 H10        -4.1790   -2.4718    4.8284 H         1 <0>         0.1380
     39 H11        -3.0406   -1.5232    2.8648 H         1 <0>         0.1276
     40 H12        -0.0963    0.9326    2.1448 H         1 <0>         0.1206
     41 H13        -0.6161    2.4536    1.3787 H         1 <0>         0.1081
     42 H14         0.0434   -0.1473   -0.0773 H         1 <0>         0.1360
     43 H15         1.0737    1.3028   -0.0172 H         1 <0>         0.1350
     44 H16        -2.5739    1.4239   -2.0619 H         1 <0>         0.1423
     45 H17        -2.0596   -0.0774   -1.2560 H         1 <0>         0.1330
     46 H18        -4.2182   -0.1776   -0.1044 H         1 <0>         0.0589
     47 H19        -4.7367    1.1310    0.9851 H         1 <0>         0.0620
     48 H20        -5.8673    1.2227   -1.1171 H         1 <0>         0.3971
     49 H21         0.1936    0.1635   -2.4992 H         1 <0>         0.1334
     50 H22        -0.6011    1.5717   -3.2433 H         1 <0>         0.1308
     51 H23         1.9379    1.6881   -1.5542 H         1 <0>         0.1166
     52 H24         0.7601    3.8277   -3.3629 H         1 <0>         0.0835
     53 H25         0.3199    3.7049   -1.6426 H         1 <0>         0.0488
     54 H26         2.1480    5.2348   -1.6939 H         1 <0>         0.0711
     55 H27         3.0537    4.2383   -2.8577 H         1 <0>         0.0853
     56 H28         2.4033    2.6869   -0.4814 H         1 <0>         0.0559
     57 H29         3.2605    4.1810   -0.0328 H         1 <0>         0.0677
     58 H30         4.9887    2.5959   -0.4671 H         1 <0>         0.0656
     59 H31         4.9111    3.5965   -1.9374 H         1 <0>         0.0715
     60 H32         3.3197    1.0220   -1.6627 H         1 <0>         0.0628
     61 H33         4.9938    1.0318   -2.2672 H         1 <0>         0.0671
     62 H34         4.1785    1.5453   -4.3114 H         1 <0>         0.0708
     63 H35         3.6698    3.1185   -3.6525 H         1 <0>         0.0792
     64 H36         2.0534    0.5550   -3.8769 H         1 <0>         0.0716
     65 H37         1.6767    2.1613   -4.5449 H         1 <0>         0.0756
     66 N3         -0.6866    1.5374   -1.1423 N.4       1 <0>        -0.3990
     67 H38        -0.7230    2.5559   -1.0170 H         1 <0>         0.4274
@<TRIPOS>BOND
     1    1    2 1
     2    1   31 1
     3    1   32 1
     4    1   33 1
     5    2    3 1
     6    2   34 1
     7    2   35 1
     8    3   11 am
     9    3    4 1
    10    4    9 ar
    11    4    5 ar
    12    5    6 ar
    13    5   36 1
    14    6    7 ar
    15    6   37 1
    16    7    8 ar
    17    7   38 1
    18    8    9 ar
    19    8   39 1
    20    9   10 1
    21   10   11 am
    22   10   13 1
    23   11   12 2
    24   13   14 1
    25   13   18 1
    26   13   15 1
    27   15   16 1
    28   15   40 1
    29   15   41 1
    30   16   42 1
    31   16   43 1
    32   16   66 1
    33   17   18 1
    34   17   44 1
    35   17   45 1
    36   17   66 1
    37   18   19 1
    38   18   20 1
    39   20   21 1
    40   20   46 1
    41   20   47 1
    42   21   48 1
    43   22   23 1
    44   22   49 1
    45   22   50 1
    46   22   66 1
    47   23   30 1
    48   23   24 1
    49   23   51 1
    50   24   25 1
    51   24   52 1
    52   24   53 1
    53   25   26 1
    54   25   54 1
    55   25   55 1
    56   26   27 1
    57   26   56 1
    58   26   57 1
    59   27   28 1
    60   27   58 1
    61   27   59 1
    62   28   29 1
    63   28   60 1
    64   28   61 1
    65   29   30 1
    66   29   62 1
    67   29   63 1
    68   30   64 1
    69   30   65 1
    70   66   67 1
@<TRIPOS>MOLECULE
ZINC13981793
   61    65     0     0     0
SMALL
USER_CHARGES
1-phenyl-8-[(1S,2S)-2-phenylcyclohexyl]-1,3,8-triazaspiro[4.5]decan-4-one
@<TRIPOS>ATOM
      1 C1          3.0226    7.6329    2.2412 C.ar      1 <0>        -0.1042
      2 C2          3.9514    8.5363    1.7594 C.ar      1 <0>        -0.1050
      3 C3          4.5907    8.2956    0.5576 C.ar      1 <0>        -0.1045
      4 C4          4.3008    7.1518   -0.1626 C.ar      1 <0>        -0.1186
      5 C5          3.3679    6.2513    0.3165 C.ar      1 <0>        -0.1349
      6 C6          2.7324    6.4893    1.5208 C.ar      1 <0>        -0.1132
      7 C7          4.9975    6.8897   -1.4729 C.3       1 <0>        -0.0621
      8 H1          5.2358    7.8384   -1.9539 H         1 <0>         0.1279
      9 C8          4.0794    6.0725   -2.3841 C.3       1 <0>        -0.1271
     10 C9          4.7866    5.8064   -3.7145 C.3       1 <0>        -0.1299
     11 C10         6.0774    5.0258   -3.4586 C.3       1 <0>        -0.1407
     12 C11         6.9955    5.8430   -2.5474 C.3       1 <0>        -0.1466
     13 C12         6.2883    6.1091   -1.2171 C.3       1 <0>         0.0433
     14 H2          6.9423    6.6913   -0.5680 H         1 <0>         0.1404
     15 C13         7.0445    3.8532   -0.7701 C.3       1 <0>        -0.0275
     16 C14         6.6083    2.4925   -0.2194 C.3       1 <0>        -0.1193
     17 C15         6.2709    2.6325    1.2625 C.3       1 <0>         0.0524
     18 C16         5.1986    3.6999    1.4636 C.3       1 <0>        -0.1595
     19 C17         5.6799    5.0216    0.8585 C.3       1 <0>        -0.0513
     20 C18         7.5089    2.9735    2.0547 C.2       1 <0>         0.5302
     21 O1          8.3424    3.7997    1.7487 O.2       1 <0>        -0.5098
     22 N1          7.5305    2.2020    3.1621 N.am      1 <0>        -0.7210
     23 C19         6.3412    1.3409    3.1850 C.3       1 <0>         0.2389
     24 N2          5.8071    1.3378    1.8029 N.pl3     1 <0>        -0.4411
     25 C20         4.4121    1.2673    1.8055 C.ar      1 <0>         0.0833
     26 C21         3.7054    1.4158    0.6189 C.ar      1 <0>        -0.1423
     27 C22         2.3259    1.3508    0.6258 C.ar      1 <0>        -0.0954
     28 C23         1.6487    1.1267    1.8105 C.ar      1 <0>        -0.1243
     29 C24         2.3491    0.9785    2.9936 C.ar      1 <0>        -0.0843
     30 C25         3.7284    1.0481    2.9947 C.ar      1 <0>        -0.1596
     31 H3          2.5233    7.8207    3.1803 H         1 <0>         0.1331
     32 H4          4.1778    9.4299    2.3220 H         1 <0>         0.1341
     33 H5          5.3163    9.0014    0.1811 H         1 <0>         0.1324
     34 H6          3.1382    5.3598   -0.2483 H         1 <0>         0.1243
     35 H7          2.0065    5.7837    1.8971 H         1 <0>         0.1330
     36 H8          3.1598    6.6286   -2.5664 H         1 <0>         0.0972
     37 H9          3.8410    5.1238   -1.9032 H         1 <0>         0.0561
     38 H10         5.0250    6.7551   -4.1954 H         1 <0>         0.0822
     39 H11         4.1326    5.2242   -4.3636 H         1 <0>         0.0828
     40 H12         6.5813    4.8362   -4.4064 H         1 <0>         0.0939
     41 H13         5.8391    4.0771   -2.9777 H         1 <0>         0.0583
     42 H14         7.2339    6.7917   -3.0284 H         1 <0>         0.1132
     43 H15         7.9151    5.2869   -2.3652 H         1 <0>         0.0951
     44 H16         7.9403    4.1869   -0.2465 H         1 <0>         0.1537
     45 H17         7.2586    3.7624   -1.8350 H         1 <0>         0.1415
     46 H18         7.4186    1.7738   -0.3417 H         1 <0>         0.1236
     47 H19         5.7287    2.1456   -0.7616 H         1 <0>         0.1001
     48 H20         4.2778    3.3880    0.9706 H         1 <0>         0.1155
     49 H21         5.0138    3.8337    2.5295 H         1 <0>         0.1118
     50 H22         6.5853    5.3474    1.3707 H         1 <0>         0.1324
     51 H23         4.9042    5.7785    0.9749 H         1 <0>         0.1719
     52 H24         8.2251    2.2145    3.8391 H         1 <0>         0.4320
     53 H25         5.5987    1.7455    3.8728 H         1 <0>         0.0843
     54 H26         6.6166    0.3292    3.4826 H         1 <0>         0.1175
     55 H27         4.2339    1.5862   -0.3074 H         1 <0>         0.1243
     56 H28         1.7756    1.4706   -0.2957 H         1 <0>         0.1313
     57 H29         0.5701    1.0719    1.8125 H         1 <0>         0.1305
     58 H30         1.8169    0.8085    3.9179 H         1 <0>         0.1323
     59 H31         4.2748    0.9326    3.9191 H         1 <0>         0.1349
     60 N3          5.9416    4.8206   -0.5830 N.4       1 <0>        -0.3814
     61 H32         5.0937    4.4483   -1.0263 H         1 <0>         0.4138
@<TRIPOS>BOND
     1    1    6 ar
     2    1    2 ar
     3    1   31 1
     4    2    3 ar
     5    2   32 1
     6    3    4 ar
     7    3   33 1
     8    4    5 ar
     9    4    7 1
    10    5    6 ar
    11    5   34 1
    12    6   35 1
    13    7    8 1
    14    7   13 1
    15    7    9 1
    16    9   10 1
    17    9   36 1
    18    9   37 1
    19   10   11 1
    20   10   38 1
    21   10   39 1
    22   11   12 1
    23   11   40 1
    24   11   41 1
    25   12   13 1
    26   12   42 1
    27   12   43 1
    28   13   14 1
    29   13   60 1
    30   15   16 1
    31   15   44 1
    32   15   45 1
    33   15   60 1
    34   16   17 1
    35   16   46 1
    36   16   47 1
    37   17   24 1
    38   17   18 1
    39   17   20 1
    40   18   19 1
    41   18   48 1
    42   18   49 1
    43   19   50 1
    44   19   51 1
    45   19   60 1
    46   20   21 2
    47   20   22 am
    48   22   23 1
    49   22   52 1
    50   23   24 1
    51   23   53 1
    52   23   54 1
    53   24   25 1
    54   25   30 ar
    55   25   26 ar
    56   26   27 ar
    57   26   55 1
    58   27   28 ar
    59   27   56 1
    60   28   29 ar
    61   28   57 1
    62   29   30 ar
    63   29   58 1
    64   30   59 1
    65   60   61 1
@<TRIPOS>MOLECULE
ZINC36221500
   50    54     0     0     0
SMALL
USER_CHARGES

@<TRIPOS>ATOM
      1 C1         -0.0164    1.3567    0.0095 C.ar      1 <0>        -0.1165
      2 C2          1.1685    2.0906    0.0021 C.ar      1 <0>        -0.0788
      3 C3          2.3785    1.4679   -0.0132 C.ar      1 <0>        -0.1514
      4 C4          2.4378    0.0637   -0.0214 C.ar      1 <0>        -0.0300
      5 C5          1.2328   -0.6827   -0.0134 C.ar      1 <0>        -0.0581
      6 C6          0.0021   -0.0041    0.0020 C.ar      1 <0>        -0.0848
      7 C7          1.2920   -2.0865   -0.0210 C.ar      1 <0>        -0.0588
      8 C8          2.5022   -2.7094   -0.0359 C.ar      1 <0>        -0.1319
      9 C9          3.6867   -1.9757   -0.0433 C.ar      1 <0>        -0.0604
     10 C10         3.6681   -0.6146   -0.0367 C.ar      1 <0>        -0.1594
     11 C11         4.9603    0.1606   -0.0459 C.3       1 <0>         0.0438
     12 N1          5.2701    0.6124    1.3172 N.4       1 <0>        -0.3835
     13 C12         5.5134   -0.5542    2.1742 C.3       1 <0>        -0.0101
     14 C13         5.7567   -0.0931    3.6128 C.3       1 <0>        -0.1375
     15 C14         6.9772    0.8311    3.6473 C.3       1 <0>        -0.0154
     16 C15         6.7430    2.0058    2.6931 C.3       1 <0>        -0.1392
     17 C16         6.4631    1.4669    1.2886 C.3       1 <0>        -0.0083
     18 C17         7.1760    1.3513    5.0477 C.2       1 <0>        -0.1770
     19 C18         6.3007    2.0740    5.7640 C.2       1 <0>         0.0789
     20 N2          6.8306    2.3643    6.9927 N.pl3     1 <0>        -0.5771
     21 H1          6.3830    2.8761    7.6846 H         1 <0>         0.4252
     22 C19         8.0894    1.8239    7.1020 C.ar      1 <0>         0.2880
     23 C20         8.3582    1.1598    5.8895 C.ar      1 <0>        -0.1460
     24 C21         9.5809    0.5064    5.7207 C.ar      1 <0>        -0.0334
     25 C22        10.4842    0.5376    6.7667 C.ar      1 <0>        -0.1924
     26 C23        10.1515    1.2075    7.9337 C.ar      1 <0>         0.1471
     27 N3          8.9964    1.8237    8.0696 N.ar      1 <0>        -0.4962
     28 H2         -0.9634    1.8756    0.0259 H         1 <0>         0.1340
     29 H3          1.1258    3.1698    0.0084 H         1 <0>         0.1320
     30 H4          3.2883    2.0497   -0.0195 H         1 <0>         0.1190
     31 H5         -0.9241   -0.5595    0.0082 H         1 <0>         0.1376
     32 H6          0.3820   -2.6682   -0.0147 H         1 <0>         0.1397
     33 H7          2.5450   -3.7886   -0.0417 H         1 <0>         0.1375
     34 H8          4.6338   -2.4947   -0.0548 H         1 <0>         0.1333
     35 H9          5.7651   -0.4789   -0.4084 H         1 <0>         0.1379
     36 H10         4.8604    1.0257   -0.7015 H         1 <0>         0.1367
     37 H11         4.6451   -1.2126    2.1460 H         1 <0>         0.1302
     38 H12         6.3890   -1.0935    1.8130 H         1 <0>         0.1299
     39 H13         4.8814    0.4462    3.9751 H         1 <0>         0.0864
     40 H14         5.9389   -0.9605    4.2472 H         1 <0>         0.1135
     41 H15         7.8624    0.2778    3.3337 H         1 <0>         0.0951
     42 H16         5.8882    2.5886    3.0364 H         1 <0>         0.0873
     43 H17         7.6302    2.6386    2.6701 H         1 <0>         0.1149
     44 H18         7.3185    0.8845    0.9463 H         1 <0>         0.1315
     45 H19         6.2961    2.3007    0.6066 H         1 <0>         0.1310
     46 H20         5.3236    2.3814    5.4218 H         1 <0>         0.1737
     47 H21         9.8137   -0.0084    4.8003 H         1 <0>         0.1329
     48 H22        11.4405    0.0441    6.6755 H         1 <0>         0.1426
     49 H23        10.8597    1.2298    8.7488 H         1 <0>         0.1663
     50 H24         4.4897    1.1380    1.6816 H         1 <0>         0.4203
@<TRIPOS>BOND
     1    1    6 ar
     2    1    2 ar
     3    1   28 1
     4    2    3 ar
     5    2   29 1
     6    3    4 ar
     7    3   30 1
     8    4   10 ar
     9    4    5 ar
    10    5    6 ar
    11    5    7 ar
    12    6   31 1
    13    7    8 ar
    14    7   32 1
    15    8    9 ar
    16    8   33 1
    17    9   10 ar
    18    9   34 1
    19   10   11 1
    20   11   12 1
    21   11   35 1
    22   11   36 1
    23   12   17 1
    24   12   13 1
    25   12   50 1
    26   13   14 1
    27   13   37 1
    28   13   38 1
    29   14   15 1
    30   14   39 1
    31   14   40 1
    32   15   16 1
    33   15   18 1
    34   15   41 1
    35   16   17 1
    36   16   42 1
    37   16   43 1
    38   17   44 1
    39   17   45 1
    40   18   23 1
    41   18   19 2
    42   19   20 1
    43   19   46 1
    44   20   21 1
    45   20   22 1
    46   22   27 ar
    47   22   23 ar
    48   23   24 ar
    49   24   25 ar
    50   24   47 1
    51   25   26 ar
    52   25   48 1
    53   26   27 ar
    54   26   49 1
@<TRIPOS>MOLECULE
ZINC03874473
   61    66     0     0     0
SMALL
USER_CHARGES
N-(allyl-dihydroxy-BLAHylidene)aminobenzamide
@<TRIPOS>ATOM
      1 C1          7.6295   13.1139   -2.4643 C.2       1 <0>        -0.1035
      2 C2          6.7173   12.6014   -1.6762 C.2       1 <0>        -0.2364
      3 C3          5.7296   11.6003   -2.2179 C.3       1 <0>         0.0280
      4 C4          7.0851    9.7195   -1.5245 C.3       1 <0>        -0.0016
      5 C5          7.1485    8.5125   -0.5807 C.3       1 <0>        -0.1242
      6 C6          5.9986    7.5660   -0.9181 C.3       1 <0>        -0.0285
      7 C7          6.0945    7.1560   -2.3667 C.ar      1 <0>        -0.1894
      8 C8          5.5777    7.8323   -3.4483 C.ar      1 <0>        -0.0603
      9 C9          5.8200    7.2650   -4.6867 C.ar      1 <0>        -0.1154
     10 C10         6.4859    6.0537   -4.7810 C.ar      1 <0>        -0.0977
     11 C11         6.9277    5.3373   -3.6711 C.ar      1 <0>         0.1121
     12 C12         6.7023    5.9098   -2.4138 C.ar      1 <0>         0.1096
     13 O1          6.9613    5.4684   -1.1643 O.3       1 <0>        -0.2580
     14 C13         6.1447    6.2195   -0.2290 C.3       1 <0>         0.1762
     15 H1          6.6258    6.3216    0.7438 H         1 <0>         0.1519
     16 C14         4.8344    5.4983   -0.1143 C.2       1 <0>         0.0499
     17 N1          4.8473    4.2214   -0.0243 N.2       1 <0>        -0.1787
     18 N2          3.6572    3.5245    0.2221 N.am      1 <0>        -0.5837
     19 C15         3.6503    2.1769    0.2089 C.2       1 <0>         0.5780
     20 O2          4.6769    1.5659   -0.0169 O.2       1 <0>        -0.4859
     21 C16         2.3948    1.4417    0.4688 C.ar      1 <0>        -0.1401
     22 C17         1.2142    2.1401    0.7284 C.ar      1 <0>        -0.0895
     23 C18         0.0456    1.4477    0.9693 C.ar      1 <0>        -0.1246
     24 C19         0.0420    0.0642    0.9546 C.ar      1 <0>        -0.0840
     25 C20         1.2087   -0.6342    0.6989 C.ar      1 <0>        -0.1213
     26 C21         2.3842    0.0458    0.4559 C.ar      1 <0>        -0.0523
     27 C22         3.5109    6.2020   -0.0941 C.3       1 <0>        -0.1129
     28 C23         3.5142    7.3472   -1.1088 C.3       1 <0>        -0.1345
     29 C24         4.6695    8.2904   -0.7782 C.3       1 <0>         0.1482
     30 C25         4.6733    9.4727   -1.7514 C.3       1 <0>         0.0183
     31 H2          3.7407   10.0204   -1.6161 H         1 <0>         0.1411
     32 C26         4.7733    9.0751   -3.2146 C.3       1 <0>        -0.0886
     33 O3          4.5258    8.7723    0.5594 O.3       1 <0>        -0.5415
     34 O4          7.5506    4.1357   -3.8032 O.3       1 <0>        -0.4783
     35 H3          7.6738   12.8191   -3.5024 H         1 <0>         0.1114
     36 H4          8.3373   13.8314   -2.0761 H         1 <0>         0.1239
     37 H5          6.6731   12.8963   -0.6381 H         1 <0>         0.1352
     38 H6          5.9832   11.3622   -3.2509 H         1 <0>         0.1326
     39 H7          4.7255   12.0226   -2.1783 H         1 <0>         0.1350
     40 H8          7.2309    9.3843   -2.5514 H         1 <0>         0.1332
     41 H9          7.8710   10.4267   -1.2595 H         1 <0>         0.1351
     42 H10         8.0992    7.9953   -0.7107 H         1 <0>         0.1203
     43 H11         7.0529    8.8492    0.4516 H         1 <0>         0.1091
     44 H12         5.4883    7.7678   -5.5831 H         1 <0>         0.1392
     45 H13         6.6718    5.6450   -5.7633 H         1 <0>         0.1433
     46 H14         2.8381    4.0120    0.4023 H         1 <0>         0.3880
     47 H15         1.2157    3.2200    0.7399 H         1 <0>         0.1189
     48 H16        -0.8694    1.9869    1.1655 H         1 <0>         0.1330
     49 H17        -0.8756   -0.4730    1.1438 H         1 <0>         0.1337
     50 H18         1.1991   -1.7141    0.6891 H         1 <0>         0.1372
     51 H19         3.2940   -0.5005    0.2557 H         1 <0>         0.1407
     52 H20         2.7212    5.4951   -0.3485 H         1 <0>         0.0848
     53 H21         3.3291    6.6025    0.9032 H         1 <0>         0.1050
     54 H22         3.6463    6.9453   -2.1133 H         1 <0>         0.0947
     55 H23         2.5697    7.8883   -1.0526 H         1 <0>         0.0949
     56 H24         3.7689    8.8916   -3.5962 H         1 <0>         0.1241
     57 H25         5.2101    9.9033   -3.7725 H         1 <0>         0.1060
     58 H26         3.7060    9.2608    0.7156 H         1 <0>         0.3931
     59 H27         6.9497    3.3781   -3.7947 H         1 <0>         0.4005
     60 N3          5.7734   10.3907   -1.3743 N.4       1 <0>        -0.3873
     61 H28         5.6529   10.6652   -0.3923 H         1 <0>         0.4322
@<TRIPOS>BOND
     1    1    2 2
     2    1   35 1
     3    1   36 1
     4    2    3 1
     5    2   37 1
     6    3   38 1
     7    3   39 1
     8    3   60 1
     9    4    5 1
    10    4   40 1
    11    4   41 1
    12    4   60 1
    13    5    6 1
    14    5   42 1
    15    5   43 1
    16    6   14 1
    17    6   29 1
    18    6    7 1
    19    7   12 ar
    20    7    8 ar
    21    8   32 1
    22    8    9 ar
    23    9   10 ar
    24    9   44 1
    25   10   11 ar
    26   10   45 1
    27   11   12 ar
    28   11   34 1
    29   12   13 1
    30   13   14 1
    31   14   15 1
    32   14   16 1
    33   16   17 2
    34   16   27 1
    35   17   18 1
    36   18   19 am
    37   18   46 1
    38   19   20 2
    39   19   21 1
    40   21   26 ar
    41   21   22 ar
    42   22   23 ar
    43   22   47 1
    44   23   24 ar
    45   23   48 1
    46   24   25 ar
    47   24   49 1
    48   25   26 ar
    49   25   50 1
    50   26   51 1
    51   27   28 1
    52   27   52 1
    53   27   53 1
    54   28   29 1
    55   28   54 1
    56   28   55 1
    57   29   30 1
    58   29   33 1
    59   30   31 1
    60   30   32 1
    61   30   60 1
    62   32   56 1
    63   32   57 1
    64   33   58 1
    65   34   59 1
    66   60   61 1
@<TRIPOS>MOLECULE
ZINC02517042
   59    62     0     0     0
SMALL
USER_CHARGES

@<TRIPOS>ATOM
      1 C1          0.2448    1.1223   -0.1423 C.3       1 <0>         0.0578
      2 N1          0.0632   -0.3228    0.0153 N.am      1 <0>        -0.6354
      3 C2          0.0106   -0.9126    1.3553 C.3       1 <0>         0.1233
      4 H1         -0.1318   -1.9901    1.2725 H         1 <0>         0.1267
      5 C3          1.3219   -0.6268    2.0899 C.3       1 <0>        -0.1215
      6 C4          1.2690   -1.2477    3.4876 C.3       1 <0>        -0.1292
      7 C5          0.0981   -0.6496    4.2664 C.3       1 <0>         0.1192
      8 C6          0.2992    0.8733    4.4050 C.3       1 <0>        -0.1537
      9 C7         -0.1962    1.1392    5.8531 C.3       1 <0>        -0.1581
     10 C8          0.2428   -0.1685    6.5593 C.3       1 <0>         0.0465
     11 O1          0.0492   -1.2054    5.5834 O.3       1 <0>        -0.3611
     12 C9         -1.2143   -0.9235    3.5328 C.3       1 <0>        -0.1428
     13 C10        -1.1559   -0.3028    2.1351 C.3       1 <0>         0.0163
     14 H2         -1.0118    0.7742    2.2213 H         1 <0>         0.1419
     15 N2         -2.4137   -0.5737    1.4263 N.4       1 <0>        -0.3874
     16 C11        -2.6982   -2.0315    1.4268 C.3       1 <0>        -0.0229
     17 C12        -4.2274   -2.0943    1.1852 C.3       1 <0>        -0.1411
     18 C13        -4.7546   -0.8847    1.9907 C.3       1 <0>        -0.1423
     19 C14        -3.5461    0.0584    2.1373 C.3       1 <0>        -0.0168
     20 C15        -0.0554   -1.1097   -1.0724 C.2       1 <0>         0.5138
     21 O2         -0.2057   -2.3061   -0.9419 O.2       1 <0>        -0.5097
     22 C16        -0.0013   -0.5030   -2.4509 C.3       1 <0>        -0.0979
     23 C17        -0.1571   -1.5889   -3.4841 C.ar      1 <0>        -0.0834
     24 C18         0.9584   -2.2422   -3.9738 C.ar      1 <0>        -0.1025
     25 C19         0.8155   -3.2383   -4.9216 C.ar      1 <0>        -0.1141
     26 C20        -0.4429   -3.5814   -5.3794 C.ar      1 <0>        -0.1106
     27 C21        -1.5585   -2.9288   -4.8890 C.ar      1 <0>        -0.1172
     28 C22        -1.4159   -1.9356   -3.9380 C.ar      1 <0>        -0.1080
     29 H3          1.3091    1.3508   -0.1986 H         1 <0>         0.0767
     30 H4         -0.2466    1.4525   -1.0575 H         1 <0>         0.0880
     31 H5         -0.1931    1.6388    0.7118 H         1 <0>         0.0720
     32 H6          2.1526   -1.0584    1.5317 H         1 <0>         0.0943
     33 H7          1.4627    0.4507    2.1760 H         1 <0>         0.0811
     34 H8          1.1351   -2.3260    3.4014 H         1 <0>         0.0821
     35 H9          2.2003   -1.0381    4.0138 H         1 <0>         0.0902
     36 H10         1.3517    1.1369    4.3003 H         1 <0>         0.0915
     37 H11        -0.3110    1.4129    3.6808 H         1 <0>         0.0768
     38 H12         0.3030    2.0061    6.2861 H         1 <0>         0.0923
     39 H13        -1.2794    1.2568    5.8823 H         1 <0>         0.0788
     40 H14         1.2928   -0.1097    6.8456 H         1 <0>         0.0705
     41 H15        -0.3793   -0.3525    7.4353 H         1 <0>         0.0943
     42 H16        -1.3648   -1.9996    3.4468 H         1 <0>         0.1017
     43 H17        -2.0411   -0.4844    4.0911 H         1 <0>         0.0986
     44 H18        -2.1605   -2.5287    0.6195 H         1 <0>         0.1406
     45 H19        -2.4425   -2.4730    2.3900 H         1 <0>         0.1402
     46 H20        -4.4554   -1.9809    0.1254 H         1 <0>         0.0967
     47 H21        -4.6411   -3.0254    1.5724 H         1 <0>         0.1181
     48 H22        -5.5578   -0.3885    1.4459 H         1 <0>         0.1057
     49 H23        -5.1044   -1.2067    2.9715 H         1 <0>         0.1050
     50 H24        -3.2990    0.1842    3.1915 H         1 <0>         0.1331
     51 H25        -3.7731    1.0254    1.6885 H         1 <0>         0.1313
     52 H26        -0.8081    0.2216   -2.5608 H         1 <0>         0.1056
     53 H27         0.9574   -0.0034   -2.5905 H         1 <0>         0.1108
     54 H28         1.9416   -1.9741   -3.6162 H         1 <0>         0.1196
     55 H29         1.6871   -3.7482   -5.3048 H         1 <0>         0.1262
     56 H30        -0.5545   -4.3591   -6.1204 H         1 <0>         0.1260
     57 H31        -2.5416   -3.1966   -5.2468 H         1 <0>         0.1246
     58 H32        -2.2877   -1.4283   -3.5521 H         1 <0>         0.1151
     59 H33        -2.3612   -0.2288    0.4795 H         1 <0>         0.4223
@<TRIPOS>BOND
     1    1    2 1
     2    1   29 1
     3    1   30 1
     4    1   31 1
     5    2    3 1
     6    2   20 am
     7    3    4 1
     8    3   13 1
     9    3    5 1
    10    5    6 1
    11    5   32 1
    12    5   33 1
    13    6    7 1
    14    6   34 1
    15    6   35 1
    16    7   11 1
    17    7    8 1
    18    7   12 1
    19    8    9 1
    20    8   36 1
    21    8   37 1
    22    9   10 1
    23    9   38 1
    24    9   39 1
    25   10   11 1
    26   10   40 1
    27   10   41 1
    28   12   13 1
    29   12   42 1
    30   12   43 1
    31   13   14 1
    32   13   15 1
    33   15   19 1
    34   15   16 1
    35   15   59 1
    36   16   17 1
    37   16   44 1
    38   16   45 1
    39   17   18 1
    40   17   46 1
    41   17   47 1
    42   18   19 1
    43   18   48 1
    44   18   49 1
    45   19   50 1
    46   19   51 1
    47   20   21 2
    48   20   22 1
    49   22   23 1
    50   22   52 1
    51   22   53 1
    52   23   28 ar
    53   23   24 ar
    54   24   25 ar
    55   24   54 1
    56   25   26 ar
    57   25   55 1
    58   26   27 ar
    59   26   56 1
    60   27   28 ar
    61   27   57 1
    62   28   58 1
@<TRIPOS>MOLECULE
ZINC00537755
   67    71     0     0     0
SMALL
USER_CHARGES

@<TRIPOS>ATOM
      1 C1         -1.5914    1.0159   -0.1212 C.ar      1 <0>        -0.1575
      2 C2         -0.5763    1.7485   -0.7085 C.ar      1 <0>        -0.0633
      3 C3          0.5521    1.1100   -1.1841 C.ar      1 <0>        -0.1785
      4 C4          0.6667   -0.2698   -1.0721 C.ar      1 <0>         0.2321
      5 C5         -0.3550   -1.0028   -0.4816 C.ar      1 <0>        -0.1990
      6 C6         -1.4807   -0.3579   -0.0081 C.ar      1 <0>        -0.0708
      7 N1          1.8063   -0.9189   -1.5525 N.pl3     1 <0>        -0.6333
      8 C7          2.9737   -0.3000   -2.1938 C.3       1 <0>         0.3326
      9 N2          3.9211   -1.3618   -2.5314 N.am      1 <0>        -0.7168
     10 C8          3.4351   -2.5566   -2.1547 C.2       1 <0>         0.5285
     11 O1          3.9948   -3.6224   -2.3023 O.2       1 <0>        -0.5126
     12 C9          2.0867   -2.3589   -1.5145 C.3       1 <0>         0.1365
     13 C10         1.0177   -3.1206   -2.2989 C.3       1 <0>        -0.1497
     14 C11         1.2907   -4.6231   -2.1950 C.3       1 <0>        -0.0134
     15 N3          1.2632   -5.0319   -0.7854 N.4       1 <0>        -0.3790
     16 C12         2.3420   -4.3619   -0.0494 C.3       1 <0>        -0.0180
     17 C13         2.1119   -2.8486   -0.0661 C.3       1 <0>        -0.1488
     18 C14         1.4422   -6.4872   -0.6959 C.3       1 <0>        -0.0099
     19 C15         1.2896   -6.9312    0.7603 C.3       1 <0>        -0.1509
     20 C16         1.4760   -8.4469    0.8535 C.3       1 <0>        -0.1092
     21 C17         1.3234   -8.8909    2.3097 C.3       1 <0>         0.0017
     22 C18         1.3846  -10.3947    2.3854 C.ar      1 <0>        -0.0971
     23 C19         2.4414  -11.0729    1.8074 C.ar      1 <0>        -0.0862
     24 C20         2.4988  -12.4520    1.8765 C.ar      1 <0>        -0.1503
     25 C21         1.4973  -13.1544    2.5251 C.ar      1 <0>         0.1056
     26 C22         0.4393  -12.4740    3.1037 C.ar      1 <0>        -0.1491
     27 C23         0.3867  -11.0946    3.0378 C.ar      1 <0>        -0.0810
     28 F1          1.5522  -14.5026    2.5930 F         1 <0>        -0.1345
     29 C24         2.4382   -8.3006    3.1343 C.ar      1 <0>        -0.0945
     30 C25         3.7517   -8.4575    2.7330 C.ar      1 <0>        -0.0888
     31 C26         4.7749   -7.9162    3.4881 C.ar      1 <0>        -0.1499
     32 C27         4.4839   -7.2167    4.6470 C.ar      1 <0>         0.1027
     33 C28         3.1679   -7.0603    5.0480 C.ar      1 <0>        -0.1493
     34 C29         2.1461   -7.5979    4.2884 C.ar      1 <0>        -0.0850
     35 F2          5.4833   -6.6876    5.3862 F         1 <0>        -0.1350
     36 H1         -2.4708    1.5182    0.2540 H         1 <0>         0.1275
     37 H2         -0.6661    2.8213   -0.7956 H         1 <0>         0.1312
     38 H3          1.3445    1.6828   -1.6430 H         1 <0>         0.1257
     39 H4         -0.2692   -2.0757   -0.3932 H         1 <0>         0.1143
     40 H5         -2.2754   -0.9271    0.4511 H         1 <0>         0.1274
     41 H6          2.6637    0.2192   -3.1007 H         1 <0>         0.0879
     42 H7          3.4406    0.4057   -1.5067 H         1 <0>         0.0876
     43 H8          4.7776   -1.2234   -2.9651 H         1 <0>         0.4365
     44 H9          0.0345   -2.8996   -1.8834 H         1 <0>         0.1094
     45 H10         1.0481   -2.8165   -3.3453 H         1 <0>         0.1189
     46 H11         0.5260   -5.1701   -2.7465 H         1 <0>         0.1380
     47 H12         2.2707   -4.8441   -2.6179 H         1 <0>         0.1466
     48 H13         2.3526   -4.7161    0.9813 H         1 <0>         0.1384
     49 H14         3.2983   -4.5888   -0.5207 H         1 <0>         0.1467
     50 H15         2.9191   -2.3518    0.4722 H         1 <0>         0.1182
     51 H16         1.1595   -2.6199    0.4122 H         1 <0>         0.1094
     52 H17         0.6896   -6.9841   -1.3080 H         1 <0>         0.1335
     53 H18         2.4363   -6.7538   -1.0548 H         1 <0>         0.1327
     54 H19         2.0422   -6.4342    1.3724 H         1 <0>         0.0904
     55 H20         0.2955   -6.6646    1.1191 H         1 <0>         0.0899
     56 H21         0.7234   -8.9438    0.2414 H         1 <0>         0.0847
     57 H22         2.4701   -8.7135    0.4947 H         1 <0>         0.0801
     58 H23         0.3641   -8.5463    2.6960 H         1 <0>         0.0949
     59 H24         3.2224  -10.5249    1.3012 H         1 <0>         0.1303
     60 H25         3.3244  -12.9817    1.4246 H         1 <0>         0.1382
     61 H26        -0.3427  -13.0209    3.6096 H         1 <0>         0.1394
     62 H27        -0.4362  -10.5634    3.4929 H         1 <0>         0.1336
     63 H28         3.9785   -9.0035    1.8291 H         1 <0>         0.1322
     64 H29         5.8010   -8.0392    3.1745 H         1 <0>         0.1378
     65 H30         2.9397   -6.5151    5.9519 H         1 <0>         0.1385
     66 H31         1.1193   -7.4722    4.5986 H         1 <0>         0.1336
     67 H32         0.3742   -4.7793   -0.3806 H         1 <0>         0.4183
@<TRIPOS>BOND
     1    1    6 ar
     2    1    2 ar
     3    1   36 1
     4    2    3 ar
     5    2   37 1
     6    3    4 ar
     7    3   38 1
     8    4    5 ar
     9    4    7 1
    10    5    6 ar
    11    5   39 1
    12    6   40 1
    13    7   12 1
    14    7    8 1
    15    8    9 1
    16    8   41 1
    17    8   42 1
    18    9   10 am
    19    9   43 1
    20   10   11 2
    21   10   12 1
    22   12   17 1
    23   12   13 1
    24   13   14 1
    25   13   44 1
    26   13   45 1
    27   14   15 1
    28   14   46 1
    29   14   47 1
    30   15   16 1
    31   15   18 1
    32   15   67 1
    33   16   17 1
    34   16   48 1
    35   16   49 1
    36   17   50 1
    37   17   51 1
    38   18   19 1
    39   18   52 1
    40   18   53 1
    41   19   20 1
    42   19   54 1
    43   19   55 1
    44   20   21 1
    45   20   56 1
    46   20   57 1
    47   21   22 1
    48   21   29 1
    49   21   58 1
    50   22   27 ar
    51   22   23 ar
    52   23   24 ar
    53   23   59 1
    54   24   25 ar
    55   24   60 1
    56   25   26 ar
    57   25   28 1
    58   26   27 ar
    59   26   61 1
    60   27   62 1
    61   29   34 ar
    62   29   30 ar
    63   30   31 ar
    64   30   63 1
    65   31   32 ar
    66   31   64 1
    67   32   33 ar
    68   32   35 1
    69   33   34 ar
    70   33   65 1
    71   34   66 1
@<TRIPOS>MOLECULE
ZINC40935805
   72    76     0     0     0
SMALL
USER_CHARGES

@<TRIPOS>ATOM
      1 C1         -0.0365    1.5138   -0.1140 C.3       1 <0>        -0.1961
      2 C2          0.0021   -0.0041    0.0020 C.3       1 <0>         0.0880
      3 C3          0.4490   -0.6614   -1.2993 C.3       1 <0>        -0.1421
      4 C4          1.9070   -0.3564   -1.6754 C.3       1 <0>        -0.1182
      5 C5          2.8082   -1.2312   -0.7789 C.3       1 <0>        -0.1329
      6 C6          3.7022   -0.3113    0.0856 C.3       1 <0>        -0.1244
      7 C7          2.8651    0.8706    0.6037 C.3       1 <0>        -0.1391
      8 C8          1.8977    0.4110    1.6895 C.3       1 <0>        -0.1117
      9 C9          0.7962   -0.4988    1.1945 C.3       1 <0>        -0.1356
     10 N1         -1.3864   -0.4320    0.2187 N.4       1 <0>        -0.3899
     11 C10        -1.4313   -1.8931    0.3520 C.3       1 <0>        -0.0154
     12 C11        -2.8632   -2.3373    0.6585 C.3       1 <0>        -0.1618
     13 C12        -3.7835   -1.8989   -0.4843 C.3       1 <0>         0.1354
     14 C13        -3.6721   -0.3820   -0.6630 C.3       1 <0>        -0.1616
     15 C14        -2.2103   -0.0103   -0.9205 C.3       1 <0>        -0.0144
     16 N2         -5.1679   -2.2539   -0.1621 N.pl3     1 <0>        -0.4851
     17 C15        -5.8953   -1.8085    0.9235 C.ar      1 <0>         0.0601
     18 C16        -5.6222   -0.9604    1.9882 C.ar      1 <0>        -0.1300
     19 C17        -6.5959   -0.7150    2.9327 C.ar      1 <0>        -0.0727
     20 C18        -7.8451   -1.3099    2.8261 C.ar      1 <0>        -0.1178
     21 C19        -8.1315   -2.1474    1.7856 C.ar      1 <0>        -0.0487
     22 C20        -7.1604   -2.4103    0.8157 C.ar      1 <0>         0.0448
     23 N3         -7.1402   -3.1753   -0.3059 N.2       1 <0>        -0.4566
     24 C21        -5.9768   -3.0788   -0.8803 C.2       1 <0>         0.2583
     25 C22        -5.5817   -3.7812   -2.1537 C.3       1 <0>        -0.0190
     26 H1         -4.5526   -3.5255   -2.4062 H         1 <0>         0.1033
     27 C23        -5.6994   -5.2958   -1.9599 C.3       1 <0>        -0.1304
     28 C24        -5.3717   -5.9966   -3.2815 C.3       1 <0>        -0.1445
     29 C25        -6.3087   -5.4771   -4.3740 C.3       1 <0>        -0.0129
     30 N4         -6.1298   -4.0286   -4.5291 N.4       1 <0>        -0.5029
     31 C26        -6.5102   -3.3430   -3.2882 C.3       1 <0>        -0.0016
     32 H2          0.9794    1.9070   -0.0765 H         1 <0>         0.1216
     33 H3         -0.5000    1.7943   -1.0598 H         1 <0>         0.0853
     34 H4         -0.6166    1.9267    0.7114 H         1 <0>         0.0835
     35 H5          0.3350   -1.7472   -1.2101 H         1 <0>         0.0849
     36 H6         -0.1969   -0.3199   -2.1148 H         1 <0>         0.0822
     37 H7          2.0618   -0.6813   -2.7139 H         1 <0>         0.0755
     38 H8          2.1412    0.6821   -1.5975 H         1 <0>         0.0909
     39 H9          2.2273   -1.8909   -0.1665 H         1 <0>         0.0689
     40 H10         3.4658   -1.8158   -1.4309 H         1 <0>         0.0661
     41 H11         4.0851   -0.8814    0.9260 H         1 <0>         0.0704
     42 H12         4.5163    0.0640   -0.5277 H         1 <0>         0.0715
     43 H13         3.5824    1.5699    1.0850 H         1 <0>         0.0663
     44 H14         2.4077    1.4150   -0.1918 H         1 <0>         0.0817
     45 H15         2.4793   -0.1219    2.4612 H         1 <0>         0.0828
     46 H16         1.4684    1.2906    2.1840 H         1 <0>         0.0720
     47 H17         0.0743   -0.6299    2.0339 H         1 <0>         0.0686
     48 H18         1.1768   -1.5057    1.0118 H         1 <0>         0.0987
     49 H19        -1.1002   -2.3528   -0.5791 H         1 <0>         0.1363
     50 H20        -0.7734   -2.2038    1.1636 H         1 <0>         0.1435
     51 H21        -2.8948   -3.4225    0.7554 H         1 <0>         0.1205
     52 H22        -3.1952   -1.8783    1.5898 H         1 <0>         0.1007
     53 H23        -3.4832   -2.3975   -1.4058 H         1 <0>         0.1130
     54 H24        -4.2819   -0.0697   -1.5108 H         1 <0>         0.1184
     55 H25        -4.0209    0.1175    0.2408 H         1 <0>         0.1013
     56 H26        -2.1274    1.0690   -1.0484 H         1 <0>         0.1454
     57 H27        -1.8626   -0.5102   -1.8246 H         1 <0>         0.1354
     58 H28        -4.6515   -0.4954    2.0762 H         1 <0>         0.1161
     59 H29        -6.3849   -0.0554    3.7615 H         1 <0>         0.1400
     60 H30        -8.5984   -1.1090    3.5735 H         1 <0>         0.1420
     61 H31        -9.1067   -2.6057    1.7128 H         1 <0>         0.1387
     62 H32        -4.9980   -5.6205   -1.1914 H         1 <0>         0.0950
     63 H33        -6.7159   -5.5465   -1.6566 H         1 <0>         0.1016
     64 H34        -4.3385   -5.7869   -3.5582 H         1 <0>         0.0884
     65 H35        -5.5074   -7.0720   -3.1666 H         1 <0>         0.1221
     66 H36        -6.0782   -5.9742   -5.3163 H         1 <0>         0.1405
     67 H37        -7.3416   -5.6875   -4.0964 H         1 <0>         0.1374
     68 H38        -5.1626   -3.8306   -4.7379 H         1 <0>         0.4248
     69 H39        -7.5390   -3.5983   -3.0342 H         1 <0>         0.1485
     70 H40        -6.4282   -2.2652   -3.4285 H         1 <0>         0.1342
     71 H41        -1.7400   -0.0082    1.0634 H         1 <0>         0.4212
     72 H42        -6.7095   -3.6982   -5.2860 H         1 <0>         0.4397
@<TRIPOS>BOND
     1    1    2 1
     2    1   32 1
     3    1   33 1
     4    1   34 1
     5    2    9 1
     6    2    3 1
     7    2   10 1
     8    3    4 1
     9    3   35 1
    10    3   36 1
    11    4    5 1
    12    4   37 1
    13    4   38 1
    14    5    6 1
    15    5   39 1
    16    5   40 1
    17    6    7 1
    18    6   41 1
    19    6   42 1
    20    7    8 1
    21    7   43 1
    22    7   44 1
    23    8    9 1
    24    8   45 1
    25    8   46 1
    26    9   47 1
    27    9   48 1
    28   10   15 1
    29   10   11 1
    30   10   71 1
    31   11   12 1
    32   11   49 1
    33   11   50 1
    34   12   13 1
    35   12   51 1
    36   12   52 1
    37   13   14 1
    38   13   16 1
    39   13   53 1
    40   14   15 1
    41   14   54 1
    42   14   55 1
    43   15   56 1
    44   15   57 1
    45   16   24 1
    46   16   17 1
    47   17   22 ar
    48   17   18 ar
    49   18   19 ar
    50   18   58 1
    51   19   20 ar
    52   19   59 1
    53   20   21 ar
    54   20   60 1
    55   21   22 ar
    56   21   61 1
    57   22   23 1
    58   23   24 2
    59   24   25 1
    60   25   26 1
    61   25   31 1
    62   25   27 1
    63   27   28 1
    64   27   62 1
    65   27   63 1
    66   28   29 1
    67   28   64 1
    68   28   65 1
    69   29   30 1
    70   29   66 1
    71   29   67 1
    72   30   31 1
    73   30   68 1
    74   30   72 1
    75   31   69 1
    76   31   70 1
@<TRIPOS>MOLECULE
ZINC40934902
   72    76     0     0     0
SMALL
USER_CHARGES

@<TRIPOS>ATOM
      1 C1          0.6700   -0.4932    1.2801 C.3       1 <0>        -0.1966
      2 C2          0.0021   -0.0041    0.0020 C.3       1 <0>         0.0879
      3 C3         -0.1291    1.5150   -0.0241 C.3       1 <0>        -0.1421
      4 C4          1.2184    2.2493   -0.0949 C.3       1 <0>        -0.1184
      5 C5          1.7263    2.1439   -1.5482 C.3       1 <0>        -0.1325
      6 C6          3.0740    1.3846   -1.5561 C.3       1 <0>        -0.1243
      7 C7          2.9918    0.1925   -0.5874 C.3       1 <0>        -0.1394
      8 C8          2.1083   -0.9096   -1.1628 C.3       1 <0>        -0.1118
      9 C9          0.6445   -0.5441   -1.2602 C.3       1 <0>        -0.1348
     10 N1         -1.3689   -0.5310    0.0308 N.4       1 <0>        -0.3899
     11 C10        -2.0633   -0.0191    1.2184 C.3       1 <0>        -0.0145
     12 C11        -3.4647   -0.6287    1.2967 C.3       1 <0>        -0.1624
     13 C12        -4.2519   -0.2482    0.0395 C.3       1 <0>         0.1355
     14 C13        -3.4813   -0.7218   -1.1963 C.3       1 <0>        -0.1611
     15 C14        -2.0793   -0.1088   -1.1822 C.3       1 <0>        -0.0153
     16 N2         -5.5679   -0.8910    0.0722 N.pl3     1 <0>        -0.4852
     17 C15        -5.8145   -2.2483    0.1267 C.ar      1 <0>         0.0601
     18 C16        -5.0069   -3.3768    0.1662 C.ar      1 <0>        -0.1300
     19 C17        -5.5837   -4.6278    0.2184 C.ar      1 <0>        -0.0727
     20 C18        -6.9646   -4.7655    0.2314 C.ar      1 <0>        -0.1178
     21 C19        -7.7748   -3.6664    0.1926 C.ar      1 <0>        -0.0487
     22 C20        -7.2124   -2.3883    0.1403 C.ar      1 <0>         0.0449
     23 N3         -7.7357   -1.1362    0.0944 N.2       1 <0>        -0.4567
     24 C21        -6.7736   -0.2610    0.0605 C.2       1 <0>         0.2583
     25 C22        -6.9666    1.2328    0.0118 C.3       1 <0>        -0.0190
     26 H1         -5.9942    1.7249   -0.0124 H         1 <0>         0.1034
     27 C23        -7.7399    1.6893    1.2523 C.3       1 <0>        -0.1304
     28 C24        -7.9988    3.1955    1.1548 C.3       1 <0>        -0.1445
     29 C25        -8.7539    3.4948   -0.1421 C.3       1 <0>        -0.0129
     30 N4         -7.9515    3.0593   -1.2914 N.4       1 <0>        -0.5029
     31 C26        -7.7590    1.6050   -1.2432 C.3       1 <0>        -0.0017
     32 H2          1.7422   -0.3050    1.2247 H         1 <0>         0.1216
     33 H3          0.2516    0.0379    2.1350 H         1 <0>         0.0860
     34 H4          0.4944   -1.5628    1.3954 H         1 <0>         0.0836
     35 H5         -0.7286    1.8081   -0.8927 H         1 <0>         0.0840
     36 H6         -0.6560    1.8457    0.8770 H         1 <0>         0.0832
     37 H7          1.0336    3.3128    0.1124 H         1 <0>         0.0757
     38 H8          1.9260    1.8754    0.6113 H         1 <0>         0.0912
     39 H9          1.0076    1.6609   -2.1790 H         1 <0>         0.0684
     40 H10         1.9150    3.1589   -1.9134 H         1 <0>         0.0658
     41 H11         3.2686    1.0235   -2.5609 H         1 <0>         0.0702
     42 H12         3.8596    2.0605   -1.2312 H         1 <0>         0.0716
     43 H13         4.0209   -0.2214   -0.5185 H         1 <0>         0.0664
     44 H14         2.7275    0.4979    0.4001 H         1 <0>         0.0820
     45 H15         2.4818   -1.1541   -2.1721 H         1 <0>         0.0826
     46 H16         2.2321   -1.8192   -0.5629 H         1 <0>         0.0722
     47 H17         0.0903   -1.4715   -1.5356 H         1 <0>         0.0682
     48 H18         0.4676    0.1304   -2.1003 H         1 <0>         0.0981
     49 H19        -1.5002   -0.2879    2.1121 H         1 <0>         0.1459
     50 H20        -2.1427    1.0660    1.1527 H         1 <0>         0.1361
     51 H21        -3.3864   -1.7138    1.3626 H         1 <0>         0.1009
     52 H22        -3.9793   -0.2460    2.1781 H         1 <0>         0.1206
     53 H23        -4.3746    0.8342   -0.0001 H         1 <0>         0.1130
     54 H24        -3.4034   -1.8089   -1.1821 H         1 <0>         0.1012
     55 H25        -4.0078   -0.4056   -2.0968 H         1 <0>         0.1182
     56 H26        -2.1584    0.9783   -1.1967 H         1 <0>         0.1356
     57 H27        -1.5280   -0.4438   -2.0608 H         1 <0>         0.1430
     58 H28        -3.9317   -3.2752    0.1556 H         1 <0>         0.1161
     59 H29        -4.9568   -5.5066    0.2492 H         1 <0>         0.1400
     60 H30        -7.4030   -5.7517    0.2721 H         1 <0>         0.1420
     61 H31        -8.8483   -3.7851    0.2024 H         1 <0>         0.1387
     62 H32        -8.6906    1.1587    1.3048 H         1 <0>         0.1015
     63 H33        -7.1531    1.4774    2.1461 H         1 <0>         0.0951
     64 H34        -8.5970    3.5179    2.0070 H         1 <0>         0.1221
     65 H35        -7.0482    3.7289    1.1538 H         1 <0>         0.0885
     66 H36        -9.7043    2.9612   -0.1400 H         1 <0>         0.1374
     67 H37        -8.9400    4.5664   -0.2146 H         1 <0>         0.1406
     68 H38        -8.4279    3.3064   -2.1458 H         1 <0>         0.4396
     69 H39        -7.2106    1.2813   -2.1279 H         1 <0>         0.1341
     70 H40        -8.7306    1.1116   -1.2185 H         1 <0>         0.1485
     71 H41        -1.3400   -1.5388    0.0689 H         1 <0>         0.4212
     72 H42        -7.0526    3.5170   -1.2655 H         1 <0>         0.4248
@<TRIPOS>BOND
     1    1    2 1
     2    1   32 1
     3    1   33 1
     4    1   34 1
     5    2    9 1
     6    2    3 1
     7    2   10 1
     8    3    4 1
     9    3   35 1
    10    3   36 1
    11    4    5 1
    12    4   37 1
    13    4   38 1
    14    5    6 1
    15    5   39 1
    16    5   40 1
    17    6    7 1
    18    6   41 1
    19    6   42 1
    20    7    8 1
    21    7   43 1
    22    7   44 1
    23    8    9 1
    24    8   45 1
    25    8   46 1
    26    9   47 1
    27    9   48 1
    28   10   15 1
    29   10   11 1
    30   10   71 1
    31   11   12 1
    32   11   49 1
    33   11   50 1
    34   12   13 1
    35   12   51 1
    36   12   52 1
    37   13   14 1
    38   13   16 1
    39   13   53 1
    40   14   15 1
    41   14   54 1
    42   14   55 1
    43   15   56 1
    44   15   57 1
    45   16   24 1
    46   16   17 1
    47   17   22 ar
    48   17   18 ar
    49   18   19 ar
    50   18   58 1
    51   19   20 ar
    52   19   59 1
    53   20   21 ar
    54   20   60 1
    55   21   22 ar
    56   21   61 1
    57   22   23 1
    58   23   24 2
    59   24   25 1
    60   25   26 1
    61   25   31 1
    62   25   27 1
    63   27   28 1
    64   27   62 1
    65   27   63 1
    66   28   29 1
    67   28   64 1
    68   28   65 1
    69   29   30 1
    70   29   66 1
    71   29   67 1
    72   30   31 1
    73   30   68 1
    74   30   72 1
    75   31   69 1
    76   31   70 1
@<TRIPOS>MOLECULE
ZINC02009309
   62    66     0     0     0
SMALL
USER_CHARGES

@<TRIPOS>ATOM
      1 C1          4.9913    4.2801    0.8611 C.3       1 <0>        -0.1433
      2 C2          3.5222    4.5512    1.0594 C.ar      1 <0>        -0.0479
      3 C3          3.0785    5.8457    1.2568 C.ar      1 <0>        -0.1045
      4 C4          1.7317    6.0937    1.4434 C.ar      1 <0>        -0.0916
      5 C5          0.8277    5.0478    1.4289 C.ar      1 <0>        -0.1072
      6 C6          1.2707    3.7542    1.2277 C.ar      1 <0>        -0.1261
      7 C7          2.6178    3.5061    1.0401 C.ar      1 <0>        -0.1238
      8 C8          3.1009    2.0956    0.8207 C.3       1 <0>         0.1312
      9 C9          3.4747    1.4810    2.1449 C.ar      1 <0>        -0.1372
     10 C10         2.5379    1.4003    3.1586 C.ar      1 <0>        -0.0979
     11 C11         2.8808    0.8366    4.3731 C.ar      1 <0>        -0.1144
     12 C12         4.1602    0.3526    4.5740 C.ar      1 <0>        -0.0838
     13 C13         5.0964    0.4325    3.5604 C.ar      1 <0>        -0.1114
     14 C14         4.7523    0.9928    2.3442 C.ar      1 <0>        -0.0542
     15 C15         5.7715    1.0751    1.2372 C.3       1 <0>        -0.1406
     16 C16         2.5115   -0.0623   -0.1444 C.3       1 <0>         0.0320
     17 H1          3.0949   -0.5169    0.6563 H         1 <0>         0.1526
     18 C17         3.3430    0.1381   -1.4323 C.3       1 <0>        -0.1376
     19 C18         2.7707    1.4176   -2.0772 C.3       1 <0>        -0.1311
     20 C19         1.6453    1.8740   -1.1203 C.3       1 <0>         0.0260
     21 H2          1.5401    2.9586   -1.0954 H         1 <0>         0.1557
     22 C20         0.3466    1.1762   -1.5552 C.3       1 <0>        -0.1287
     23 C21         0.6312   -0.3135   -1.7671 C.3       1 <0>         0.1804
     24 C22         1.2757   -0.9009   -0.5082 C.3       1 <0>        -0.1645
     25 C23        -0.6609   -1.0353   -2.0509 C.ar      1 <0>        -0.1266
     26 C24        -1.8447   -0.5728   -1.5072 C.ar      1 <0>        -0.1157
     27 C25        -3.0307   -1.2321   -1.7714 C.ar      1 <0>        -0.1119
     28 C26        -3.0312   -2.3599   -2.5708 C.ar      1 <0>        -0.1065
     29 C27        -1.8466   -2.8254   -3.1101 C.ar      1 <0>        -0.1096
     30 C28        -0.6615   -2.1631   -2.8502 C.ar      1 <0>        -0.1061
     31 O1          1.5191   -0.4749   -2.8751 O.3       1 <0>        -0.5360
     32 H3          5.2104    4.2277   -0.2054 H         1 <0>         0.0800
     33 H4          5.5732    5.0836    1.3125 H         1 <0>         0.0813
     34 H5          5.2528    3.3328    1.3327 H         1 <0>         0.0772
     35 H6          3.7848    6.6627    1.2685 H         1 <0>         0.1360
     36 H7          1.3856    7.1046    1.6009 H         1 <0>         0.1354
     37 H8         -0.2247    5.2416    1.5750 H         1 <0>         0.1342
     38 H9          0.5645    2.9371    1.2167 H         1 <0>         0.1116
     39 H10         3.9728    2.1077    0.1668 H         1 <0>         0.1491
     40 H11         1.5384    1.7780    3.0015 H         1 <0>         0.1220
     41 H12         2.1491    0.7739    5.1650 H         1 <0>         0.1341
     42 H13         4.4280   -0.0882    5.5229 H         1 <0>         0.1356
     43 H14         6.0957    0.0541    3.7172 H         1 <0>         0.1363
     44 H15         6.3637    1.9826    1.3552 H         1 <0>         0.0893
     45 H16         6.4270    0.2053    1.2814 H         1 <0>         0.0858
     46 H17         5.2612    1.0970    0.2743 H         1 <0>         0.0657
     47 H18         4.3959    0.2756   -1.1865 H         1 <0>         0.0840
     48 H19         3.2183   -0.7139   -2.1007 H         1 <0>         0.1254
     49 H20         3.5422    2.1842   -2.1484 H         1 <0>         0.0832
     50 H21         2.3649    1.1960   -3.0643 H         1 <0>         0.1373
     51 H22        -0.0098    1.6159   -2.4867 H         1 <0>         0.1234
     52 H23        -0.4098    1.2966   -0.7797 H         1 <0>         0.0993
     53 H24         0.5611   -0.8739    0.3143 H         1 <0>         0.0963
     54 H25         1.5768   -1.9310   -0.6989 H         1 <0>         0.1164
     55 H26        -1.8436    0.3057   -0.8791 H         1 <0>         0.1215
     56 H27        -3.9561   -0.8687   -1.3497 H         1 <0>         0.1285
     57 H28        -3.9571   -2.8776   -2.7736 H         1 <0>         0.1293
     58 H29        -1.8470   -3.7068   -3.7343 H         1 <0>         0.1296
     59 H30         0.2641   -2.5270   -3.2713 H         1 <0>         0.1226
     60 H31         1.7439   -1.3953   -3.0682 H         1 <0>         0.3816
     61 N1          2.0260    1.2867    0.1596 N.4       1 <0>        -0.3857
     62 H32         1.2103    1.2373    0.7813 H         1 <0>         0.4143
@<TRIPOS>BOND
     1    1    2 1
     2    1   32 1
     3    1   33 1
     4    1   34 1
     5    2    7 ar
     6    2    3 ar
     7    3    4 ar
     8    3   35 1
     9    4    5 ar
    10    4   36 1
    11    5    6 ar
    12    5   37 1
    13    6    7 ar
    14    6   38 1
    15    7    8 1
    16    8    9 1
    17    8   39 1
    18    8   61 1
    19    9   14 ar
    20    9   10 ar
    21   10   11 ar
    22   10   40 1
    23   11   12 ar
    24   11   41 1
    25   12   13 ar
    26   12   42 1
    27   13   14 ar
    28   13   43 1
    29   14   15 1
    30   15   44 1
    31   15   45 1
    32   15   46 1
    33   16   17 1
    34   16   24 1
    35   16   18 1
    36   16   61 1
    37   18   19 1
    38   18   47 1
    39   18   48 1
    40   19   20 1
    41   19   49 1
    42   19   50 1
    43   20   21 1
    44   20   22 1
    45   20   61 1
    46   22   23 1
    47   22   51 1
    48   22   52 1
    49   23   24 1
    50   23   25 1
    51   23   31 1
    52   24   53 1
    53   24   54 1
    54   25   30 ar
    55   25   26 ar
    56   26   27 ar
    57   26   55 1
    58   27   28 ar
    59   27   56 1
    60   28   29 ar
    61   28   57 1
    62   29   30 ar
    63   29   58 1
    64   30   59 1
    65   31   60 1
    66   61   62 1
@<TRIPOS>MOLECULE
ZINC35283208
   54    58     0     0     0
SMALL
USER_CHARGES

@<TRIPOS>ATOM
      1 C1          0.2881    1.4646    0.1836 C.ar      1 <0>        -0.0958
      2 C2          1.5024    2.0775   -0.0645 C.ar      1 <0>        -0.0807
      3 C3          2.6284    1.3114   -0.2987 C.ar      1 <0>        -0.0937
      4 C4          2.5404   -0.0695   -0.2850 C.ar      1 <0>        -0.0136
      5 C5          1.3253   -0.6822   -0.0367 C.ar      1 <0>        -0.1190
      6 C6          0.1996    0.0853    0.1975 C.ar      1 <0>        -0.1169
      7 C7          1.2285   -2.1860   -0.0220 C.3       1 <0>         0.1228
      8 C8          1.4956   -2.6929    1.3718 C.ar      1 <0>        -0.1275
      9 C9          0.5762   -2.4646    2.3785 C.ar      1 <0>        -0.1003
     10 C10         0.8210   -2.9295    3.6569 C.ar      1 <0>        -0.0999
     11 C11         1.9853   -3.6236    3.9296 C.ar      1 <0>        -0.0760
     12 C12         2.9050   -3.8528    2.9240 C.ar      1 <0>        -0.0971
     13 C13         2.6583   -3.3918    1.6428 C.ar      1 <0>        -0.0085
     14 Cl1         3.8100   -3.6851    0.3775 Cl        1 <0>        -0.0407
     15 N1         -0.1188   -2.5941   -0.4417 N.4       1 <0>        -0.3907
     16 C14        -0.2001   -4.0730   -0.5752 C.3       1 <0>         0.0354
     17 H1          0.2674   -4.5893    0.2633 H         1 <0>         0.1505
     18 C15         0.5097   -4.3730   -1.9156 C.3       1 <0>        -0.1423
     19 C16         0.3715   -3.0734   -2.7356 C.3       1 <0>        -0.1414
     20 C17        -0.4093   -2.1063   -1.8162 C.3       1 <0>         0.0315
     21 H2         -0.1072   -1.0686   -1.9580 H         1 <0>         0.1539
     22 C18        -1.9096   -2.3250   -2.0695 C.3       1 <0>        -0.1291
     23 C19        -2.2024   -3.8279   -2.0457 C.3       1 <0>        -0.0468
     24 C20        -1.6864   -4.4361   -0.7227 C.3       1 <0>        -0.1364
     25 C21        -3.6894   -4.0505   -2.1479 C.ar      1 <0>         0.1201
     26 C22        -4.4668   -4.0064   -1.0058 C.ar      1 <0>        -0.1745
     27 C23        -5.8336   -4.2126   -1.1107 C.ar      1 <0>        -0.0678
     28 C24        -6.3699   -4.4565   -2.3660 C.ar      1 <0>        -0.1637
     29 C25        -5.5300   -4.4857   -3.4629 C.ar      1 <0>         0.1101
     30 N2         -4.2345   -4.2798   -3.3263 N.ar      1 <0>        -0.4770
     31 Cl2         3.9543   -1.0327   -0.5797 Cl        1 <0>        -0.0368
     32 H3         -0.5907    2.0638    0.3710 H         1 <0>         0.1434
     33 H4          1.5708    3.1553   -0.0756 H         1 <0>         0.1468
     34 H5          3.5767    1.7902   -0.4929 H         1 <0>         0.1486
     35 H6         -0.7491   -0.3929    0.3914 H         1 <0>         0.1224
     36 H7          1.9651   -2.6042   -0.7081 H         1 <0>         0.1585
     37 H8         -0.3335   -1.9226    2.1661 H         1 <0>         0.1277
     38 H9          0.1027   -2.7503    4.4433 H         1 <0>         0.1434
     39 H10         2.1762   -3.9863    4.9288 H         1 <0>         0.1472
     40 H11         3.8145   -4.3950    3.1371 H         1 <0>         0.1489
     41 H12         1.5612   -4.6037   -1.7447 H         1 <0>         0.0986
     42 H13         0.0178   -5.1994   -2.4287 H         1 <0>         0.1188
     43 H14         1.3550   -2.6650   -2.9678 H         1 <0>         0.0986
     44 H15        -0.1884   -3.2607   -3.6518 H         1 <0>         0.1199
     45 H16        -2.4876   -1.8280   -1.2904 H         1 <0>         0.0881
     46 H17        -2.1788   -1.9160   -3.0433 H         1 <0>         0.1201
     47 H18        -1.7060   -4.3074   -2.8894 H         1 <0>         0.1163
     48 H19        -1.7961   -5.5201   -0.7540 H         1 <0>         0.1194
     49 H20        -2.2458   -4.0351    0.1226 H         1 <0>         0.0936
     50 H21        -4.0150   -3.8142   -0.0438 H         1 <0>         0.1316
     51 H22        -6.4657   -4.1842   -0.2354 H         1 <0>         0.1394
     52 H23        -7.4305   -4.6218   -2.4848 H         1 <0>         0.1421
     53 H24        -5.9399   -4.6750   -4.4440 H         1 <0>         0.1631
     54 H25        -0.8112   -2.2554    0.2094 H         1 <0>         0.4156
@<TRIPOS>BOND
     1    1    6 ar
     2    1    2 ar
     3    1   32 1
     4    2    3 ar
     5    2   33 1
     6    3    4 ar
     7    3   34 1
     8    4    5 ar
     9    4   31 1
    10    5    6 ar
    11    5    7 1
    12    6   35 1
    13    7    8 1
    14    7   15 1
    15    7   36 1
    16    8   13 ar
    17    8    9 ar
    18    9   10 ar
    19    9   37 1
    20   10   11 ar
    21   10   38 1
    22   11   12 ar
    23   11   39 1
    24   12   13 ar
    25   12   40 1
    26   13   14 1
    27   15   20 1
    28   15   16 1
    29   15   54 1
    30   16   17 1
    31   16   24 1
    32   16   18 1
    33   18   19 1
    34   18   41 1
    35   18   42 1
    36   19   20 1
    37   19   43 1
    38   19   44 1
    39   20   21 1
    40   20   22 1
    41   22   23 1
    42   22   45 1
    43   22   46 1
    44   23   24 1
    45   23   25 1
    46   23   47 1
    47   24   48 1
    48   24   49 1
    49   25   30 ar
    50   25   26 ar
    51   26   27 ar
    52   26   50 1
    53   27   28 ar
    54   27   51 1
    55   28   29 ar
    56   28   52 1
    57   29   30 ar
    58   29   53 1
@<TRIPOS>MOLECULE
ZINC03874479
   58    65     0     0     0
SMALL
USER_CHARGES
cyclopropylmethylBLAHdiol
@<TRIPOS>ATOM
      1 C1          2.9104    3.8420   -0.0057 C.ar      1 <0>        -0.1324
      2 C2          3.3419    2.5263   -0.0286 C.ar      1 <0>        -0.0968
      3 C3          2.4593    1.4607   -0.0259 C.ar      1 <0>        -0.1183
      4 C4          1.1008    1.7658    0.0010 C.ar      1 <0>         0.0897
      5 C5          0.6593    3.1181    0.0309 C.ar      1 <0>        -0.0740
      6 C6          1.5800    4.1739    0.0245 C.ar      1 <0>        -0.0773
      7 C7         -0.7700    3.0646    0.0598 C.2       1 <0>        -0.1678
      8 C8         -1.1262    1.7230    0.0162 C.2       1 <0>         0.0837
      9 N1         -0.0111    0.9658    0.0074 N.pl3     1 <0>        -0.5457
     10 H1          0.0021   -0.0041    0.0020 H         1 <0>         0.4221
     11 C9         -2.5816    1.5112   -0.0422 C.3       1 <0>         0.1626
     12 H2         -2.9244    2.0520   -0.9243 H         1 <0>         0.0952
     13 C10        -3.2046    2.2676    1.1373 C.3       1 <0>        -0.0563
     14 C11        -3.1720    1.6846    2.5425 C.3       1 <0>        -0.0910
     15 C12        -4.2373    2.5141    3.2967 C.3       1 <0>         0.0044
     16 C13        -3.9101    4.5273    1.8149 C.3       1 <0>         0.0571
     17 H3         -3.6274    5.5791    1.8584 H         1 <0>         0.1526
     18 C14        -2.7672    3.7006    1.2598 C.3       1 <0>         0.1355
     19 C15        -1.8510    4.1372    0.1494 C.3       1 <0>        -0.0443
     20 O1         -1.8811    3.6185    2.3779 O.3       1 <0>        -0.5614
     21 C16        -5.2504    4.4002    1.1160 C.3       1 <0>        -0.0933
     22 C17        -5.6062    3.0317    0.6566 C.ar      1 <0>        -0.0633
     23 C18        -4.6108    2.0940    0.6387 C.ar      1 <0>        -0.1732
     24 C19        -4.6380    0.8223    0.0560 C.ar      1 <0>         0.0717
     25 C20        -5.8678    0.3938   -0.4305 C.ar      1 <0>         0.1324
     26 C21        -6.9291    1.2962   -0.3389 C.ar      1 <0>        -0.1100
     27 C22        -6.8205    2.5836    0.1710 C.ar      1 <0>        -0.0947
     28 O2         -6.0291   -0.8442   -0.9698 O.3       1 <0>        -0.4801
     29 O3         -3.3534    0.3148    0.0205 O.3       1 <0>        -0.2585
     30 C23        -5.1376    4.6559    3.9286 C.3       1 <0>         0.0229
     31 C24        -5.1135    4.2203    5.3951 C.3       1 <0>        -0.2112
     32 C25        -6.3404    3.4811    5.9328 C.3       1 <0>        -0.1672
     33 C26        -6.0703    4.9267    6.3577 C.3       1 <0>        -0.1500
     34 H4          3.6459    4.6329   -0.0115 H         1 <0>         0.1235
     35 H5          4.4028    2.3253   -0.0496 H         1 <0>         0.1274
     36 H6          2.8081    0.4388   -0.0442 H         1 <0>         0.1326
     37 H7          1.2564    5.2041    0.0422 H         1 <0>         0.1293
     38 H8         -3.4418    0.6286    2.5279 H         1 <0>         0.1075
     39 H9         -2.1901    1.8240    2.9948 H         1 <0>         0.1214
     40 H10        -4.2192    2.2407    4.3517 H         1 <0>         0.1228
     41 H11        -5.2110    2.2438    2.8880 H         1 <0>         0.1230
     42 H12        -1.4044    5.1025    0.3877 H         1 <0>         0.1001
     43 H13        -2.4004    4.1970   -0.7902 H         1 <0>         0.0913
     44 H14        -1.4455    4.4537    2.5967 H         1 <0>         0.3794
     45 H15        -5.2463    5.0605    0.2487 H         1 <0>         0.1291
     46 H16        -6.0293    4.7446    1.7963 H         1 <0>         0.1068
     47 H17        -7.8984    0.9720   -0.6879 H         1 <0>         0.1444
     48 H18        -7.6832    3.2331    0.1888 H         1 <0>         0.1420
     49 H19        -6.2794   -1.5231   -0.3283 H         1 <0>         0.4014
     50 H20        -4.9723    5.7314    3.8662 H         1 <0>         0.1285
     51 H21        -6.1063    4.4113    3.4928 H         1 <0>         0.1331
     52 H22        -4.1382    3.9245    5.7816 H         1 <0>         0.1236
     53 H23        -7.1648    3.3051    5.2418 H         1 <0>         0.1050
     54 H24        -6.1724    2.6992    6.6734 H         1 <0>         0.1089
     55 H25        -5.7246    5.0952    7.3776 H         1 <0>         0.1113
     56 H26        -6.7166    5.7020    5.9462 H         1 <0>         0.1072
     57 N2         -4.0325    3.9897    3.2451 N.4       1 <0>        -0.3911
     58 H27        -3.1604    4.2067    3.7417 H         1 <0>         0.4282
@<TRIPOS>BOND
     1    1    6 ar
     2    1    2 ar
     3    1   34 1
     4    2    3 ar
     5    2   35 1
     6    3    4 ar
     7    3   36 1
     8    4    9 1
     9    4    5 ar
    10    5    6 ar
    11    5    7 1
    12    6   37 1
    13    7   19 1
    14    7    8 2
    15    8    9 1
    16    8   11 1
    17    9   10 1
    18   11   12 1
    19   11   29 1
    20   11   13 1
    21   13   18 1
    22   13   23 1
    23   13   14 1
    24   14   15 1
    25   14   38 1
    26   14   39 1
    27   15   40 1
    28   15   41 1
    29   15   57 1
    30   16   17 1
    31   16   18 1
    32   16   21 1
    33   16   57 1
    34   18   19 1
    35   18   20 1
    36   19   42 1
    37   19   43 1
    38   20   44 1
    39   21   22 1
    40   21   45 1
    41   21   46 1
    42   22   27 ar
    43   22   23 ar
    44   23   24 ar
    45   24   25 ar
    46   24   29 1
    47   25   26 ar
    48   25   28 1
    49   26   27 ar
    50   26   47 1
    51   27   48 1
    52   28   49 1
    53   30   31 1
    54   30   50 1
    55   30   51 1
    56   30   57 1
    57   31   33 1
    58   31   32 1
    59   31   52 1
    60   32   33 1
    61   32   53 1
    62   32   54 1
    63   33   55 1
    64   33   56 1
    65   57   58 1
@<TRIPOS>MOLECULE
ZINC03812983
   41    45     0     0     0
SMALL
USER_CHARGES
methylBLAHdiol
@<TRIPOS>ATOM
      1 C1          2.5532   -4.0281   -1.2929 C.3       1 <0>        -0.0484
      2 C2          3.5947   -1.8745   -0.9415 C.3       1 <0>        -0.0043
      3 C3          3.6019   -0.5992   -0.0995 C.3       1 <0>        -0.1260
      4 C4          2.2189    0.0434   -0.2379 C.3       1 <0>        -0.0574
      5 C5          1.9436    0.2694   -1.7033 C.ar      1 <0>        -0.1864
      6 C6          1.3321   -0.5987   -2.5755 C.ar      1 <0>        -0.0564
      7 C7          1.2190   -0.1564   -3.8812 C.ar      1 <0>        -0.1265
      8 C8          1.6669    1.1083   -4.2290 C.ar      1 <0>        -0.1009
      9 C9          2.2257    2.0020   -3.3175 C.ar      1 <0>         0.1075
     10 C10         2.3451    1.5675   -1.9939 C.ar      1 <0>         0.1517
     11 O1          2.7949    2.1721   -0.8702 O.3       1 <0>        -0.2745
     12 C11         2.1727    1.4792    0.2740 C.3       1 <0>         0.1100
     13 H1          2.6983    1.6223    1.2181 H         1 <0>         0.1502
     14 C12         0.7367    2.0155    0.2661 C.3       1 <0>         0.1097
     15 H2          0.6482    2.7733    1.0446 H         1 <0>         0.0803
     16 C13        -0.3150    0.9908    0.4879 C.2       1 <0>        -0.1525
     17 C14        -0.1527   -0.2942    0.4717 C.2       1 <0>        -0.1355
     18 C15         1.1799   -0.9197    0.2862 C.3       1 <0>        -0.0479
     19 H3          1.5192   -1.2471    1.2689 H         1 <0>         0.1004
     20 C16         1.1821   -2.1468   -0.6151 C.3       1 <0>         0.0590
     21 H4          0.4619   -2.8606   -0.2153 H         1 <0>         0.1363
     22 C17         0.8134   -1.9003   -2.0558 C.3       1 <0>        -0.0882
     23 O2          0.4964    2.6425   -0.9953 O.3       1 <0>        -0.5359
     24 O3          2.6371    3.2410   -3.6984 O.3       1 <0>        -0.4796
     25 H5          2.4612   -3.8104   -2.3570 H         1 <0>         0.1267
     26 H6          3.4994   -4.5361   -1.1065 H         1 <0>         0.1256
     27 H7          1.7289   -4.6694   -0.9807 H         1 <0>         0.1244
     28 H8          4.5493   -2.3884   -0.8287 H         1 <0>         0.1314
     29 H9          3.4563   -1.6019   -1.9877 H         1 <0>         0.1340
     30 H10         4.3670    0.0825   -0.4709 H         1 <0>         0.1194
     31 H11         3.7955   -0.8428    0.9451 H         1 <0>         0.0984
     32 H12         0.7809   -0.7981   -4.6314 H         1 <0>         0.1324
     33 H13         1.5779    1.4173   -5.2600 H         1 <0>         0.1363
     34 H14        -1.3148    1.3526    0.6772 H         1 <0>         0.1225
     35 H15        -1.0158   -0.9312    0.5970 H         1 <0>         0.1292
     36 H16        -0.2725   -1.9066   -2.1492 H         1 <0>         0.1227
     37 H17         1.2210   -2.7075   -2.6645 H         1 <0>         0.1017
     38 H18        -0.3623    3.0826   -1.0586 H         1 <0>         0.3865
     39 H19         3.5594    3.2780   -3.9865 H         1 <0>         0.3923
     40 N1          2.5173   -2.7921   -0.4927 N.4       1 <0>        -0.3970
     41 H20         2.6774   -3.0298    0.4933 H         1 <0>         0.4294
@<TRIPOS>BOND
     1    1   25 1
     2    1   26 1
     3    1   27 1
     4    1   40 1
     5    2    3 1
     6    2   28 1
     7    2   29 1
     8    2   40 1
     9    3    4 1
    10    3   30 1
    11    3   31 1
    12    4   12 1
    13    4   18 1
    14    4    5 1
    15    5   10 ar
    16    5    6 ar
    17    6   22 1
    18    6    7 ar
    19    7    8 ar
    20    7   32 1
    21    8    9 ar
    22    8   33 1
    23    9   10 ar
    24    9   24 1
    25   10   11 1
    26   11   12 1
    27   12   13 1
    28   12   14 1
    29   14   15 1
    30   14   16 1
    31   14   23 1
    32   16   17 2
    33   16   34 1
    34   17   18 1
    35   17   35 1
    36   18   19 1
    37   18   20 1
    38   20   21 1
    39   20   22 1
    40   20   40 1
    41   22   36 1
    42   22   37 1
    43   23   38 1
    44   24   39 1
    45   40   41 1
