@<TRIPOS>MOLECULE
ZINC04102215
   67    73     0     0     0
SMALL
USER_CHARGES
cyclopropylmethyl-(1-hydroxy-1-methyl-ethyl)-methoxy-BLAHol
@<TRIPOS>ATOM
      1 C1          4.8147    3.3558   -3.7256 C.3       1 <0>        -0.1825
      2 C2          4.1110    2.0584   -3.3227 C.3       1 <0>         0.1398
      3 C3          5.0338    0.8701   -3.6006 C.3       1 <0>        -0.1376
      4 C4          3.7728    2.1036   -1.8312 C.3       1 <0>        -0.0918
      5 H1          4.6803    2.3107   -1.2641 H         1 <0>         0.0965
      6 C5          2.7528    3.2207   -1.5780 C.3       1 <0>        -0.1171
      7 C6          1.4952    2.6165   -0.9739 C.3       1 <0>        -0.0644
      8 C7          0.9098    1.5865   -1.9500 C.3       1 <0>        -0.1040
      9 C8          1.9235    0.4606   -2.1808 C.3       1 <0>        -0.1586
     10 C9          3.2070    0.7456   -1.4003 C.3       1 <0>         0.1278
     11 C10         2.9012    0.7796    0.0986 C.3       1 <0>         0.0764
     12 H2          3.8088    0.9608    0.6743 H         1 <0>         0.1199
     13 C11         1.8726    1.8879    0.3382 C.3       1 <0>        -0.0466
     14 C12         2.2694    2.8303    1.4276 C.3       1 <0>        -0.1242
     15 C13         1.2487    3.9550    1.6061 C.3       1 <0>        -0.0081
     16 C14         0.4230    3.6437   -0.6278 C.3       1 <0>         0.0608
     17 H3          0.1085    4.1596   -1.5350 H         1 <0>         0.1482
     18 C15        -0.8036    3.0570    0.0762 C.3       1 <0>        -0.0929
     19 C16        -0.6531    1.6424    0.5260 C.ar      1 <0>        -0.0526
     20 C17         0.6191    1.1116    0.6169 C.ar      1 <0>        -0.1786
     21 C18         0.9426   -0.2158    0.7980 C.ar      1 <0>         0.1122
     22 C19        -0.1034   -1.0923    1.1209 C.ar      1 <0>         0.1042
     23 C20        -1.3898   -0.5569    1.1355 C.ar      1 <0>        -0.1008
     24 C21        -1.6762    0.7643    0.8258 C.ar      1 <0>        -0.1169
     25 O1          0.1266   -2.4020    1.4058 O.3       1 <0>        -0.4800
     26 O2          2.2482   -0.4247    0.5392 O.3       1 <0>        -0.2689
     27 C22         0.1607    5.7985    0.4683 C.3       1 <0>         0.0271
     28 C23         0.6803    6.6611    1.6202 C.3       1 <0>        -0.2111
     29 C24        -0.2281    6.8332    2.8393 C.3       1 <0>        -0.1678
     30 C25        -0.0172    7.9997    1.8708 C.3       1 <0>        -0.1481
     31 O3          4.1667   -0.2786   -1.6689 O.3       1 <0>        -0.3556
     32 C26         3.7369   -1.5897   -1.2971 C.3       1 <0>         0.0156
     33 O4          2.9076    1.9143   -4.0798 O.3       1 <0>        -0.5436
     34 H4          5.7326    3.4657   -3.1481 H         1 <0>         0.0698
     35 H5          5.0556    3.3236   -4.7882 H         1 <0>         0.0729
     36 H6          4.1573    4.2024   -3.5276 H         1 <0>         0.0539
     37 H7          4.4576   -0.0543   -3.5616 H         1 <0>         0.0876
     38 H8          5.4790    0.9793   -4.5895 H         1 <0>         0.0553
     39 H9          5.8223    0.8387   -2.8487 H         1 <0>         0.0733
     40 H10         3.1750    3.9503   -0.8870 H         1 <0>         0.0689
     41 H11         2.5059    3.7096   -2.5205 H         1 <0>         0.0909
     42 H12        -0.0052    1.1682   -1.5306 H         1 <0>         0.0845
     43 H13         0.6848    2.0730   -2.8991 H         1 <0>         0.0793
     44 H14         2.1543    0.3957   -3.2441 H         1 <0>         0.1226
     45 H15         1.5004   -0.4868   -1.8467 H         1 <0>         0.0690
     46 H16         3.2396    3.2651    1.1876 H         1 <0>         0.0961
     47 H17         2.3507    2.2722    2.3604 H         1 <0>         0.1157
     48 H18         1.6287    4.6800    2.3260 H         1 <0>         0.1397
     49 H19         0.3090    3.5394    1.9700 H         1 <0>         0.1364
     50 H20        -1.0140    3.6580    0.9609 H         1 <0>         0.0999
     51 H21        -1.6562    3.1289   -0.5990 H         1 <0>         0.1183
     52 H22        -2.2097   -1.2072    1.4025 H         1 <0>         0.1407
     53 H23        -2.7005    1.1067    0.8187 H         1 <0>         0.1367
     54 H24         0.2874   -2.5783    2.3429 H         1 <0>         0.3974
     55 H25         0.1692    6.3801   -0.4536 H         1 <0>         0.1342
     56 H26        -0.8578    5.4771    0.6858 H         1 <0>         0.1305
     57 H27         1.7549    6.6129    1.7961 H         1 <0>         0.1245
     58 H28        -1.1958    6.3319    2.8207 H         1 <0>         0.1056
     59 H29         0.2490    6.8986    3.8172 H         1 <0>         0.1102
     60 H30         0.5985    8.8319    2.2119 H         1 <0>         0.1125
     61 H31        -0.8459    8.2659    1.2147 H         1 <0>         0.1079
     62 H32         4.5207   -2.3095   -1.5330 H         1 <0>         0.0888
     63 H33         3.5307   -1.6147   -0.2271 H         1 <0>         0.0644
     64 H34         2.8314   -1.8450   -1.8477 H         1 <0>         0.0457
     65 H35         2.2743    2.6338   -3.9525 H         1 <0>         0.3630
     66 N1          1.0397    4.6104    0.3036 N.4       1 <0>        -0.3972
     67 H36         1.9455    4.9130   -0.0734 H         1 <0>         0.4243
@<TRIPOS>BOND
     1    1    2 1
     2    1   34 1
     3    1   35 1
     4    1   36 1
     5    2    3 1
     6    2    4 1
     7    2   33 1
     8    3   37 1
     9    3   38 1
    10    3   39 1
    11    4    5 1
    12    4   10 1
    13    4    6 1
    14    6    7 1
    15    6   40 1
    16    6   41 1
    17    7   13 1
    18    7   16 1
    19    7    8 1
    20    8    9 1
    21    8   42 1
    22    8   43 1
    23    9   10 1
    24    9   44 1
    25    9   45 1
    26   10   11 1
    27   10   31 1
    28   11   12 1
    29   11   26 1
    30   11   13 1
    31   13   20 1
    32   13   14 1
    33   14   15 1
    34   14   46 1
    35   14   47 1
    36   15   48 1
    37   15   49 1
    38   15   66 1
    39   16   17 1
    40   16   18 1
    41   16   66 1
    42   18   19 1
    43   18   50 1
    44   18   51 1
    45   19   24 ar
    46   19   20 ar
    47   20   21 ar
    48   21   22 ar
    49   21   26 1
    50   22   23 ar
    51   22   25 1
    52   23   24 ar
    53   23   52 1
    54   24   53 1
    55   25   54 1
    56   27   28 1
    57   27   55 1
    58   27   56 1
    59   27   66 1
    60   28   30 1
    61   28   29 1
    62   28   57 1
    63   29   30 1
    64   29   58 1
    65   29   59 1
    66   30   60 1
    67   30   61 1
    68   31   32 1
    69   32   62 1
    70   32   63 1
    71   32   64 1
    72   33   65 1
    73   66   67 1
@<TRIPOS>MOLECULE
ZINC00002284
   47    49     0     0     0
SMALL
USER_CHARGES
2-[(2-ethoxyphenoxy)-phenyl-methyl]morpholine
@<TRIPOS>ATOM
      1 C1         -0.2577    1.4416    0.0894 C.3       1 <0>        -0.1513
      2 C2          0.0072   -0.0609   -0.0264 C.3       1 <0>         0.0521
      3 O1          0.6878   -0.5163    1.1447 O.3       1 <0>        -0.3107
      4 C3          1.0003   -1.8386    1.2023 C.ar      1 <0>         0.1096
      5 C4          0.6592   -2.6789    0.1547 C.ar      1 <0>        -0.1731
      6 C5          0.9775   -4.0228    0.2148 C.ar      1 <0>        -0.1022
      7 C6          1.6362   -4.5316    1.3188 C.ar      1 <0>        -0.1164
      8 C7          1.9794   -3.6987    2.3674 C.ar      1 <0>        -0.1622
      9 C8          1.6683   -2.3495    2.3109 C.ar      1 <0>         0.0877
     10 O2          2.0102   -1.5277    3.3391 O.3       1 <0>        -0.2963
     11 C9          2.5815   -2.1403    4.4968 C.3       1 <0>         0.1428
     12 H1          2.1155   -3.1119    4.6611 H         1 <0>         0.0968
     13 C10         4.0630   -2.3224    4.2895 C.ar      1 <0>        -0.1274
     14 C11         4.7994   -1.3355    3.6613 C.ar      1 <0>        -0.0926
     15 C12         6.1592   -1.5006    3.4750 C.ar      1 <0>        -0.1196
     16 C13         6.7808   -2.6567    3.9084 C.ar      1 <0>        -0.1023
     17 C14         6.0436   -3.6456    4.5324 C.ar      1 <0>        -0.1182
     18 C15         4.6846   -3.4787    4.7225 C.ar      1 <0>        -0.0929
     19 C16         2.3431   -1.2476    5.7163 C.3       1 <0>         0.0824
     20 H2          2.8088   -0.2758    5.5526 H         1 <0>         0.1000
     21 C17         0.8381   -1.0639    5.9290 C.3       1 <0>        -0.0381
     22 C18         1.2113   -0.9294    8.3158 C.3       1 <0>        -0.0426
     23 C19         2.7125   -1.1145    8.0792 C.3       1 <0>         0.0381
     24 O3          2.9128   -1.8610    6.8759 O.3       1 <0>        -0.3431
     25 H3          0.6900    1.9710    0.1878 H         1 <0>         0.0669
     26 H4         -0.7768    1.7889   -0.8038 H         1 <0>         0.0825
     27 H5         -0.8748    1.6351    0.9668 H         1 <0>         0.0636
     28 H6         -0.9405   -0.5903   -0.1248 H         1 <0>         0.0637
     29 H7          0.6243   -0.2545   -0.9037 H         1 <0>         0.0650
     30 H8          0.1450   -2.2839   -0.7090 H         1 <0>         0.1386
     31 H9          0.7114   -4.6767   -0.6025 H         1 <0>         0.1326
     32 H10         1.8835   -5.5820    1.3619 H         1 <0>         0.1314
     33 H11         2.4939   -4.0986    3.2286 H         1 <0>         0.1347
     34 H12         4.3130   -0.4340    3.3190 H         1 <0>         0.1240
     35 H13         6.7352   -0.7278    2.9878 H         1 <0>         0.1266
     36 H14         7.8426   -2.7871    3.7599 H         1 <0>         0.1273
     37 H15         6.5293   -4.5489    4.8710 H         1 <0>         0.1280
     38 H16         4.1085   -4.2515    5.2097 H         1 <0>         0.1226
     39 H17         0.4100   -0.5448    5.0715 H         1 <0>         0.1536
     40 H18         0.3642   -2.0394    6.0385 H         1 <0>         0.1408
     41 H19         1.0557   -0.3121    9.2006 H         1 <0>         0.1467
     42 H20         0.7434   -1.9027    8.4634 H         1 <0>         0.1410
     43 H21         3.1891   -0.1387    7.9850 H         1 <0>         0.0834
     44 H22         3.1497   -1.6535    8.9197 H         1 <0>         0.1457
     45 N1          0.6093   -0.2620    7.1460 N.4       1 <0>        -0.5152
     46 H23        -0.4007   -0.1567    7.2979 H         1 <0>         0.4418
     47 H24         1.0359    0.6643    7.0270 H         1 <0>         0.4344
@<TRIPOS>BOND
     1    1    2 1
     2    1   25 1
     3    1   26 1
     4    1   27 1
     5    2    3 1
     6    2   28 1
     7    2   29 1
     8    3    4 1
     9    4    9 ar
    10    4    5 ar
    11    5    6 ar
    12    5   30 1
    13    6    7 ar
    14    6   31 1
    15    7    8 ar
    16    7   32 1
    17    8    9 ar
    18    8   33 1
    19    9   10 1
    20   10   11 1
    21   11   12 1
    22   11   13 1
    23   11   19 1
    24   13   18 ar
    25   13   14 ar
    26   14   15 ar
    27   14   34 1
    28   15   16 ar
    29   15   35 1
    30   16   17 ar
    31   16   36 1
    32   17   18 ar
    33   17   37 1
    34   18   38 1
    35   19   20 1
    36   19   24 1
    37   19   21 1
    38   21   39 1
    39   21   40 1
    40   21   45 1
    41   22   23 1
    42   22   41 1
    43   22   42 1
    44   22   45 1
    45   23   24 1
    46   23   43 1
    47   23   44 1
    48   45   46 1
    49   45   47 1
