@<TRIPOS>MOLECULE
ZINC03588816
   14    15     0     0     0
SMALL
USER_CHARGES
1,2-benzoxazol-3-ol
@<TRIPOS>ATOM
      1 C1         -0.0126    1.0758    0.0080 C.ar      1 <0>        -0.1853
      2 C2          1.1825    1.7808    0.0003 C.ar      1 <0>        -0.0822
      3 C3          1.1836    3.1589    0.0073 C.ar      1 <0>        -0.1537
      4 C4         -0.0219    3.8504    0.0220 C.ar      1 <0>         0.0882
      5 C5         -1.2283    3.1332    0.0297 C.ar      1 <0>        -0.2205
      6 C6         -1.2082    1.7379    0.0172 C.ar      1 <0>        -0.0329
      7 C7         -2.3054    4.1332    0.0453 C.2       1 <0>         0.3812
      8 N1         -1.7428    5.3077    0.0462 N.2       1 <0>        -0.4396
      9 O1         -0.3370    5.1617    0.0320 O.3       1 <0>        -0.1372
     10 O2         -3.6375    3.8798    0.0566 O.3       1 <0>        -0.7005
     11 H1          0.0021   -0.0041    0.0020 H         1 <0>         0.1174
     12 H2          2.1200    1.2448   -0.0108 H         1 <0>         0.1225
     13 H3          2.1183    3.6998    0.0016 H         1 <0>         0.1226
     14 H4         -2.1346    1.1829    0.0190 H         1 <0>         0.1200
@<TRIPOS>BOND
     1    1    6 ar
     2    1    2 ar
     3    1   11 1
     4    2    3 ar
     5    2   12 1
     6    3    4 ar
     7    3   13 1
     8    4    9 1
     9    4    5 ar
    10    5    6 ar
    11    5    7 1
    12    6   14 1
    13    7    8 2
    14    7   10 1
    15    8    9 1
@<TRIPOS>MOLECULE
ZINC15923721
   14    15     0     0     0
SMALL
USER_CHARGES

@<TRIPOS>ATOM
      1 C1         -0.0168    1.3841    0.0097 C.ar      1 <0>        -0.1729
      2 C2          1.1516    2.0932    0.0023 C.ar      1 <0>        -0.0198
      3 C3          2.3728    1.4185   -0.0130 C.ar      1 <0>        -0.2139
      4 C4          2.3973    0.0146   -0.0208 C.ar      1 <0>         0.1009
      5 C5          1.1997   -0.6892   -0.0131 C.ar      1 <0>        -0.1436
      6 C6          0.0021   -0.0041    0.0020 C.ar      1 <0>         0.0074
      7 Cl1        -1.4936   -0.8853    0.0116 Cl        1 <0>        -0.0795
      8 O1          3.6923   -0.3618   -0.0356 O.3       1 <0>        -0.1302
      9 N1          4.5161    0.7867   -0.0376 N.2       1 <0>        -0.4329
     10 C7          3.7752    1.8578   -0.0245 C.2       1 <0>         0.3831
     11 O2          4.2160    3.1402   -0.0226 O.3       1 <0>        -0.6947
     12 H1         -0.9614    1.9074    0.0260 H         1 <0>         0.1298
     13 H2          1.1297    3.1730    0.0080 H         1 <0>         0.1319
     14 H3          1.2060   -1.7691   -0.0194 H         1 <0>         0.1346
@<TRIPOS>BOND
     1    1    6 ar
     2    1    2 ar
     3    1   12 1
     4    2    3 ar
     5    2   13 1
     6    3   10 1
     7    3    4 ar
     8    4    5 ar
     9    4    8 1
    10    5    6 ar
    11    5   14 1
    12    6    7 1
    13    8    9 1
    14    9   10 2
    15   10   11 1
@<TRIPOS>MOLECULE
ZINC14980227
   14    15     0     0     0
SMALL
USER_CHARGES

@<TRIPOS>ATOM
      1 C1         -0.0167    1.3838    0.0097 C.ar      1 <0>        -0.0515
      2 C2          1.1601    2.1010    0.0023 C.ar      1 <0>        -0.1471
      3 C3          2.3787    1.4340   -0.0129 C.ar      1 <0>         0.1056
      4 C4          2.3994    0.0305   -0.0206 C.ar      1 <0>        -0.2152
      5 C5          1.2006   -0.6834   -0.0134 C.ar      1 <0>         0.0016
      6 C6          0.0021   -0.0041    0.0020 C.ar      1 <0>        -0.1513
      7 Br1        -1.6253   -0.9672    0.0123 Br        1 <0>        -0.0705
      8 C7          3.8153   -0.3639   -0.0362 C.2       1 <0>         0.3857
      9 O1          4.2967   -1.6315   -0.0480 O.3       1 <0>        -0.6923
     10 N1          4.5215    0.7303   -0.0371 N.2       1 <0>        -0.4340
     11 O2          3.6614    1.8517   -0.0229 O.3       1 <0>        -0.1300
     12 H1         -0.9618    1.9063    0.0260 H         1 <0>         0.1337
     13 H2          1.1351    3.1807    0.0079 H         1 <0>         0.1334
     14 H3          1.2122   -1.7633   -0.0191 H         1 <0>         0.1318
@<TRIPOS>BOND
     1    1    6 ar
     2    1    2 ar
     3    1   12 1
     4    2    3 ar
     5    2   13 1
     6    3   11 1
     7    3    4 ar
     8    4    5 ar
     9    4    8 1
    10    5    6 ar
    11    5   14 1
    12    6    7 1
    13    8    9 1
    14    8   10 2
    15   10   11 1
@<TRIPOS>MOLECULE
ZINC14980238
   17    18     0     0     0
SMALL
USER_CHARGES

@<TRIPOS>ATOM
      1 C1         -0.0184    1.5028    0.0103 C.3       1 <0>        -0.1061
      2 C2          0.0021   -0.0041    0.0020 C.ar      1 <0>        -0.0533
      3 C3          0.0056   -0.6851   -1.2068 C.ar      1 <0>        -0.1829
      4 C4          0.0236   -2.0515   -1.2329 C.ar      1 <0>        -0.0294
      5 C5          0.0390   -2.7680   -0.0355 C.ar      1 <0>        -0.2243
      6 C6          0.0360   -2.0833    1.1897 C.ar      1 <0>         0.0923
      7 C7          0.0228   -0.6935    1.1952 C.ar      1 <0>        -0.1539
      8 O1          0.0531   -3.0129    2.1665 O.3       1 <0>        -0.1374
      9 N1          0.0674   -4.3027    1.5884 N.2       1 <0>        -0.4402
     10 C8          0.0596   -4.2011    0.2901 C.2       1 <0>         0.3819
     11 O2          0.0684   -5.2270   -0.5967 O.3       1 <0>        -0.7010
     12 H1          1.0042    1.8801    0.0026 H         1 <0>         0.0673
     13 H2         -0.5455    1.8639   -0.8728 H         1 <0>         0.0638
     14 H3         -0.5286    1.8543    0.9071 H         1 <0>         0.0634
     15 H4         -0.0063   -0.1314   -2.1340 H         1 <0>         0.1172
     16 H5          0.0255   -2.5751   -2.1774 H         1 <0>         0.1205
     17 H6          0.0243   -0.1555    2.1317 H         1 <0>         0.1221
@<TRIPOS>BOND
     1    1    2 1
     2    1   12 1
     3    1   13 1
     4    1   14 1
     5    2    7 ar
     6    2    3 ar
     7    3    4 ar
     8    3   15 1
     9    4    5 ar
    10    4   16 1
    11    5   10 1
    12    5    6 ar
    13    6    7 ar
    14    6    8 1
    15    7   17 1
    16    8    9 1
    17    9   10 2
    18   10   11 1
@<TRIPOS>MOLECULE
ZINC14980233
   16    17     0     0     0
SMALL
USER_CHARGES

@<TRIPOS>ATOM
      1 C1         -0.0167    1.3831    0.0096 C.ar      1 <0>        -0.0209
      2 C2          1.1601    2.1005    0.0023 C.ar      1 <0>        -0.1457
      3 C3          2.3786    1.4334   -0.0129 C.ar      1 <0>         0.1383
      4 C4          2.3988    0.0298   -0.0206 C.ar      1 <0>        -0.2218
      5 C5          1.1997   -0.6835   -0.0130 C.ar      1 <0>         0.0416
      6 C6          0.0021   -0.0041    0.0020 C.ar      1 <0>        -0.1154
      7 N1         -1.2719   -0.7577    0.0106 N.pl3     1 <0>         0.0520
      8 O1         -2.3251   -0.1644    0.0242 O.2       1 <0>        -0.1810
      9 O2         -1.2591   -1.9666    0.0040 O.3       1 <0>        -0.1776
     10 C7          3.8145   -0.3650   -0.0362 C.2       1 <0>         0.3916
     11 O3          4.2955   -1.6328   -0.0480 O.3       1 <0>        -0.6775
     12 N2          4.5211    0.7289   -0.0371 N.2       1 <0>        -0.4247
     13 O4          3.6613    1.8506   -0.0229 O.3       1 <0>        -0.1156
     14 H1         -0.9619    1.9054    0.0260 H         1 <0>         0.1545
     15 H2          1.1350    3.1802    0.0079 H         1 <0>         0.1493
     16 H3          1.2107   -1.7634   -0.0192 H         1 <0>         0.1529
@<TRIPOS>BOND
     1    1    6 ar
     2    1    2 ar
     3    1   14 1
     4    2    3 ar
     5    2   15 1
     6    3   13 1
     7    3    4 ar
     8    4    5 ar
     9    4   10 1
    10    5    6 ar
    11    5   16 1
    12    6    7 1
    13    7    8 2
    14    7    9 1
    15   10   11 1
    16   10   12 2
    17   12   13 1
@<TRIPOS>MOLECULE
ZINC14980235
   14    15     0     0     0
SMALL
USER_CHARGES

@<TRIPOS>ATOM
      1 C1         -0.0168    1.3853    0.0097 C.ar      1 <0>        -0.2136
      2 C2          1.1515    2.0940    0.0023 C.ar      1 <0>        -0.0039
      3 C3          2.3729    1.4192   -0.0130 C.ar      1 <0>        -0.2281
      4 C4          2.3979    0.0153   -0.0208 C.ar      1 <0>         0.1157
      5 C5          1.2011   -0.6892   -0.0132 C.ar      1 <0>        -0.1885
      6 C6          0.0021   -0.0041    0.0020 C.ar      1 <0>         0.1340
      7 F1         -1.1617   -0.6901    0.0095 F         1 <0>        -0.1421
      8 O1          3.6931   -0.3606   -0.0352 O.3       1 <0>        -0.1298
      9 N1          4.5164    0.7882   -0.0369 N.2       1 <0>        -0.4346
     10 C7          3.7750    1.8590   -0.0240 C.2       1 <0>         0.3853
     11 O2          4.2152    3.1416   -0.0222 O.3       1 <0>        -0.6948
     12 H1         -0.9613    1.9087    0.0260 H         1 <0>         0.1316
     13 H2          1.1297    3.1738    0.0080 H         1 <0>         0.1326
     14 H3          1.2080   -1.7691   -0.0194 H         1 <0>         0.1363
@<TRIPOS>BOND
     1    1    6 ar
     2    1    2 ar
     3    1   12 1
     4    2    3 ar
     5    2   13 1
     6    3   10 1
     7    3    4 ar
     8    4    5 ar
     9    4    8 1
    10    5    6 ar
    11    5   14 1
    12    6    7 1
    13    8    9 1
    14    9   10 2
    15   10   11 1
@<TRIPOS>MOLECULE
ZINC14980224
   14    15     0     0     0
SMALL
USER_CHARGES

@<TRIPOS>ATOM
      1 C1         -0.0167    1.3823    0.0096 C.ar      1 <0>        -0.0523
      2 C2          1.1600    2.1006    0.0023 C.ar      1 <0>        -0.1661
      3 C3          2.3795    1.4355   -0.0130 C.ar      1 <0>         0.1195
      4 C4          2.4024    0.0321   -0.0208 C.ar      1 <0>        -0.2619
      5 C5          1.2026   -0.6842   -0.0135 C.ar      1 <0>         0.1842
      6 C6          0.0021   -0.0041    0.0020 C.ar      1 <0>        -0.2233
      7 F1          1.2179   -2.0351   -0.0213 F         1 <0>        -0.1306
      8 C7          3.8181   -0.3603   -0.0364 C.2       1 <0>         0.3891
      9 O1          4.3010   -1.6273   -0.0485 O.3       1 <0>        -0.6885
     10 N1          4.5232    0.7350   -0.0373 N.2       1 <0>        -0.4354
     11 O2          3.6615    1.8552   -0.0230 O.3       1 <0>        -0.1301
     12 H1         -0.9620    1.9044    0.0260 H         1 <0>         0.1341
     13 H2          1.1337    3.1802    0.0080 H         1 <0>         0.1301
     14 H3         -0.9273   -0.5542    0.0080 H         1 <0>         0.1312
@<TRIPOS>BOND
     1    1    6 ar
     2    1    2 ar
     3    1   12 1
     4    2    3 ar
     5    2   13 1
     6    3   11 1
     7    3    4 ar
     8    4    5 ar
     9    4    8 1
    10    5    6 ar
    11    5    7 1
    12    6   14 1
    13    8    9 1
    14    8   10 2
    15   10   11 1
