@<TRIPOS>MOLECULE
ZINC09592675
   18    19     0     0     0
SMALL
USER_CHARGES

@<TRIPOS>ATOM
      1 C1         -0.0164    1.3615    0.0095 C.ar      1 <0>        -0.1322
      2 C2          1.1693    2.0832    0.0021 C.ar      1 <0>        -0.1522
      3 C3          2.3855    1.4358   -0.0130 C.ar      1 <0>        -0.1388
      4 C4          2.4295    0.0443   -0.0209 C.ar      1 <0>         0.0947
      5 C5          1.2261   -0.6835   -0.0134 C.ar      1 <0>         0.0015
      6 C6          0.0021   -0.0041    0.0020 C.ar      1 <0>        -0.1281
      7 C7          1.2681   -2.1469   -0.0217 C.2       1 <0>        -0.3706
      8 C8          2.4786   -2.7646   -0.0366 C.2       1 <0>         0.2265
      9 C9          3.6987   -1.9602   -0.0439 C.2       1 <0>         0.4990
     10 O1          4.7840   -2.5144   -0.0572 O.2       1 <0>        -0.5450
     11 N1          3.6400   -0.6166   -0.0365 N.am      1 <0>        -0.6326
     12 H1          4.4632   -0.1036   -0.0419 H         1 <0>         0.3951
     13 O2          2.5539   -4.1222   -0.0442 O.3       1 <0>        -0.6762
     14 H2         -0.9614    1.8842    0.0259 H         1 <0>         0.1087
     15 H3          1.1383    3.1627    0.0078 H         1 <0>         0.1102
     16 H4          3.3024    2.0064   -0.0191 H         1 <0>         0.1130
     17 H5         -0.9249   -0.5583    0.0076 H         1 <0>         0.1163
     18 H6          0.3553   -2.7241   -0.0157 H         1 <0>         0.1107
@<TRIPOS>BOND
     1    1    6 ar
     2    1    2 ar
     3    1   14 1
     4    2    3 ar
     5    2   15 1
     6    3    4 ar
     7    3   16 1
     8    4   11 1
     9    4    5 ar
    10    5    6 ar
    11    5    7 1
    12    6   17 1
    13    7    8 2
    14    7   18 1
    15    8    9 1
    16    8   13 1
    17    9   10 2
    18    9   11 am
    19   11   12 1
@<TRIPOS>MOLECULE
ZINC40878304
   17    18     0     0     0
SMALL
USER_CHARGES

@<TRIPOS>ATOM
      1 C1         -0.0164    1.3557    0.0095 C.2       1 <0>        -0.3617
      2 C2          1.2580    2.0729    0.0012 C.ar      1 <0>        -0.0006
      3 C3          1.2941    3.4754    0.0088 C.ar      1 <0>        -0.0634
      4 C4          2.5328    4.0945    0.0008 C.ar      1 <0>         0.0503
      5 C5          3.6820    3.3167   -0.0145 C.ar      1 <0>         0.0489
      6 N1          3.6235    2.0014   -0.0218 N.ar      1 <0>        -0.4704
      7 C6          2.4661    1.3521   -0.0142 C.ar      1 <0>         0.2978
      8 N2          2.4441   -0.0249   -0.0223 N.am      1 <0>        -0.6150
      9 H1          3.2817   -0.5140   -0.0326 H         1 <0>         0.4068
     10 C7          1.2841   -0.7043   -0.0158 C.2       1 <0>         0.5081
     11 O1          1.3023   -1.9228   -0.0229 O.2       1 <0>        -0.5236
     12 C8          0.0021   -0.0041    0.0020 C.2       1 <0>         0.2477
     13 O2         -1.1626   -0.7058    0.0098 O.3       1 <0>        -0.6433
     14 F1          2.6216    5.4426    0.0072 F         1 <0>        -0.1311
     15 Cl1        -0.1707    4.4070    0.0273 Cl        1 <0>        -0.0441
     16 H2         -0.9523    1.8945    0.0258 H         1 <0>         0.1272
     17 H3          4.6469    3.8017   -0.0208 H         1 <0>         0.1664
@<TRIPOS>BOND
     1    1   12 2
     2    1    2 1
     3    1   16 1
     4    2    7 ar
     5    2    3 ar
     6    3    4 ar
     7    3   15 1
     8    4    5 ar
     9    4   14 1
    10    5    6 ar
    11    5   17 1
    12    6    7 ar
    13    7    8 1
    14    8    9 1
    15    8   10 am
    16   10   11 2
    17   10   12 1
    18   12   13 1
@<TRIPOS>MOLECULE
ZINC40878304
   18    19     0     0     0
SMALL
USER_CHARGES

@<TRIPOS>ATOM
      1 C1         -0.0164    1.3557    0.0095 C.2       1 <0>        -0.1069
      2 C2          1.2580    2.0729    0.0012 C.ar      1 <0>        -0.0957
      3 C3          1.2941    3.4754    0.0088 C.ar      1 <0>         0.0063
      4 C4          2.5328    4.0945    0.0008 C.ar      1 <0>         0.0425
      5 C5          3.6820    3.3167   -0.0145 C.ar      1 <0>         0.1438
      6 N1          3.6235    2.0014   -0.0218 N.ar      1 <0>        -0.4736
      7 C6          2.4661    1.3521   -0.0142 C.ar      1 <0>         0.3566
      8 N2          2.4441   -0.0249   -0.0223 N.am      1 <0>        -0.5998
      9 C7          1.2841   -0.7043   -0.0158 C.2       1 <0>         0.5238
     10 O1          1.3023   -1.9228   -0.0229 O.2       1 <0>        -0.5110
     11 C8          0.0021   -0.0041    0.0020 C.2       1 <0>         0.0720
     12 O2         -1.1626   -0.7058    0.0098 O.3       1 <0>        -0.4439
     13 F1          2.6216    5.4426    0.0072 F         1 <0>        -0.1089
     14 Cl1        -0.1707    4.4070    0.0273 Cl        1 <0>        -0.0039
     15 H1         -0.9523    1.8945    0.0258 H         1 <0>         0.1618
     16 H2          4.6469    3.8017   -0.0208 H         1 <0>         0.1918
     17 H3         -1.0437   -1.6655    0.0035 H         1 <0>         0.4135
     18 H4          3.2817   -0.5140   -0.0332 H         1 <0>         0.4315
@<TRIPOS>BOND
     1    1   11 2
     2    1    2 1
     3    1   15 1
     4    2    7 ar
     5    2    3 ar
     6    3    4 ar
     7    3   14 1
     8    4    5 ar
     9    4   13 1
    10    5    6 ar
    11    5   16 1
    12    6    7 ar
    13    7    8 1
    14    8    9 am
    15    8   18 1
    16    9   10 2
    17    9   11 1
    18   11   12 1
    19   12   17 1
@<TRIPOS>MOLECULE
ZINC32915163
   18    19     0     0     0
SMALL
USER_CHARGES
3-hydroxy-1H-1,8-naphthyridin-2-one
@<TRIPOS>ATOM
      1 C1          1.2385    6.0086    0.0199 C.ar      1 <0>        -0.1953
      2 C2          0.0018    5.3924    0.0293 C.ar      1 <0>        -0.0254
      3 C3         -0.0370    3.9917    0.0234 C.ar      1 <0>        -0.1319
      4 C4         -1.3127    3.2761    0.0322 C.2       1 <0>        -0.1110
      5 C5         -1.2961    1.9166    0.0187 C.2       1 <0>         0.0674
      6 C6         -0.0144    1.2144    0.0087 C.2       1 <0>         0.5238
      7 O1          0.0021   -0.0041    0.0020 O.2       1 <0>        -0.5291
      8 N1          1.1464    1.8921    0.0013 N.am      1 <0>        -0.6196
      9 H1          2.1016    1.3467   -0.0103 H         1 <0>         0.4530
     10 C7          1.1705    3.2684    0.0080 C.ar      1 <0>         0.3522
     11 N2          2.3283    3.9165   -0.0005 N.ar      1 <0>        -0.5102
     12 C8          2.3864    5.2317    0.0052 C.ar      1 <0>         0.1499
     13 O2         -2.4616    1.2164    0.0200 O.3       1 <0>        -0.4840
     14 H2          1.3102    7.0862    0.0243 H         1 <0>         0.1457
     15 H3         -0.9085    5.9734    0.0404 H         1 <0>         0.1482
     16 H4         -2.2479    3.8162    0.0440 H         1 <0>         0.1515
     17 H5          3.3513    5.7168   -0.0022 H         1 <0>         0.1674
     18 H6         -2.4425    0.1166    0.0090 H         1 <0>         0.4475
@<TRIPOS>BOND
     1    1   12 ar
     2    1    2 ar
     3    1   14 1
     4    2    3 ar
     5    2   15 1
     6    3   10 ar
     7    3    4 1
     8    4    5 2
     9    4   16 1
    10    5    6 1
    11    5   13 1
    12    6    7 2
    13    6    8 am
    14    8    9 1
    15    8   10 1
    16   10   11 ar
    17   11   12 ar
    18   12   17 1
    19   13   18 1
@<TRIPOS>MOLECULE
ZINC04234975
   15    16     0     0     0
SMALL
USER_CHARGES
4H-furo[2,3-d]pyrrole-5-carboxylic acid
@<TRIPOS>ATOM
      1 C1         -1.1209    1.8374    0.0168 C.2       1 <0>        -0.1917
      2 C2         -0.0126    1.0758    0.0080 C.2       1 <0>        -0.0252
      3 O1          1.0738    1.8666    0.0018 O.3       1 <0>        -0.1758
      4 C3          0.6917    3.1627    0.0116 C.2       1 <0>        -0.0338
      5 C4         -0.6998    3.1875    0.0245 C.2       1 <0>        -0.0366
      6 N1         -1.1030    4.4977    0.0338 N.pl3     1 <0>        -0.5197
      7 H1         -2.0221    4.8077    0.0433 H         1 <0>         0.4217
      8 C5          0.0205    5.3025    0.0270 C.2       1 <0>         0.0622
      9 C6          1.1342    4.4895    0.0136 C.2       1 <0>        -0.1502
     10 C7          0.0271    6.7654    0.0329 C.2       1 <0>         0.5158
     11 O2          1.0833    7.3689    0.0258 O.co2     1 <0>        -0.6100
     12 H2         -2.1415    1.4841    0.0197 H         1 <0>         0.1443
     13 H3          0.0021   -0.0041    0.0020 H         1 <0>         0.2025
     14 H4          2.1630    4.8182    0.0058 H         1 <0>         0.1493
     15 O3         -1.1384    7.4452    0.0462 O.co2     1 <0>        -0.7529
@<TRIPOS>BOND
     1    1    5 1
     2    1    2 2
     3    1   12 1
     4    2    3 1
     5    2   13 1
     6    3    4 1
     7    4    9 1
     8    4    5 2
     9    5    6 1
    10    6    7 1
    11    6    8 1
    12    8    9 2
    13    8   10 1
    14    9   14 1
    15   10   11 2
    16   10   15 1
@<TRIPOS>MOLECULE
ZINC40430394
   19    20     0     0     0
SMALL
USER_CHARGES

@<TRIPOS>ATOM
      1 C1         -0.0167    1.3835    0.0096 C.ar      1 <0>        -0.1105
      2 C2          1.1497    2.0941    0.0023 C.ar      1 <0>        -0.0741
      3 C3          2.3766    1.4198   -0.0130 C.ar      1 <0>        -0.0628
      4 C4          3.6376    2.1637   -0.0200 C.2       1 <0>        -0.1014
      5 C5          4.8052    1.4685   -0.0340 C.2       1 <0>         0.0545
      6 C6          4.7748    0.0074   -0.0417 C.2       1 <0>         0.5159
      7 O1          5.8222   -0.6157   -0.0539 O.2       1 <0>        -0.5269
      8 N1          3.6066   -0.6589   -0.0351 N.am      1 <0>        -0.6152
      9 H1          3.6109   -1.6289   -0.0402 H         1 <0>         0.4240
     10 C7          2.4016    0.0140   -0.0209 C.ar      1 <0>         0.1246
     11 C8          1.1990   -0.6906   -0.0142 C.ar      1 <0>         0.0663
     12 C9          0.0021   -0.0041    0.0020 C.ar      1 <0>        -0.1118
     13 F1          1.2051   -2.0416   -0.0214 F         1 <0>        -0.1322
     14 O2          5.9941    2.1281   -0.0412 O.3       1 <0>        -0.4515
     15 H2         -0.9618    1.9060    0.0260 H         1 <0>         0.1427
     16 H3          1.1256    3.1738    0.0080 H         1 <0>         0.1449
     17 H4          3.6399    3.2437   -0.0144 H         1 <0>         0.1569
     18 H5         -0.9287   -0.5517    0.0084 H         1 <0>         0.1462
     19 H6          6.7666    1.5464   -0.0511 H         1 <0>         0.4105
@<TRIPOS>BOND
     1    1   12 ar
     2    1    2 ar
     3    1   15 1
     4    2    3 ar
     5    2   16 1
     6    3   10 ar
     7    3    4 1
     8    4    5 2
     9    4   17 1
    10    5    6 1
    11    5   14 1
    12    6    7 2
    13    6    8 am
    14    8    9 1
    15    8   10 1
    16   10   11 ar
    17   11   12 ar
    18   11   13 1
    19   12   18 1
    20   14   19 1
@<TRIPOS>MOLECULE
ZINC40954935
   22    23     0     0     0
SMALL
USER_CHARGES

@<TRIPOS>ATOM
      1 C1         -0.0184    1.5028    0.0103 C.3       1 <0>        -0.1232
      2 C2          0.0021   -0.0041    0.0020 C.ar      1 <0>        -0.0310
      3 C3          0.0058   -0.6825   -1.1836 C.ar      1 <0>        -0.1418
      4 C4          0.0250   -2.0700   -1.2023 C.ar      1 <0>        -0.0714
      5 C5          0.0403   -2.7882   -0.0261 C.ar      1 <0>        -0.1590
      6 C6          0.0369   -2.1189    1.1942 C.ar      1 <0>         0.1597
      7 C7          0.0232   -0.7123    1.2090 C.ar      1 <0>        -0.0920
      8 C8          0.0247   -0.0046    2.4907 C.2       1 <0>        -0.0973
      9 C9          0.0451   -0.7328    3.6380 C.2       1 <0>         0.0418
     10 C10         0.0649   -2.1923    3.5656 C.2       1 <0>         0.5146
     11 O1          0.0832   -2.8450    4.5947 O.2       1 <0>        -0.5340
     12 N1          0.0520   -2.8252    2.3789 N.am      1 <0>        -0.6167
     13 H1          0.0651   -3.7948    2.3557 H         1 <0>         0.4207
     14 O2          0.0475   -0.1075    4.8453 O.3       1 <0>        -0.4550
     15 H2          1.0042    1.8801    0.0026 H         1 <0>         0.0790
     16 H3         -0.5455    1.8639   -0.8728 H         1 <0>         0.0746
     17 H4         -0.5286    1.8543    0.9071 H         1 <0>         0.0730
     18 H5         -0.0067   -0.1346   -2.1142 H         1 <0>         0.1310
     19 H6          0.0277   -2.5920   -2.1477 H         1 <0>         0.1332
     20 H7          0.0545   -3.8678   -0.0513 H         1 <0>         0.1336
     21 H8          0.0102    1.0748    2.5238 H         1 <0>         0.1520
     22 H9          0.0627   -0.7110    5.6007 H         1 <0>         0.4084
@<TRIPOS>BOND
     1    1    2 1
     2    1   15 1
     3    1   16 1
     4    1   17 1
     5    2    7 ar
     6    2    3 ar
     7    3    4 ar
     8    3   18 1
     9    4    5 ar
    10    4   19 1
    11    5    6 ar
    12    5   20 1
    13    6   12 1
    14    6    7 ar
    15    7    8 1
    16    8    9 2
    17    8   21 1
    18    9   10 1
    19    9   14 1
    20   10   11 2
    21   10   12 am
    22   12   13 1
    23   14   22 1
@<TRIPOS>MOLECULE
ZINC40379543
   19    20     0     0     0
SMALL
USER_CHARGES

@<TRIPOS>ATOM
      1 C1         -0.0168    1.3857    0.0097 C.ar      1 <0>        -0.1112
      2 C2          1.1591    2.1036    0.0023 C.ar      1 <0>        -0.1202
      3 C3          2.3811    1.4382   -0.0130 C.ar      1 <0>         0.1448
      4 C4          2.4034    0.0317   -0.0208 C.ar      1 <0>        -0.0596
      5 C5          1.2004   -0.6839   -0.0136 C.ar      1 <0>        -0.1033
      6 C6          0.0021   -0.0041    0.0020 C.ar      1 <0>         0.0829
      7 F1         -1.1607   -0.6919    0.0095 F         1 <0>        -0.1338
      8 C7          3.6885   -0.6695   -0.0369 C.2       1 <0>        -0.1027
      9 C8          4.8323    0.0642   -0.0439 C.2       1 <0>         0.0544
     10 C9          4.7531    1.5234   -0.0352 C.2       1 <0>         0.5147
     11 O1          5.7791    2.1812   -0.0419 O.2       1 <0>        -0.5287
     12 N1          3.5635    2.1504   -0.0209 N.am      1 <0>        -0.6152
     13 H1          3.5358    3.1200   -0.0157 H         1 <0>         0.4227
     14 O2          6.0426   -0.5553   -0.0584 O.3       1 <0>        -0.4519
     15 H2         -0.9621    1.9078    0.0260 H         1 <0>         0.1466
     16 H3          1.1325    3.1833    0.0080 H         1 <0>         0.1452
     17 H4          1.2114   -1.7638   -0.0198 H         1 <0>         0.1504
     18 H5          3.7266   -1.7488   -0.0428 H         1 <0>         0.1546
     19 H6          6.7952    0.0519   -0.0624 H         1 <0>         0.4103
@<TRIPOS>BOND
     1    1    6 ar
     2    1    2 ar
     3    1   15 1
     4    2    3 ar
     5    2   16 1
     6    3   12 1
     7    3    4 ar
     8    4    5 ar
     9    4    8 1
    10    5    6 ar
    11    5   17 1
    12    6    7 1
    13    8    9 2
    14    8   18 1
    15    9   10 1
    16    9   14 1
    17   10   11 2
    18   10   12 am
    19   12   13 1
    20   14   19 1
