@<TRIPOS>MOLECULE
ZINC09592675
   18    19     0     0     0
SMALL
USER_CHARGES

@<TRIPOS>ATOM
      1 C1         -0.0164    1.3615    0.0095 C.ar      1 <0>        -0.1322
      2 C2          1.1693    2.0832    0.0021 C.ar      1 <0>        -0.1522
      3 C3          2.3855    1.4358   -0.0130 C.ar      1 <0>        -0.1388
      4 C4          2.4295    0.0443   -0.0209 C.ar      1 <0>         0.0947
      5 C5          1.2261   -0.6835   -0.0134 C.ar      1 <0>         0.0015
      6 C6          0.0021   -0.0041    0.0020 C.ar      1 <0>        -0.1281
      7 C7          1.2681   -2.1469   -0.0217 C.2       1 <0>        -0.3706
      8 C8          2.4786   -2.7646   -0.0366 C.2       1 <0>         0.2265
      9 C9          3.6987   -1.9602   -0.0439 C.2       1 <0>         0.4990
     10 O1          4.7840   -2.5144   -0.0572 O.2       1 <0>        -0.5450
     11 N1          3.6400   -0.6166   -0.0365 N.am      1 <0>        -0.6326
     12 H1          4.4632   -0.1036   -0.0419 H         1 <0>         0.3951
     13 O2          2.5539   -4.1222   -0.0442 O.3       1 <0>        -0.6762
     14 H2         -0.9614    1.8842    0.0259 H         1 <0>         0.1087
     15 H3          1.1383    3.1627    0.0078 H         1 <0>         0.1102
     16 H4          3.3024    2.0064   -0.0191 H         1 <0>         0.1130
     17 H5         -0.9249   -0.5583    0.0076 H         1 <0>         0.1163
     18 H6          0.3553   -2.7241   -0.0157 H         1 <0>         0.1107
@<TRIPOS>BOND
     1    1    6 ar
     2    1    2 ar
     3    1   14 1
     4    2    3 ar
     5    2   15 1
     6    3    4 ar
     7    3   16 1
     8    4   11 1
     9    4    5 ar
    10    5    6 ar
    11    5    7 1
    12    6   17 1
    13    7    8 2
    14    7   18 1
    15    8    9 1
    16    8   13 1
    17    9   10 2
    18    9   11 am
    19   11   12 1
@<TRIPOS>MOLECULE
ZINC40430394
   19    20     0     0     0
SMALL
USER_CHARGES

@<TRIPOS>ATOM
      1 C1         -0.0167    1.3835    0.0096 C.ar      1 <0>        -0.1105
      2 C2          1.1497    2.0941    0.0023 C.ar      1 <0>        -0.0741
      3 C3          2.3766    1.4198   -0.0130 C.ar      1 <0>        -0.0628
      4 C4          3.6376    2.1637   -0.0200 C.2       1 <0>        -0.1014
      5 C5          4.8052    1.4685   -0.0340 C.2       1 <0>         0.0545
      6 C6          4.7748    0.0074   -0.0417 C.2       1 <0>         0.5159
      7 O1          5.8222   -0.6157   -0.0539 O.2       1 <0>        -0.5269
      8 N1          3.6066   -0.6589   -0.0351 N.am      1 <0>        -0.6152
      9 H1          3.6109   -1.6289   -0.0402 H         1 <0>         0.4240
     10 C7          2.4016    0.0140   -0.0209 C.ar      1 <0>         0.1246
     11 C8          1.1990   -0.6906   -0.0142 C.ar      1 <0>         0.0663
     12 C9          0.0021   -0.0041    0.0020 C.ar      1 <0>        -0.1118
     13 F1          1.2051   -2.0416   -0.0214 F         1 <0>        -0.1322
     14 O2          5.9941    2.1281   -0.0412 O.3       1 <0>        -0.4515
     15 H2         -0.9618    1.9060    0.0260 H         1 <0>         0.1427
     16 H3          1.1256    3.1738    0.0080 H         1 <0>         0.1449
     17 H4          3.6399    3.2437   -0.0144 H         1 <0>         0.1569
     18 H5         -0.9287   -0.5517    0.0084 H         1 <0>         0.1462
     19 H6          6.7666    1.5464   -0.0511 H         1 <0>         0.4105
@<TRIPOS>BOND
     1    1   12 ar
     2    1    2 ar
     3    1   15 1
     4    2    3 ar
     5    2   16 1
     6    3   10 ar
     7    3    4 1
     8    4    5 2
     9    4   17 1
    10    5    6 1
    11    5   14 1
    12    6    7 2
    13    6    8 am
    14    8    9 1
    15    8   10 1
    16   10   11 ar
    17   11   12 ar
    18   11   13 1
    19   12   18 1
    20   14   19 1
