@<TRIPOS>MOLECULE
ZINC06070257
   56    58     0     0     0
SMALL
USER_CHARGES

@<TRIPOS>ATOM
      1 C1         -0.0338    1.3438    0.7403 C.3       1 <0>        -0.1175
      2 C2         -0.0284   -0.1566    0.6002 C.ar      1 <0>        -0.0687
      3 C3         -0.0412   -0.7311   -0.6589 C.ar      1 <0>        -0.0863
      4 C4         -0.0122   -2.0975   -0.7946 C.ar      1 <0>        -0.1222
      5 C5          0.0851   -2.9095    0.3503 C.ar      1 <0>         0.0645
      6 C6          0.0414   -2.3346    1.6063 C.ar      1 <0>         0.1165
      7 C7         -0.0049   -0.9533    1.7300 C.ar      1 <0>        -0.1204
      8 O1          0.0486   -3.1196    2.7167 O.3       1 <0>        -0.4871
      9 O2          0.3602   -4.2294    0.1595 O.3       1 <0>        -0.2538
     10 C8         -0.5594   -4.9759   -0.5033 C.ar      1 <0>         0.1357
     11 C9         -1.7235   -5.4095    0.1022 C.ar      1 <0>        -0.1329
     12 C10        -2.6311   -6.1687   -0.6159 C.ar      1 <0>        -0.0406
     13 C11        -2.3906   -6.5025   -1.9361 C.ar      1 <0>        -0.1134
     14 C12        -1.2273   -6.0773   -2.5646 C.ar      1 <0>         0.1730
     15 C13        -0.3103   -5.3120   -1.8459 C.ar      1 <0>        -0.2105
     16 C14         0.9499   -4.8161   -2.4491 C.2       1 <0>         0.5403
     17 O3          1.8002   -5.5595   -2.8981 O.2       1 <0>        -0.4334
     18 O4          1.0784   -3.4521   -2.4598 O.3       1 <0>        -0.3200
     19 C15        -0.1505   -2.7746   -2.1360 C.3       1 <0>         0.0808
     20 O5         -0.9869   -6.4022   -3.8595 O.3       1 <0>        -0.3289
     21 C16        -0.3019   -7.6324   -4.1033 C.3       1 <0>         0.0319
     22 C17        -3.3948   -7.3303   -2.6959 C.3       1 <0>         0.1323
     23 H1         -2.8727   -7.9829   -3.3956 H         1 <0>         0.1037
     24 C18        -4.3383   -6.4057   -3.4679 C.3       1 <0>        -0.1265
     25 C19        -5.2453   -7.2424   -4.3724 C.3       1 <0>        -0.0938
     26 C20        -6.2707   -6.3311   -5.0498 C.3       1 <0>        -0.1472
     27 C21        -4.3988   -7.9393   -5.4394 C.3       1 <0>        -0.1475
     28 O6         -4.1505   -8.1232   -1.7782 O.3       1 <0>        -0.3464
     29 C22        -4.6099   -9.3022   -2.2262 C.2       1 <0>         0.4575
     30 O7         -4.3782   -9.6495   -3.3600 O.2       1 <0>        -0.4970
     31 C23        -5.4148  -10.1927   -1.3150 C.3       1 <0>        -0.1478
     32 H2          0.9924    1.7109    0.7564 H         1 <0>         0.0780
     33 H3         -0.5644    1.7856   -0.1032 H         1 <0>         0.0728
     34 H4         -0.5332    1.6203    1.6688 H         1 <0>         0.0722
     35 H5         -0.0744   -0.1033   -1.5371 H         1 <0>         0.1386
     36 H6         -0.0268   -0.5001    2.7101 H         1 <0>         0.1428
     37 H7          0.9333   -3.3153    3.0543 H         1 <0>         0.3960
     38 H8         -1.9244   -5.1569    1.1328 H         1 <0>         0.1506
     39 H9         -3.5397   -6.5048   -0.1386 H         1 <0>         0.1523
     40 H10        -0.9647   -3.4982   -2.0956 H         1 <0>         0.0982
     41 H11        -0.3657   -2.0274   -2.8998 H         1 <0>         0.1160
     42 H12        -0.0985   -7.7299   -5.1697 H         1 <0>         0.1049
     43 H13         0.6383   -7.6403   -3.5518 H         1 <0>         0.0641
     44 H14        -0.9231   -8.4655   -3.7742 H         1 <0>         0.0500
     45 H15        -4.9489   -5.8400   -2.7642 H         1 <0>         0.0755
     46 H16        -3.7535   -5.7166   -4.0773 H         1 <0>         0.0868
     47 H17        -5.7641   -7.9913   -3.7739 H         1 <0>         0.0654
     48 H18        -5.7519   -5.5822   -5.6483 H         1 <0>         0.0558
     49 H19        -6.9169   -6.9272   -5.6941 H         1 <0>         0.0562
     50 H20        -6.8738   -5.8346   -4.2896 H         1 <0>         0.0529
     51 H21        -5.0450   -8.5354   -6.0837 H         1 <0>         0.0517
     52 H22        -3.8800   -7.1904   -6.0379 H         1 <0>         0.0492
     53 H23        -3.6683   -8.5886   -4.9568 H         1 <0>         0.0713
     54 H24        -5.5195   -9.7158   -0.3405 H         1 <0>         0.0913
     55 H25        -6.4019  -10.3574   -1.7469 H         1 <0>         0.1065
     56 H26        -4.9050  -11.1491   -1.1985 H         1 <0>         0.1066
@<TRIPOS>BOND
     1    1    2 1
     2    1   32 1
     3    1   33 1
     4    1   34 1
     5    2    7 ar
     6    2    3 ar
     7    3    4 ar
     8    3   35 1
     9    4   19 1
    10    4    5 ar
    11    5    6 ar
    12    5    9 1
    13    6    7 ar
    14    6    8 1
    15    7   36 1
    16    8   37 1
    17    9   10 1
    18   10   15 ar
    19   10   11 ar
    20   11   12 ar
    21   11   38 1
    22   12   13 ar
    23   12   39 1
    24   13   14 ar
    25   13   22 1
    26   14   15 ar
    27   14   20 1
    28   15   16 1
    29   16   17 2
    30   16   18 1
    31   18   19 1
    32   19   40 1
    33   19   41 1
    34   20   21 1
    35   21   42 1
    36   21   43 1
    37   21   44 1
    38   22   23 1
    39   22   24 1
    40   22   28 1
    41   24   25 1
    42   24   45 1
    43   24   46 1
    44   25   26 1
    45   25   27 1
    46   25   47 1
    47   26   48 1
    48   26   49 1
    49   26   50 1
    50   27   51 1
    51   27   52 1
    52   27   53 1
    53   28   29 1
    54   29   30 2
    55   29   31 1
    56   31   54 1
    57   31   55 1
    58   31   56 1
@<TRIPOS>MOLECULE
ZINC03923061
   80    83     0     0     0
SMALL
USER_CHARGES
2-amino-N-[7,7-dimethyl-1-[[4-(o-tolyl)piperazin-1-yl]sulfonylmethyl]norbornan-2-yl]-4-methylsulfonyl-butanamide
@<TRIPOS>ATOM
      1 C1          2.0446   -0.7328   -9.4461 C.3       1 <0>        -0.1083
      2 C2          3.3521   -0.1264   -9.0058 C.ar      1 <0>        -0.0556
      3 C3          4.3297    0.1609   -9.9382 C.ar      1 <0>        -0.1153
      4 C4          5.5292    0.7182   -9.5353 C.ar      1 <0>        -0.1120
      5 C5          5.7547    0.9894   -8.1979 C.ar      1 <0>        -0.1172
      6 C6          4.7797    0.7091   -7.2611 C.ar      1 <0>        -0.1448
      7 C7          3.5752    0.1447   -7.6620 C.ar      1 <0>         0.0755
      8 N1          2.5885   -0.1441   -6.7165 N.pl3     1 <0>        -0.4920
      9 C8          3.0803   -1.1034   -5.7186 C.3       1 <0>         0.0429
     10 C9          1.9216   -1.5311   -4.8116 C.3       1 <0>         0.1235
     11 N2          1.2928   -0.3232   -4.2560 N.pl3     1 <0>        -0.9966
     12 C10         0.8913    0.7430   -5.1861 C.3       1 <0>         0.1245
     13 C11         2.0959    1.0837   -6.0778 C.3       1 <0>         0.0442
     14 S1          1.0375   -0.1706   -2.6269 S.o2      1 <0>         2.5985
     15 O1          0.9397   -1.5051   -2.1486 O.2       1 <0>        -0.9478
     16 O2         -0.0626    0.7218   -2.5143 O.2       1 <0>        -0.9576
     17 C12         2.5449    0.6125   -1.9902 C.3       1 <0>        -0.6068
     18 C13         2.4198    0.8046   -0.4774 C.3       1 <0>        -0.0661
     19 C14         2.2685   -0.4981    0.3703 C.3       1 <0>        -0.1327
     20 C15         2.6552   -0.0789    1.8071 C.3       1 <0>        -0.1190
     21 C16         3.0043    1.4366    1.6951 C.3       1 <0>        -0.0930
     22 H1          3.6031    1.8489    2.5072 H         1 <0>         0.1129
     23 C17         3.6307    1.4846    0.2569 C.3       1 <0>        -0.0416
     24 C18         3.8574    2.9196   -0.2228 C.3       1 <0>        -0.1480
     25 C19         4.9063    0.6454    0.1583 C.3       1 <0>        -0.1450
     26 C20         1.6342    2.1347    1.4361 C.3       1 <0>        -0.1219
     27 C21         1.2475    1.7155   -0.0006 C.3       1 <0>         0.1366
     28 H2          1.1625    2.5925   -0.6424 H         1 <0>         0.1093
     29 N3         -0.0111    0.9658    0.0074 N.am      1 <0>        -0.6989
     30 C22        -1.1793    1.6122    0.1915 C.2       1 <0>         0.5172
     31 O3         -1.1882    2.8138    0.3555 O.2       1 <0>        -0.5135
     32 C23        -2.4745    0.8419    0.1935 C.3       1 <0>         0.0184
     33 H3         -2.3358   -0.1008    0.7228 H         1 <0>         0.1665
     34 C24        -2.9021    0.5592   -1.2481 C.3       1 <0>        -0.1321
     35 C25        -4.1483   -0.3283   -1.2457 C.3       1 <0>        -0.6563
     36 S2         -4.6552   -0.6634   -2.9549 S.o2      1 <0>         2.4221
     37 O4         -5.0608    0.5608   -3.5517 O.2       1 <0>        -0.9225
     38 O5         -3.6398   -1.4348   -3.5819 O.2       1 <0>        -0.9160
     39 C26        -6.1209   -1.7104   -2.7403 C.3       1 <0>        -0.6529
     40 H4          1.3349    0.0618   -9.6765 H         1 <0>         0.0685
     41 H5          2.2080   -1.3429  -10.3344 H         1 <0>         0.0617
     42 H6          1.6453   -1.3558   -8.6458 H         1 <0>         0.0779
     43 H7          4.1569   -0.0496  -10.9833 H         1 <0>         0.1274
     44 H8          6.2917    0.9425  -10.2665 H         1 <0>         0.1251
     45 H9          6.6926    1.4250   -7.8865 H         1 <0>         0.1219
     46 H10         4.9547    0.9252   -6.2175 H         1 <0>         0.1147
     47 H11         3.8594   -0.6353   -5.1171 H         1 <0>         0.0423
     48 H12         3.4881   -1.9784   -6.2248 H         1 <0>         0.0950
     49 H13         2.3015   -2.1523   -4.0005 H         1 <0>         0.0952
     50 H14         1.1880   -2.0927   -5.3901 H         1 <0>         0.0910
     51 H15         0.0615    0.3976   -5.8028 H         1 <0>         0.0904
     52 H16         0.5897    1.6260   -4.6228 H         1 <0>         0.0950
     53 H17         2.8887    1.5214   -5.4712 H         1 <0>         0.0422
     54 H18         1.7899    1.7951   -6.8448 H         1 <0>         0.0934
     55 H19         2.6810    1.5819   -2.4695 H         1 <0>         0.1398
     56 H20         3.4035   -0.0233   -2.2059 H         1 <0>         0.1424
     57 H21         2.9458   -1.2697    0.0043 H         1 <0>         0.0895
     58 H22         1.2384   -0.8533    0.3424 H         1 <0>         0.0637
     59 H23         3.5226   -0.6445    2.1474 H         1 <0>         0.0786
     60 H24         1.8159   -0.2263    2.4867 H         1 <0>         0.0692
     61 H25         4.5569    3.4203    0.4467 H         1 <0>         0.0682
     62 H26         4.2681    2.9047   -1.2323 H         1 <0>         0.0604
     63 H27         2.9086    3.4563   -0.2244 H         1 <0>         0.0612
     64 H28         4.6820   -0.3887    0.4200 H         1 <0>         0.0657
     65 H29         5.2909    0.6872   -0.8607 H         1 <0>         0.0592
     66 H30         5.6547    1.0400    0.8456 H         1 <0>         0.0671
     67 H31         1.7414    3.2175    1.5002 H         1 <0>         0.0843
     68 H32         0.8879    1.7829    2.1484 H         1 <0>         0.0731
     69 H33        -0.0040    0.0048   -0.1239 H         1 <0>         0.3999
     70 H34        -3.1266    1.4996   -1.7515 H         1 <0>         0.1201
     71 H35        -2.0942    0.0498   -1.7734 H         1 <0>         0.1423
     72 H36        -3.9238   -1.2687   -0.7424 H         1 <0>         0.1530
     73 H37        -4.9562    0.1811   -0.7204 H         1 <0>         0.1317
     74 H38        -6.8775   -1.1651   -2.1761 H         1 <0>         0.1311
     75 H39        -6.5209   -1.9804   -3.7177 H         1 <0>         0.1412
     76 H40        -5.8451   -2.6149   -2.1981 H         1 <0>         0.1335
     77 H41        -3.6610    2.5123    0.3942 H         1 <0>         0.4473
     78 H42        -4.3749    1.1120    0.9379 H         1 <0>         0.4413
     79 N4         -3.5027    1.6360    0.8889 N.4       1 <0>        -0.6310
     80 H43        -3.1820    1.8427    1.8422 H         1 <0>         0.4468
@<TRIPOS>BOND
     1    1    2 1
     2    1   40 1
     3    1   41 1
     4    1   42 1
     5    2    7 ar
     6    2    3 ar
     7    3    4 ar
     8    3   43 1
     9    4    5 ar
    10    4   44 1
    11    5    6 ar
    12    5   45 1
    13    6    7 ar
    14    6   46 1
    15    7    8 1
    16    8   13 1
    17    8    9 1
    18    9   10 1
    19    9   47 1
    20    9   48 1
    21   10   11 1
    22   10   49 1
    23   10   50 1
    24   11   12 1
    25   11   14 1
    26   12   13 1
    27   12   51 1
    28   12   52 1
    29   13   53 1
    30   13   54 1
    31   14   15 2
    32   14   16 2
    33   14   17 1
    34   17   18 1
    35   17   55 1
    36   17   56 1
    37   18   23 1
    38   18   27 1
    39   18   19 1
    40   19   20 1
    41   19   57 1
    42   19   58 1
    43   20   21 1
    44   20   59 1
    45   20   60 1
    46   21   22 1
    47   21   23 1
    48   21   26 1
    49   23   24 1
    50   23   25 1
    51   24   61 1
    52   24   62 1
    53   24   63 1
    54   25   64 1
    55   25   65 1
    56   25   66 1
    57   26   27 1
    58   26   67 1
    59   26   68 1
    60   27   28 1
    61   27   29 1
    62   29   30 am
    63   29   69 1
    64   30   31 2
    65   30   32 1
    66   32   33 1
    67   32   34 1
    68   32   79 1
    69   34   35 1
    70   34   70 1
    71   34   71 1
    72   35   36 1
    73   35   72 1
    74   35   73 1
    75   36   37 2
    76   36   38 2
    77   36   39 1
    78   39   74 1
    79   39   75 1
    80   39   76 1
    81   77   79 1
    82   78   79 1
    83   79   80 1
@<TRIPOS>MOLECULE
ZINC04847333
   64    67     0     0     0
SMALL
USER_CHARGES

@<TRIPOS>ATOM
      1 C1          1.2182    1.2578    0.1545 C.3       1 <0>        -0.1217
      2 C2          0.5802   -0.1043    0.0616 C.ar      1 <0>        -0.0675
      3 C3          0.5745   -0.7847   -1.1393 C.ar      1 <0>        -0.1203
      4 C4         -0.0112   -2.0347   -1.2262 C.ar      1 <0>        -0.1105
      5 C5         -0.5938   -2.6106   -0.1113 C.ar      1 <0>        -0.1251
      6 C6         -0.5940   -1.9399    1.0945 C.ar      1 <0>        -0.0993
      7 C7         -0.0001   -0.6820    1.1895 C.ar      1 <0>        -0.0594
      8 C8          0.0083    0.0412    2.4839 C.ar      1 <0>        -0.0158
      9 C9          1.1973    0.5843    2.9712 C.ar      1 <0>        -0.1122
     10 C10         1.2062    1.2559    4.1728 C.ar      1 <0>        -0.0556
     11 C11         0.0240    1.3936    4.9043 C.ar      1 <0>        -0.1285
     12 C12        -1.1662    0.8494    4.4154 C.ar      1 <0>        -0.0975
     13 C13        -1.1740    0.1831    3.2107 C.ar      1 <0>        -0.1134
     14 C14         0.0325    2.1137    6.1941 C.2       1 <0>         0.5881
     15 O1          0.8878    2.9478    6.4190 O.2       1 <0>        -0.5067
     16 N1         -0.9081    1.8461    7.1215 N.am      1 <0>        -0.5976
     17 C15        -1.9217    0.7871    7.0324 C.3       1 <0>         0.1040
     18 C16        -2.4350    0.5537    8.4405 C.2       1 <0>         0.1226
     19 N2         -2.9037   -0.5282    8.9375 N.2       1 <0>        -0.3021
     20 O2         -2.9876   -1.6954    8.1402 O.3       1 <0>        -0.2358
     21 C17        -3.5296   -2.8278    8.8228 C.3       1 <0>         0.0421
     22 C18        -2.2649    1.8993    9.1257 C.3       1 <0>        -0.0704
     23 C19        -1.0859    2.5609    8.3923 C.3       1 <0>         0.1246
     24 H1         -1.3129    3.6094    8.1993 H         1 <0>         0.1193
     25 C20         0.1663    2.4487    9.2232 C.2       1 <0>         0.5053
     26 O3          1.1211    1.8316    8.8008 O.2       1 <0>        -0.5066
     27 N3          0.2251    3.0341   10.4358 N.am      1 <0>        -0.7262
     28 C21         1.4424    2.9250   11.2436 C.3       1 <0>         0.0955
     29 C22         1.2468    3.6725   12.5642 C.3       1 <0>         0.1403
     30 H2          0.9522    4.7017   12.3589 H         1 <0>         0.1161
     31 C23         2.5378    3.6651   13.3415 C.ar      1 <0>        -0.1202
     32 C24         2.9034    2.5445   14.0637 C.ar      1 <0>        -0.1092
     33 C25         4.0876    2.5377   14.7768 C.ar      1 <0>        -0.1161
     34 C26         4.9065    3.6513   14.7673 C.ar      1 <0>        -0.1148
     35 C27         4.5414    4.7716   14.0444 C.ar      1 <0>        -0.1167
     36 C28         3.3593    4.7768   13.3279 C.ar      1 <0>        -0.1055
     37 O4          0.2263    3.0285   13.3295 O.3       1 <0>        -0.5502
     38 H3          2.2709    1.1489    0.4155 H         1 <0>         0.0736
     39 H4          1.1327    1.7654   -0.8063 H         1 <0>         0.0680
     40 H5          0.7125    1.8443    0.9216 H         1 <0>         0.0714
     41 H6          1.0278   -0.3400   -2.0129 H         1 <0>         0.1250
     42 H7         -0.0140   -2.5631   -2.1681 H         1 <0>         0.1238
     43 H8         -1.0496   -3.5869   -0.1850 H         1 <0>         0.1247
     44 H9         -1.0494   -2.3902    1.9641 H         1 <0>         0.1246
     45 H10         2.1112    0.4774    2.4057 H         1 <0>         0.1330
     46 H11         2.1269    1.6759    4.5501 H         1 <0>         0.1369
     47 H12        -2.0807    0.9553    4.9801 H         1 <0>         0.1378
     48 H13        -2.0949   -0.2336    2.8303 H         1 <0>         0.1310
     49 H14        -2.7389    1.1066    6.3858 H         1 <0>         0.1020
     50 H15        -1.4729   -0.1267    6.6429 H         1 <0>         0.0991
     51 H16        -2.9026   -3.0690    9.6812 H         1 <0>         0.0522
     52 H17        -4.5391   -2.5978    9.1634 H         1 <0>         0.0536
     53 H18        -3.5604   -3.6805    8.1445 H         1 <0>         0.1009
     54 H19        -3.1691    2.4982    9.0168 H         1 <0>         0.1243
     55 H20        -2.0241    1.7613   10.1798 H         1 <0>         0.1095
     56 H21        -0.5385    3.5277   10.7736 H         1 <0>         0.4045
     57 H22         1.6499    1.8746   11.4479 H         1 <0>         0.0723
     58 H23         2.2799    3.3617   10.6995 H         1 <0>         0.0806
     59 H24         2.2636    1.6744   14.0711 H         1 <0>         0.1202
     60 H25         4.3728    1.6624   15.3416 H         1 <0>         0.1250
     61 H26         5.8313    3.6462   15.3250 H         1 <0>         0.1244
     62 H27         5.1810    5.6418   14.0373 H         1 <0>         0.1257
     63 H28         3.0758    5.6507   12.7601 H         1 <0>         0.1251
     64 H29         0.4217    2.1073   13.5493 H         1 <0>         0.3774
@<TRIPOS>BOND
     1    1    2 1
     2    1   38 1
     3    1   39 1
     4    1   40 1
     5    2    7 ar
     6    2    3 ar
     7    3    4 ar
     8    3   41 1
     9    4    5 ar
    10    4   42 1
    11    5    6 ar
    12    5   43 1
    13    6    7 ar
    14    6   44 1
    15    7    8 1
    16    8   13 ar
    17    8    9 ar
    18    9   10 ar
    19    9   45 1
    20   10   11 ar
    21   10   46 1
    22   11   12 ar
    23   11   14 1
    24   12   13 ar
    25   12   47 1
    26   13   48 1
    27   14   15 2
    28   14   16 am
    29   16   23 1
    30   16   17 1
    31   17   18 1
    32   17   49 1
    33   17   50 1
    34   18   19 2
    35   18   22 1
    36   19   20 1
    37   20   21 1
    38   21   51 1
    39   21   52 1
    40   21   53 1
    41   22   23 1
    42   22   54 1
    43   22   55 1
    44   23   24 1
    45   23   25 1
    46   25   26 2
    47   25   27 am
    48   27   28 1
    49   27   56 1
    50   28   29 1
    51   28   57 1
    52   28   58 1
    53   29   30 1
    54   29   31 1
    55   29   37 1
    56   31   36 ar
    57   31   32 ar
    58   32   33 ar
    59   32   59 1
    60   33   34 ar
    61   33   60 1
    62   34   35 ar
    63   34   61 1
    64   35   36 ar
    65   35   62 1
    66   36   63 1
    67   37   64 1
@<TRIPOS>MOLECULE
ZINC64491763
   47    49     0     0     0
SMALL
USER_CHARGES

@<TRIPOS>ATOM
      1 C1          0.3126    1.5783    0.0094 C.3       1 <0>        -0.1212
      2 C2          0.1545    0.0800   -0.0250 C.ar      1 <0>        -0.0678
      3 C3          0.1550   -0.5878   -1.2329 C.ar      1 <0>        -0.1203
      4 C4          0.0095   -1.9629   -1.2660 C.ar      1 <0>        -0.1102
      5 C5         -0.1368   -2.6769   -0.0900 C.ar      1 <0>        -0.1248
      6 C6         -0.1387   -2.0201    1.1234 C.ar      1 <0>        -0.0992
      7 C7          0.0133   -0.6347    1.1633 C.ar      1 <0>        -0.0598
      8 C8          0.0182    0.0762    2.4645 C.ar      1 <0>        -0.0152
      9 C9          1.0289    0.9932    2.7539 C.ar      1 <0>        -0.1118
     10 C10         1.0344    1.6539    3.9617 C.ar      1 <0>        -0.0984
     11 C11         0.0273    1.4058    4.8976 C.ar      1 <0>        -0.1325
     12 C12        -0.9844    0.4873    4.6067 C.ar      1 <0>        -0.0571
     13 C13        -0.9911   -0.1680    3.3960 C.ar      1 <0>        -0.1139
     14 C14         0.0325    2.1137    6.1941 C.2       1 <0>         0.5837
     15 O1         -1.0111    2.2990    6.7896 O.2       1 <0>        -0.5287
     16 N1          1.1940    2.5542    6.7168 N.am      1 <0>        -0.5999
     17 C15         2.5088    2.4787    6.0668 C.3       1 <0>         0.1043
     18 C16         3.5470    2.6483    7.1595 C.2       1 <0>         0.1278
     19 N2          4.7363    2.1776    7.1943 N.2       1 <0>        -0.3103
     20 O2          5.2182    1.3912    6.1198 O.3       1 <0>        -0.2403
     21 C17         6.5606    0.9324    6.2917 C.3       1 <0>         0.0430
     22 C18         2.8509    3.5056    8.2034 C.3       1 <0>        -0.0718
     23 C19         1.3544    3.1954    8.0285 C.3       1 <0>         0.1438
     24 H1          1.0235    2.5178    8.8155 H         1 <0>         0.1006
     25 C20         0.5423    4.4911    8.0773 C.3       1 <0>         0.0600
     26 O3          1.0779    5.4248    7.1374 O.3       1 <0>        -0.5698
     27 H2          1.3711    1.8306    0.0735 H         1 <0>         0.0730
     28 H3         -0.1093    2.0091   -0.8986 H         1 <0>         0.0681
     29 H4         -0.2096    1.9788    0.8783 H         1 <0>         0.0711
     30 H5          0.2688   -0.0355   -2.1540 H         1 <0>         0.1250
     31 H6          0.0097   -2.4811   -2.2135 H         1 <0>         0.1240
     32 H7         -0.2500   -3.7505   -0.1219 H         1 <0>         0.1250
     33 H8         -0.2533   -2.5785    2.0407 H         1 <0>         0.1248
     34 H9          1.8076    1.1846    2.0304 H         1 <0>         0.1319
     35 H10         1.8172    2.3634    4.1857 H         1 <0>         0.1399
     36 H11        -1.7634    0.2948    5.3295 H         1 <0>         0.1366
     37 H12        -1.7757   -0.8746    3.1690 H         1 <0>         0.1324
     38 H13         2.6308    1.5092    5.5838 H         1 <0>         0.0979
     39 H14         2.6076    3.2771    5.3314 H         1 <0>         0.0990
     40 H15         6.8549    0.3380    5.4268 H         1 <0>         0.0995
     41 H16         7.2278    1.7890    6.3879 H         1 <0>         0.0524
     42 H17         6.6230    0.3204    7.1915 H         1 <0>         0.0516
     43 H18         3.1840    3.2309    9.2042 H         1 <0>         0.1032
     44 H19         3.0408    4.5623    8.0154 H         1 <0>         0.1204
     45 H20        -0.4969    4.2783    7.8262 H         1 <0>         0.0703
     46 H21         0.5942    4.9149    9.0802 H         1 <0>         0.0606
     47 H22         0.6108    6.2712    7.1141 H         1 <0>         0.3832
@<TRIPOS>BOND
     1    1    2 1
     2    1   27 1
     3    1   28 1
     4    1   29 1
     5    2    7 ar
     6    2    3 ar
     7    3    4 ar
     8    3   30 1
     9    4    5 ar
    10    4   31 1
    11    5    6 ar
    12    5   32 1
    13    6    7 ar
    14    6   33 1
    15    7    8 1
    16    8   13 ar
    17    8    9 ar
    18    9   10 ar
    19    9   34 1
    20   10   11 ar
    21   10   35 1
    22   11   12 ar
    23   11   14 1
    24   12   13 ar
    25   12   36 1
    26   13   37 1
    27   14   15 2
    28   14   16 am
    29   16   23 1
    30   16   17 1
    31   17   18 1
    32   17   38 1
    33   17   39 1
    34   18   19 2
    35   18   22 1
    36   19   20 1
    37   20   21 1
    38   21   40 1
    39   21   41 1
    40   21   42 1
    41   22   23 1
    42   22   43 1
    43   22   44 1
    44   23   24 1
    45   23   25 1
    46   25   26 1
    47   25   45 1
    48   25   46 1
    49   26   47 1
@<TRIPOS>MOLECULE
ZINC00829773
   59    62     0     0     0
SMALL
USER_CHARGES

@<TRIPOS>ATOM
      1 C1          1.4535    1.8396   -0.0587 C.3       1 <0>        -0.1538
      2 C2          1.2218    0.3274   -0.0807 C.3       1 <0>         0.0491
      3 O1          1.7553   -0.2537    1.1108 O.3       1 <0>        -0.3084
      4 C3          1.6314   -1.5999    1.2498 C.ar      1 <0>         0.1903
      5 C4          1.0140   -2.3469    0.2571 C.ar      1 <0>        -0.2289
      6 C5          0.8897   -3.7153    0.4005 C.ar      1 <0>         0.0287
      7 C6          1.3794   -4.3403    1.5325 C.ar      1 <0>        -0.7180
      8 C7          1.9946   -3.5979    2.5235 C.ar      1 <0>         0.0156
      9 C8          2.1270   -2.2301    2.3819 C.ar      1 <0>        -0.1707
     10 S1          1.2187   -6.0856    1.7126 S.o2      1 <0>         2.6869
     11 O2          1.2700   -6.3564    3.1066 O.2       1 <0>        -0.9431
     12 O3          0.1210   -6.4784    0.9002 O.2       1 <0>        -0.9358
     13 N1          2.5701   -6.7731    1.0469 N.pl3     1 <0>        -0.9274
     14 C9          3.7932   -6.9039    1.8427 C.3       1 <0>         0.1110
     15 C10         3.8423   -8.2748    2.4666 C.2       1 <0>         0.5146
     16 O4          2.9444   -9.0646    2.2663 O.2       1 <0>        -0.4706
     17 N2          4.8844   -8.6229    3.2472 N.am      1 <0>        -0.5711
     18 N3          4.9301   -9.8974    3.8272 N.2       1 <0>        -0.1111
     19 C11         5.9435  -10.2360    4.5864 C.2       1 <0>         0.0632
     20 C12         6.1638  -11.5302    5.2730 C.ar      1 <0>        -0.0968
     21 C13         5.4333  -12.7116    5.3349 C.ar      1 <0>        -0.0350
     22 C14         5.9099  -13.7733    6.0776 C.ar      1 <0>        -0.1387
     23 C15         7.1108  -13.6607    6.7577 C.ar      1 <0>        -0.0668
     24 C16         7.8431  -12.4921    6.7023 C.ar      1 <0>        -0.1350
     25 C17         7.3791  -11.4119    5.9594 C.ar      1 <0>         0.1562
     26 N4          7.9100  -10.1455    5.7401 N.am      1 <0>        -0.6438
     27 C18         7.1182   -9.4127    4.9388 C.2       1 <0>         0.5462
     28 O5          7.3297   -8.2721    4.5716 O.2       1 <0>        -0.5017
     29 C19         2.5439   -7.2283   -0.2734 C.ar      1 <0>         0.1196
     30 C20         3.4244   -6.7005   -1.2092 C.ar      1 <0>        -0.1132
     31 C21         3.3962   -7.1531   -2.5137 C.ar      1 <0>        -0.1157
     32 C22         2.4924   -8.1303   -2.8887 C.ar      1 <0>        -0.0779
     33 C23         1.6145   -8.6579   -1.9596 C.ar      1 <0>        -0.1096
     34 C24         1.6413   -8.2138   -0.6522 C.ar      1 <0>        -0.0805
     35 C25         2.4639   -8.6211   -4.3133 C.3       1 <0>        -0.1175
     36 H1          2.5230    2.0425   -0.0029 H         1 <0>         0.0683
     37 H2          1.0465    2.2828   -0.9676 H         1 <0>         0.0825
     38 H3          0.9561    2.2707    0.8101 H         1 <0>         0.0685
     39 H4          0.1523    0.1245   -0.1365 H         1 <0>         0.0680
     40 H5          1.7192   -0.1038   -0.9495 H         1 <0>         0.0677
     41 H6          0.6307   -1.8591   -0.6270 H         1 <0>         0.1399
     42 H7          0.4092   -4.2973   -0.3720 H         1 <0>         0.1440
     43 H8          2.3761   -4.0883    3.4068 H         1 <0>         0.1467
     44 H9          2.6116   -1.6512    3.1543 H         1 <0>         0.1437
     45 H10         4.6619   -6.7663    1.1989 H         1 <0>         0.1268
     46 H11         3.7988   -6.1472    2.6272 H         1 <0>         0.1237
     47 H12         5.6027   -7.9911    3.4074 H         1 <0>         0.4093
     48 H13         4.4966  -12.7982    4.8043 H         1 <0>         0.1390
     49 H14         5.3453  -14.6925    6.1285 H         1 <0>         0.1371
     50 H15         7.4778  -14.4949    7.3371 H         1 <0>         0.1376
     51 H16         8.7782  -12.4162    7.2374 H         1 <0>         0.1347
     52 H17         8.7482   -9.8322    6.1145 H         1 <0>         0.4246
     53 H18         4.1300   -5.9368   -0.9172 H         1 <0>         0.1278
     54 H19         4.0805   -6.7432   -3.2418 H         1 <0>         0.1275
     55 H20         0.9100   -9.4209   -2.2558 H         1 <0>         0.1298
     56 H21         0.9584   -8.6295    0.0740 H         1 <0>         0.1332
     57 H22         3.1443   -9.4658   -4.4203 H         1 <0>         0.0725
     58 H23         1.4519   -8.9350   -4.5692 H         1 <0>         0.0689
     59 H24         2.7747   -7.8173   -4.9807 H         1 <0>         0.0676
@<TRIPOS>BOND
     1    1    2 1
     2    1   36 1
     3    1   37 1
     4    1   38 1
     5    2    3 1
     6    2   39 1
     7    2   40 1
     8    3    4 1
     9    4    9 ar
    10    4    5 ar
    11    5    6 ar
    12    5   41 1
    13    6    7 ar
    14    6   42 1
    15    7    8 ar
    16    7   10 1
    17    8    9 ar
    18    8   43 1
    19    9   44 1
    20   10   11 2
    21   10   12 2
    22   10   13 1
    23   13   14 1
    24   13   29 1
    25   14   15 1
    26   14   45 1
    27   14   46 1
    28   15   16 2
    29   15   17 am
    30   17   18 1
    31   17   47 1
    32   18   19 2
    33   19   27 1
    34   19   20 1
    35   20   25 ar
    36   20   21 ar
    37   21   22 ar
    38   21   48 1
    39   22   23 ar
    40   22   49 1
    41   23   24 ar
    42   23   50 1
    43   24   25 ar
    44   24   51 1
    45   25   26 1
    46   26   27 am
    47   26   52 1
    48   27   28 2
    49   29   34 ar
    50   29   30 ar
    51   30   31 ar
    52   30   53 1
    53   31   32 ar
    54   31   54 1
    55   32   33 ar
    56   32   35 1
    57   33   34 ar
    58   33   55 1
    59   34   56 1
    60   35   57 1
    61   35   58 1
    62   35   59 1
@<TRIPOS>MOLECULE
ZINC06199057
   80    83     0     0     0
SMALL
USER_CHARGES
2-amino-N-[7,7-dimethyl-1-[[4-(o-tolyl)piperazin-1-yl]sulfonylmethyl]norbornan-2-yl]-4-methylsulfonyl-butanamide
@<TRIPOS>ATOM
      1 C1          3.2344    2.8501    7.4427 C.3       1 <0>        -0.1090
      2 C2          3.0932    1.3497    7.4560 C.ar      1 <0>        -0.0553
      3 C3          4.2173    0.5501    7.5269 C.ar      1 <0>        -0.1153
      4 C4          4.0889   -0.8265    7.5335 C.ar      1 <0>        -0.1130
      5 C5          2.8352   -1.4076    7.4744 C.ar      1 <0>        -0.1181
      6 C6          1.7071   -0.6141    7.4082 C.ar      1 <0>        -0.1440
      7 C7          1.8325    0.7695    7.4015 C.ar      1 <0>         0.0787
      8 N1          0.6935    1.5752    7.3341 N.pl3     1 <0>        -0.4933
      9 C8         -0.0690    1.3074    6.1074 C.3       1 <0>         0.0452
     10 C9         -1.2036    2.3297    5.9817 C.3       1 <0>         0.1282
     11 N2         -1.9931    2.3063    7.2224 N.pl3     1 <0>        -1.0011
     12 C10        -1.2813    2.4375    8.5028 C.3       1 <0>         0.1231
     13 C11        -0.1431    1.4050    8.5295 C.3       1 <0>         0.0450
     14 S1         -3.6405    2.1435    7.1786 S.o2      1 <0>         2.6037
     15 O1         -4.0220    2.6576    5.9099 O.2       1 <0>        -0.9507
     16 O2         -4.0975    2.7570    8.3760 O.2       1 <0>        -0.9377
     17 C12        -3.9340    0.3545    7.2417 C.3       1 <0>        -0.6103
     18 C13        -5.4393    0.0831    7.2066 C.3       1 <0>        -0.0670
     19 C14        -6.2636    0.6581    8.3987 C.3       1 <0>        -0.1292
     20 C15        -7.5833   -0.1468    8.3856 C.3       1 <0>        -0.1236
     21 C16        -7.4320   -1.1324    7.1869 C.3       1 <0>        -0.0912
     22 H1         -8.0950   -1.9976    7.1948 H         1 <0>         0.1119
     23 C17        -5.8900   -1.4200    7.2406 C.3       1 <0>        -0.0486
     24 C18        -5.4070   -2.1918    6.0110 C.3       1 <0>        -0.1572
     25 C19        -5.4804   -2.1125    8.5420 C.3       1 <0>        -0.1451
     26 C20        -7.5118   -0.2240    5.9221 C.3       1 <0>        -0.1270
     27 C21        -6.1922    0.5810    5.9352 C.3       1 <0>         0.1358
     28 H2         -6.3972    1.6490    6.0088 H         1 <0>         0.1107
     29 N3         -5.4073    0.2944    4.7318 N.am      1 <0>        -0.6988
     30 C22        -5.5801    1.0386    3.6215 C.2       1 <0>         0.5080
     31 O3         -6.3853    1.9455    3.6186 O.2       1 <0>        -0.5024
     32 C23        -4.7726    0.7439    2.3837 C.3       1 <0>         0.0191
     33 H3         -4.6868   -0.3350    2.2542 H         1 <0>         0.1671
     34 C24        -3.3765    1.3529    2.5284 C.3       1 <0>        -0.1357
     35 C25        -2.5170    0.9488    1.3289 C.3       1 <0>        -0.6584
     36 S2         -0.8618    1.6708    1.5005 S.o2      1 <0>         2.4193
     37 O4         -0.2324    1.0879    2.6333 O.2       1 <0>        -0.9155
     38 O5         -0.9784    3.0851    1.4261 O.2       1 <0>        -0.9176
     39 C26        -0.0127    1.0858    0.0080 C.3       1 <0>        -0.6521
     40 H4          3.2176    3.2257    8.4658 H         1 <0>         0.0694
     41 H5          4.1788    3.1220    6.9713 H         1 <0>         0.0612
     42 H6          2.4088    3.2877    6.8814 H         1 <0>         0.0778
     43 H7          5.1977    1.0007    7.5731 H         1 <0>         0.1270
     44 H8          4.9697   -1.4495    7.5844 H         1 <0>         0.1243
     45 H9          2.7385   -2.4833    7.4797 H         1 <0>         0.1208
     46 H10         0.7285   -1.0685    7.3621 H         1 <0>         0.1139
     47 H11        -0.4884    0.3023    6.1520 H         1 <0>         0.0398
     48 H12         0.5911    1.3885    5.2438 H         1 <0>         0.1020
     49 H13        -1.8408    2.0675    5.1372 H         1 <0>         0.0806
     50 H14        -0.7876    3.3259    5.8312 H         1 <0>         0.0886
     51 H15        -0.8699    3.4429    8.5917 H         1 <0>         0.0903
     52 H16        -1.9700    2.2466    9.3258 H         1 <0>         0.0968
     53 H17        -0.5615    0.3985    8.5404 H         1 <0>         0.0424
     54 H18         0.4632    1.5570    9.4225 H         1 <0>         0.0941
     55 H19        -3.5131   -0.0505    8.1621 H         1 <0>         0.1444
     56 H20        -3.4587   -0.1221    6.3844 H         1 <0>         0.1266
     57 H21        -5.7328    0.5024    9.3379 H         1 <0>         0.0879
     58 H22        -6.4621    1.7191    8.2466 H         1 <0>         0.0773
     59 H23        -7.7012   -0.6982    9.3184 H         1 <0>         0.0783
     60 H24        -8.4323    0.5179    8.2262 H         1 <0>         0.0755
     61 H25        -4.3182   -2.1641    5.9692 H         1 <0>         0.0580
     62 H26        -5.7419   -3.2270    6.0771 H         1 <0>         0.0709
     63 H27        -5.8170   -1.7342    5.1106 H         1 <0>         0.0628
     64 H28        -5.9409   -1.6002    9.3867 H         1 <0>         0.0691
     65 H29        -5.8128   -3.1504    8.5214 H         1 <0>         0.0640
     66 H30        -4.3958   -2.0803    8.6449 H         1 <0>         0.0577
     67 H31        -8.3674    0.4479    5.9903 H         1 <0>         0.0840
     68 H32        -7.5766   -0.8329    5.0204 H         1 <0>         0.0751
     69 H33        -4.7633   -0.4309    4.7341 H         1 <0>         0.4077
     70 H34        -2.9144    0.9882    3.4458 H         1 <0>         0.1290
     71 H35        -3.4564    2.4392    2.5687 H         1 <0>         0.1252
     72 H36        -2.9791    1.3135    0.4115 H         1 <0>         0.1326
     73 H37        -2.4372   -0.1375    1.2886 H         1 <0>         0.1545
     74 H38         0.0021   -0.0041    0.0020 H         1 <0>         0.1334
     75 H39         1.0099    1.4631    0.0003 H         1 <0>         0.1421
     76 H40        -0.5399    1.4469   -0.8751 H         1 <0>         0.1315
     77 H41        -6.3402    0.8937    1.0574 H         1 <0>         0.4457
     78 H42        -5.5334    2.3261    1.3084 H         1 <0>         0.4487
     79 N4         -5.4251    1.3197    1.1945 N.4       1 <0>        -0.6314
     80 H43        -4.8433    1.1367    0.3685 H         1 <0>         0.4420
@<TRIPOS>BOND
     1    1    2 1
     2    1   40 1
     3    1   41 1
     4    1   42 1
     5    2    7 ar
     6    2    3 ar
     7    3    4 ar
     8    3   43 1
     9    4    5 ar
    10    4   44 1
    11    5    6 ar
    12    5   45 1
    13    6    7 ar
    14    6   46 1
    15    7    8 1
    16    8   13 1
    17    8    9 1
    18    9   10 1
    19    9   47 1
    20    9   48 1
    21   10   11 1
    22   10   49 1
    23   10   50 1
    24   11   12 1
    25   11   14 1
    26   12   13 1
    27   12   51 1
    28   12   52 1
    29   13   53 1
    30   13   54 1
    31   14   15 2
    32   14   16 2
    33   14   17 1
    34   17   18 1
    35   17   55 1
    36   17   56 1
    37   18   23 1
    38   18   27 1
    39   18   19 1
    40   19   20 1
    41   19   57 1
    42   19   58 1
    43   20   21 1
    44   20   59 1
    45   20   60 1
    46   21   22 1
    47   21   23 1
    48   21   26 1
    49   23   24 1
    50   23   25 1
    51   24   61 1
    52   24   62 1
    53   24   63 1
    54   25   64 1
    55   25   65 1
    56   25   66 1
    57   26   27 1
    58   26   67 1
    59   26   68 1
    60   27   28 1
    61   27   29 1
    62   29   30 am
    63   29   69 1
    64   30   31 2
    65   30   32 1
    66   32   33 1
    67   32   34 1
    68   32   79 1
    69   34   35 1
    70   34   70 1
    71   34   71 1
    72   35   36 1
    73   35   72 1
    74   35   73 1
    75   36   37 2
    76   36   38 2
    77   36   39 1
    78   39   74 1
    79   39   75 1
    80   39   76 1
    81   77   79 1
    82   78   79 1
    83   79   80 1
@<TRIPOS>MOLECULE
ZINC03824080
   70    74     0     0     0
SMALL
USER_CHARGES

@<TRIPOS>ATOM
      1 C1         -0.8555   -1.3236    1.6511 C.3       1 <0>        -0.1770
      2 C2         -0.6345   -0.4699    0.4290 C.2       1 <0>         0.5151
      3 O1         -0.6921    0.7385    0.5150 O.2       1 <0>        -0.5412
      4 N1         -0.3729   -1.0493   -0.7594 N.am      1 <0>        -0.6201
      5 C3         -0.0166   -0.2330   -1.9279 C.3       1 <0>         0.1141
      6 C4         -0.9548   -0.5918   -3.0846 C.3       1 <0>        -0.1296
      7 C5         -0.8992   -2.1011   -3.3317 C.3       1 <0>         0.0853
      8 C6         -1.3714   -2.8426   -2.0790 C.3       1 <0>        -0.1634
      9 C7         -0.4325   -2.5096   -0.9095 C.3       1 <0>         0.1093
     10 O2         -1.7488   -2.4351   -4.4312 O.3       1 <0>        -0.3016
     11 C8         -1.4943   -3.6030   -5.0738 C.ar      1 <0>         0.1963
     12 C9         -0.4273   -4.3992   -4.6679 C.ar      1 <0>        -0.2545
     13 C10        -0.1623   -5.5844   -5.3137 C.ar      1 <0>        -0.0091
     14 C11        -0.9669   -5.9925   -6.3824 C.ar      1 <0>        -0.2054
     15 C12        -2.0420   -5.1889   -6.7905 C.ar      1 <0>         0.2203
     16 C13        -2.3019   -4.0009   -6.1287 C.ar      1 <0>        -0.2524
     17 O3         -2.8275   -5.5772   -7.8261 O.3       1 <0>        -0.2917
     18 C14        -3.9035   -4.7083   -8.1856 C.3       1 <0>         0.0222
     19 C15        -0.6862   -7.2608   -7.0770 C.2       1 <0>         0.5773
     20 O4         -0.6315   -7.2897   -8.2916 O.2       1 <0>        -0.5208
     21 N2         -0.4902   -8.3892   -6.3665 N.am      1 <0>        -0.6117
     22 C16        -0.0913   -9.6351   -7.0353 C.3       1 <0>         0.1203
     23 C17        -1.0736  -10.7426   -6.6412 C.3       1 <0>        -0.1535
     24 C18        -1.1393  -10.8415   -5.1155 C.3       1 <0>         0.1558
     25 C19        -1.6465   -9.5180   -4.5382 C.3       1 <0>        -0.1547
     26 C20        -0.6653   -8.3953   -4.9077 C.3       1 <0>         0.1104
     27 N3         -2.0528  -11.9218   -4.7353 N.am      1 <0>        -0.5595
     28 C21        -1.5930  -13.0024   -3.9731 C.ar      1 <0>         0.1662
     29 C22        -0.3829  -12.9426   -3.3007 C.ar      1 <0>        -0.1511
     30 C23         0.0413  -14.0274   -2.5566 C.ar      1 <0>        -0.0771
     31 C24        -0.7382  -15.1674   -2.4831 C.ar      1 <0>        -0.1406
     32 C25        -1.9470  -15.2294   -3.1541 C.ar      1 <0>        -0.0671
     33 C26        -2.3741  -14.1507   -3.8980 C.ar      1 <0>        -0.1782
     34 C27        -3.6840  -14.1895   -4.6436 C.3       1 <0>         0.1149
     35 O5         -4.1989  -12.8586   -4.7432 O.3       1 <0>        -0.3394
     36 C28        -3.3482  -11.8840   -5.1110 C.2       1 <0>         0.6584
     37 O6         -3.7494  -10.9621   -5.7934 O.2       1 <0>        -0.4904
     38 H1         -1.9171   -1.5507    1.7485 H         1 <0>         0.0952
     39 H2         -0.2929   -2.2519    1.5524 H         1 <0>         0.0827
     40 H3         -0.5163   -0.7856    2.5363 H         1 <0>         0.0956
     41 H4         -0.1263    0.8234   -1.6828 H         1 <0>         0.1035
     42 H5          1.0143   -0.4382   -2.2164 H         1 <0>         0.0729
     43 H6         -1.9742   -0.3022   -2.8294 H         1 <0>         0.0810
     44 H7         -0.6406   -0.0639   -3.9850 H         1 <0>         0.0889
     45 H8          0.1250   -2.3938   -3.5625 H         1 <0>         0.0812
     46 H9         -2.3869   -2.5318   -1.8333 H         1 <0>         0.0826
     47 H10        -1.3538   -3.9167   -2.2636 H         1 <0>         0.0871
     48 H11         0.5651   -2.8967   -1.1167 H         1 <0>         0.0750
     49 H12        -0.8167   -2.9559    0.0078 H         1 <0>         0.0972
     50 H13         0.1951   -4.0852   -3.8430 H         1 <0>         0.1377
     51 H14         0.6667   -6.1992   -4.9959 H         1 <0>         0.1381
     52 H15        -3.1312   -3.3816   -6.4370 H         1 <0>         0.1437
     53 H16        -4.5759   -4.5917   -7.3357 H         1 <0>         0.0598
     54 H17        -3.5047   -3.7344   -8.4696 H         1 <0>         0.0609
     55 H18        -4.4506   -5.1359   -9.0258 H         1 <0>         0.1056
     56 H19        -0.1146   -9.4935   -8.1158 H         1 <0>         0.1010
     57 H20         0.9157   -9.9115   -6.7226 H         1 <0>         0.0706
     58 H21        -2.0631  -10.5078   -7.0335 H         1 <0>         0.0951
     59 H22        -0.7345  -11.6931   -7.0532 H         1 <0>         0.0783
     60 H23        -0.1448  -11.0518   -4.7220 H         1 <0>         0.1028
     61 H24        -2.6306   -9.2948   -4.9503 H         1 <0>         0.0947
     62 H25        -1.7153   -9.5970   -3.4532 H         1 <0>         0.0793
     63 H26         0.2958   -8.5726   -4.4251 H         1 <0>         0.0727
     64 H27        -1.0675   -7.4353   -4.5840 H         1 <0>         0.0968
     65 H28         0.2261  -12.0525   -3.3581 H         1 <0>         0.1333
     66 H29         0.9842  -13.9848   -2.0315 H         1 <0>         0.1326
     67 H30        -0.4024  -16.0123   -1.9003 H         1 <0>         0.1309
     68 H31        -2.5538  -16.1209   -3.0953 H         1 <0>         0.1349
     69 H32        -3.5236  -14.5947   -5.6427 H         1 <0>         0.0856
     70 H33        -4.3935  -14.8160   -4.1030 H         1 <0>         0.1272
@<TRIPOS>BOND
     1    1    2 1
     2    1   38 1
     3    1   39 1
     4    1   40 1
     5    2    3 2
     6    2    4 am
     7    4    9 1
     8    4    5 1
     9    5    6 1
    10    5   41 1
    11    5   42 1
    12    6    7 1
    13    6   43 1
    14    6   44 1
    15    7    8 1
    16    7   10 1
    17    7   45 1
    18    8    9 1
    19    8   46 1
    20    8   47 1
    21    9   48 1
    22    9   49 1
    23   10   11 1
    24   11   16 ar
    25   11   12 ar
    26   12   13 ar
    27   12   50 1
    28   13   14 ar
    29   13   51 1
    30   14   15 ar
    31   14   19 1
    32   15   16 ar
    33   15   17 1
    34   16   52 1
    35   17   18 1
    36   18   53 1
    37   18   54 1
    38   18   55 1
    39   19   20 2
    40   19   21 am
    41   21   26 1
    42   21   22 1
    43   22   23 1
    44   22   56 1
    45   22   57 1
    46   23   24 1
    47   23   58 1
    48   23   59 1
    49   24   25 1
    50   24   27 1
    51   24   60 1
    52   25   26 1
    53   25   61 1
    54   25   62 1
    55   26   63 1
    56   26   64 1
    57   27   36 am
    58   27   28 1
    59   28   33 ar
    60   28   29 ar
    61   29   30 ar
    62   29   65 1
    63   30   31 ar
    64   30   66 1
    65   31   32 ar
    66   31   67 1
    67   32   33 ar
    68   32   68 1
    69   33   34 1
    70   34   35 1
    71   34   69 1
    72   34   70 1
    73   35   36 1
    74   36   37 2
@<TRIPOS>MOLECULE
ZINC03796262
   64    67     0     0     0
SMALL
USER_CHARGES
N-[3-[4-[[4-(2-oxo-3,4-dihydroquinolin-1-yl)-1-piperidyl]carbonyl]phenoxy]propyl]acetamide
@<TRIPOS>ATOM
      1 C1        -10.4432   11.2489  -10.7431 C.3       1 <0>        -0.1752
      2 C2         -9.0870   11.0631  -10.1130 C.2       1 <0>         0.5102
      3 O1         -8.0833   11.2540  -10.7666 O.2       1 <0>        -0.5437
      4 N1         -8.9894   10.6849   -8.8231 N.am      1 <0>        -0.7336
      5 C3         -7.6709   10.5042   -8.2105 C.3       1 <0>         0.1202
      6 C4         -7.8408   10.0766   -6.7513 C.3       1 <0>        -0.1310
      7 C5         -6.4639    9.8879   -6.1115 C.3       1 <0>         0.0602
      8 O2         -6.6225    9.4885   -4.7487 O.3       1 <0>        -0.3099
      9 C6         -5.4892    9.2776   -4.0325 C.ar      1 <0>         0.1531
     10 C7         -5.5732    8.8874   -2.7011 C.ar      1 <0>        -0.1552
     11 C8         -4.4256    8.6729   -1.9709 C.ar      1 <0>        -0.0522
     12 C9         -3.1755    8.8476   -2.5702 C.ar      1 <0>        -0.1661
     13 C10        -3.0953    9.2452   -3.9074 C.ar      1 <0>        -0.0248
     14 C11        -4.2476    9.4521   -4.6325 C.ar      1 <0>        -0.2114
     15 C12        -1.9428    8.6187   -1.7912 C.2       1 <0>         0.5687
     16 O3         -1.0691    9.4640   -1.7735 O.2       1 <0>        -0.5320
     17 N2         -1.7859    7.4727   -1.0994 N.am      1 <0>        -0.6064
     18 C13        -0.5315    7.1942   -0.3869 C.3       1 <0>         0.1181
     19 C14        -0.0014    5.8292   -0.8371 C.3       1 <0>        -0.1510
     20 C15        -1.0885    4.7716   -0.6328 C.3       1 <0>         0.1418
     21 C16        -2.3095    5.1211   -1.4867 C.3       1 <0>        -0.1527
     22 C17        -2.8658    6.4780   -1.0439 C.3       1 <0>         0.1030
     23 N3         -0.5736    3.4592   -1.0313 N.am      1 <0>        -0.5492
     24 C18        -0.5197    2.4213   -0.0960 C.ar      1 <0>         0.1633
     25 C19        -1.2795    2.4868    1.0644 C.ar      1 <0>        -0.1549
     26 C20        -1.2214    1.4587    1.9842 C.ar      1 <0>        -0.0879
     27 C21        -0.4085    0.3644    1.7505 C.ar      1 <0>        -0.1406
     28 C22         0.3488    0.2959    0.5955 C.ar      1 <0>        -0.0821
     29 C23         0.2953    1.3214   -0.3277 C.ar      1 <0>        -0.1245
     30 C24         1.1197    1.2508   -1.5868 C.3       1 <0>        -0.0774
     31 C25         0.3586    1.9165   -2.7338 C.3       1 <0>        -0.1392
     32 C26        -0.1563    3.2608   -2.2951 C.2       1 <0>         0.5195
     33 O4         -0.1960    4.1760   -3.0901 O.2       1 <0>        -0.5145
     34 H1        -10.9936   12.0178  -10.2009 H         1 <0>         0.0894
     35 H2        -10.3222   11.5536  -11.7827 H         1 <0>         0.0940
     36 H3        -10.9949   10.3098  -10.7016 H         1 <0>         0.0893
     37 H4         -9.7921   10.5322   -8.3003 H         1 <0>         0.4035
     38 H5         -7.1193   11.4434   -8.2519 H         1 <0>         0.0723
     39 H6         -7.1206    9.7354   -8.7527 H         1 <0>         0.0721
     40 H7         -8.3925    9.1374   -6.7098 H         1 <0>         0.0834
     41 H8         -8.3911   10.8455   -6.2090 H         1 <0>         0.0836
     42 H9         -5.9122   10.8271   -6.1530 H         1 <0>         0.0704
     43 H10        -5.9135    9.1190   -6.6538 H         1 <0>         0.0701
     44 H11        -6.5398    8.7525   -2.2386 H         1 <0>         0.1389
     45 H12        -4.4916    8.3696   -0.9364 H         1 <0>         0.1367
     46 H13        -2.1310    9.3856   -4.3729 H         1 <0>         0.1335
     47 H14        -4.1865    9.7547   -5.6674 H         1 <0>         0.1361
     48 H15        -0.7172    7.1780    0.6871 H         1 <0>         0.0707
     49 H16         0.2023    7.9659   -0.6193 H         1 <0>         0.0993
     50 H17         0.8766    5.5672   -0.2467 H         1 <0>         0.0774
     51 H18         0.2695    5.8735   -1.8919 H         1 <0>         0.0939
     52 H19        -1.3762    4.7449    0.4182 H         1 <0>         0.0975
     53 H20        -2.0173    5.1724   -2.5355 H         1 <0>         0.0939
     54 H21        -3.0743    4.3550   -1.3587 H         1 <0>         0.0780
     55 H22        -3.2418    6.4034   -0.0235 H         1 <0>         0.0737
     56 H23        -3.6732    6.7775   -1.7120 H         1 <0>         0.1008
     57 H24        -1.9146    3.3410    1.2476 H         1 <0>         0.1283
     58 H25        -1.8112    1.5092    2.8875 H         1 <0>         0.1282
     59 H26        -0.3654   -0.4385    2.4714 H         1 <0>         0.1263
     60 H27         0.9826   -0.5599    0.4156 H         1 <0>         0.1294
     61 H28         1.3129    0.2075   -1.8363 H         1 <0>         0.0919
     62 H29         2.0663    1.7682   -1.4305 H         1 <0>         0.0828
     63 H30         1.0269    2.0450   -3.5852 H         1 <0>         0.1093
     64 H31        -0.4805    1.2851   -3.0260 H         1 <0>         0.1027
@<TRIPOS>BOND
     1    1    2 1
     2    1   34 1
     3    1   35 1
     4    1   36 1
     5    2    3 2
     6    2    4 am
     7    4    5 1
     8    4   37 1
     9    5    6 1
    10    5   38 1
    11    5   39 1
    12    6    7 1
    13    6   40 1
    14    6   41 1
    15    7    8 1
    16    7   42 1
    17    7   43 1
    18    8    9 1
    19    9   14 ar
    20    9   10 ar
    21   10   11 ar
    22   10   44 1
    23   11   12 ar
    24   11   45 1
    25   12   13 ar
    26   12   15 1
    27   13   14 ar
    28   13   46 1
    29   14   47 1
    30   15   16 2
    31   15   17 am
    32   17   22 1
    33   17   18 1
    34   18   19 1
    35   18   48 1
    36   18   49 1
    37   19   20 1
    38   19   50 1
    39   19   51 1
    40   20   21 1
    41   20   23 1
    42   20   52 1
    43   21   22 1
    44   21   53 1
    45   21   54 1
    46   22   55 1
    47   22   56 1
    48   23   32 am
    49   23   24 1
    50   24   29 ar
    51   24   25 ar
    52   25   26 ar
    53   25   57 1
    54   26   27 ar
    55   26   58 1
    56   27   28 ar
    57   27   59 1
    58   28   29 ar
    59   28   60 1
    60   29   30 1
    61   30   31 1
    62   30   61 1
    63   30   62 1
    64   31   32 1
    65   31   63 1
    66   31   64 1
    67   32   33 2
