@<TRIPOS>MOLECULE
ZINC01400050
   42    44     0     0     0
SMALL
USER_CHARGES
5-chloro-1-[(2,6-dichlorophenyl)methyl]-N-methyl-6-oxo-N-phenyl-pyridine-3-carboxamide
@<TRIPOS>ATOM
      1 C1         -3.6848    3.1070    0.2037 C.3       1 <0>         0.0458
      2 N1         -3.6597    1.6440    0.1297 N.am      1 <0>        -0.5466
      3 C2         -4.8553    0.9296    0.0031 C.ar      1 <0>         0.1488
      4 C3         -4.8509   -0.4563    0.0939 C.ar      1 <0>        -0.1594
      5 C4         -6.0343   -1.1583   -0.0250 C.ar      1 <0>        -0.0973
      6 C5         -7.2209   -0.4837   -0.2470 C.ar      1 <0>        -0.1426
      7 C6         -7.2278    0.8957   -0.3440 C.ar      1 <0>        -0.0966
      8 C7         -6.0488    1.6041   -0.2195 C.ar      1 <0>        -0.1572
      9 C8         -2.4843    0.9867    0.1837 C.2       1 <0>         0.5819
     10 O1         -2.4518   -0.2163    0.0078 O.2       1 <0>        -0.5073
     11 C9         -1.2381    1.7258    0.4560 C.2       1 <0>        -0.2500
     12 C10        -1.0849    3.0583    0.0011 C.2       1 <0>        -0.0076
     13 C11         0.0778    3.7145    0.2613 C.2       1 <0>        -0.1609
     14 C12         1.0978    3.0597    0.9794 C.2       1 <0>         0.5157
     15 O2          2.1423    3.6433    1.2155 O.2       1 <0>        -0.4839
     16 N2          0.9279    1.7953    1.4069 N.am      1 <0>        -0.4772
     17 C13        -0.2144    1.1266    1.1608 C.2       1 <0>         0.2192
     18 C14         2.0028    1.1360    2.1525 C.3       1 <0>         0.1233
     19 C15         2.9183    0.4240    1.1902 C.ar      1 <0>        -0.1147
     20 C16         2.6712   -0.8927    0.8457 C.ar      1 <0>        -0.0099
     21 C17         3.5085   -1.5439   -0.0427 C.ar      1 <0>        -0.1081
     22 C18         4.5987   -0.8828   -0.5765 C.ar      1 <0>        -0.0787
     23 C19         4.8494    0.4311   -0.2283 C.ar      1 <0>        -0.1101
     24 C20         4.0093    1.0853    0.6553 C.ar      1 <0>        -0.0096
     25 Cl1         4.3239    2.7357    1.0920 Cl        1 <0>        -0.0039
     26 Cl2         1.3064   -1.7256    1.5220 Cl        1 <0>        -0.0486
     27 Cl3         0.3033    5.3459   -0.2875 Cl        1 <0>        -0.0190
     28 H1         -3.7242    3.5211   -0.8038 H         1 <0>         0.0758
     29 H2         -4.5638    3.4274    0.7629 H         1 <0>         0.0855
     30 H3         -2.7851    3.4608    0.7071 H         1 <0>         0.0986
     31 H4         -3.9238   -0.9841    0.2621 H         1 <0>         0.1739
     32 H5         -6.0322   -2.2357    0.0503 H         1 <0>         0.1252
     33 H6         -8.1442   -1.0354   -0.3444 H         1 <0>         0.1218
     34 H7         -8.1562    1.4196   -0.5171 H         1 <0>         0.1256
     35 H8         -6.0549    2.6815   -0.2954 H         1 <0>         0.1258
     36 H9         -1.8776    3.5446   -0.5480 H         1 <0>         0.1631
     37 H10        -0.3285    0.1123    1.5137 H         1 <0>         0.1778
     38 H11         2.5700    1.8823    2.7088 H         1 <0>         0.1294
     39 H12         1.5734    0.4140    2.8471 H         1 <0>         0.1148
     40 H13         3.3128   -2.5703   -0.3156 H         1 <0>         0.1457
     41 H14         5.2547   -1.3930   -1.2662 H         1 <0>         0.1469
     42 H15         5.7013    0.9471   -0.6457 H         1 <0>         0.1446
@<TRIPOS>BOND
     1    1    2 1
     2    1   28 1
     3    1   29 1
     4    1   30 1
     5    2    3 1
     6    2    9 am
     7    3    8 ar
     8    3    4 ar
     9    4    5 ar
    10    4   31 1
    11    5    6 ar
    12    5   32 1
    13    6    7 ar
    14    6   33 1
    15    7    8 ar
    16    7   34 1
    17    8   35 1
    18    9   10 2
    19    9   11 1
    20   11   17 2
    21   11   12 1
    22   12   13 2
    23   12   36 1
    24   13   14 1
    25   13   27 1
    26   14   15 2
    27   14   16 am
    28   16   17 1
    29   16   18 1
    30   17   37 1
    31   18   19 1
    32   18   38 1
    33   18   39 1
    34   19   24 ar
    35   19   20 ar
    36   20   21 ar
    37   20   26 1
    38   21   22 ar
    39   21   40 1
    40   22   23 ar
    41   22   41 1
    42   23   24 ar
    43   23   42 1
    44   24   25 1
@<TRIPOS>MOLECULE
ZINC06941592
   39    40     0     0     0
SMALL
USER_CHARGES

@<TRIPOS>ATOM
      1 C1         -0.0187    1.5258    0.0104 C.3       1 <0>        -0.1687
      2 C2          0.0021   -0.0041    0.0020 C.3       1 <0>         0.1588
      3 C3          0.7421   -0.5109    1.2415 C.3       1 <0>        -0.1681
      4 N1         -1.3723   -0.5112    0.0124 N.am      1 <0>        -0.5939
      5 C4         -1.9478   -1.3653   -1.0332 C.3       1 <0>         0.1138
      6 H1         -1.2411   -2.1463   -1.3136 H         1 <0>         0.1153
      7 C5         -3.2133   -1.9899   -0.4049 C.3       1 <0>        -0.1225
      8 C6         -3.5791   -0.9439    0.6735 C.3       1 <0>        -0.1587
      9 C7         -2.2666   -0.2586    0.9837 C.2       1 <0>         0.5246
     10 O1         -2.0531    0.4217    1.9647 O.2       1 <0>        -0.5194
     11 C8         -2.3154   -0.5384   -2.2383 C.2       1 <0>         0.5019
     12 O2         -2.1188    0.6584   -2.2354 O.2       1 <0>        -0.5152
     13 N2         -2.8626   -1.1289   -3.3192 N.am      1 <0>        -0.7231
     14 C9         -3.2199   -0.3251   -4.4907 C.3       1 <0>         0.1617
     15 C10        -3.8084   -1.2183   -5.5523 C.ar      1 <0>        -0.1152
     16 C11        -3.0254   -1.6435   -6.6093 C.ar      1 <0>        -0.0565
     17 C12        -3.5638   -2.4625   -7.5833 C.ar      1 <0>        -0.1493
     18 C13        -4.8885   -2.8579   -7.5010 C.ar      1 <0>         0.1248
     19 C14        -5.6724   -2.4326   -6.4424 C.ar      1 <0>        -0.1486
     20 C15        -5.1303   -1.6169   -5.4654 C.ar      1 <0>         0.0056
     21 Cl1        -6.1108   -1.0878   -4.1341 Cl        1 <0>        -0.0433
     22 F1         -5.4155   -3.6580   -8.4535 F         1 <0>        -0.1278
     23 H2          1.0039    1.9031    0.0027 H         1 <0>         0.0627
     24 H3         -0.5459    1.8868   -0.8726 H         1 <0>         0.0708
     25 H4         -0.5289    1.8773    0.9072 H         1 <0>         0.0679
     26 H5          0.5123   -0.3556   -0.8948 H         1 <0>         0.0832
     27 H6          0.2319   -0.1594    2.1383 H         1 <0>         0.0719
     28 H7          0.7568   -1.6008    1.2356 H         1 <0>         0.0555
     29 H8          1.7647   -0.1336    1.2338 H         1 <0>         0.0690
     30 H9         -4.0096   -2.0839   -1.1432 H         1 <0>         0.0950
     31 H10        -2.9879   -2.9552    0.0485 H         1 <0>         0.0981
     32 H11        -4.3035   -0.2297    0.2820 H         1 <0>         0.1051
     33 H12        -3.9697   -1.4352    1.5646 H         1 <0>         0.1074
     34 H13        -3.0198   -2.0860   -3.3215 H         1 <0>         0.4026
     35 H14        -3.9523    0.4296   -4.2039 H         1 <0>         0.0861
     36 H15        -2.3278    0.1644   -4.8814 H         1 <0>         0.0845
     37 H16        -1.9924   -1.3351   -6.6740 H         1 <0>         0.1470
     38 H17        -2.9516   -2.7941   -8.4090 H         1 <0>         0.1469
     39 H18        -6.7056   -2.7401   -6.3775 H         1 <0>         0.1502
@<TRIPOS>BOND
     1    1    2 1
     2    1   23 1
     3    1   24 1
     4    1   25 1
     5    2    3 1
     6    2    4 1
     7    2   26 1
     8    3   27 1
     9    3   28 1
    10    3   29 1
    11    4    9 am
    12    4    5 1
    13    5    6 1
    14    5    7 1
    15    5   11 1
    16    7    8 1
    17    7   30 1
    18    7   31 1
    19    8    9 1
    20    8   32 1
    21    8   33 1
    22    9   10 2
    23   11   12 2
    24   11   13 am
    25   13   14 1
    26   13   34 1
    27   14   15 1
    28   14   35 1
    29   14   36 1
    30   15   20 ar
    31   15   16 ar
    32   16   17 ar
    33   16   37 1
    34   17   18 ar
    35   17   38 1
    36   18   19 ar
    37   18   22 1
    38   19   20 ar
    39   19   39 1
    40   20   21 1
@<TRIPOS>MOLECULE
ZINC06941598
   39    40     0     0     0
SMALL
USER_CHARGES

@<TRIPOS>ATOM
      1 C1         -0.0187    1.5258    0.0104 C.3       1 <0>        -0.1703
      2 C2          0.0021   -0.0041    0.0020 C.3       1 <0>         0.1607
      3 C3          0.7421   -0.5109    1.2415 C.3       1 <0>        -0.1600
      4 N1         -1.3723   -0.5112    0.0124 N.am      1 <0>        -0.5963
      5 C4         -1.9478   -1.3653   -1.0332 C.3       1 <0>         0.1129
      6 H1         -2.2151   -0.7670   -1.9042 H         1 <0>         0.1082
      7 C5         -3.2133   -1.9899   -0.4049 C.3       1 <0>        -0.1230
      8 C6         -3.5791   -0.9439    0.6735 C.3       1 <0>        -0.1559
      9 C7         -2.2666   -0.2586    0.9837 C.2       1 <0>         0.5197
     10 O1         -2.0531    0.4217    1.9647 O.2       1 <0>        -0.5196
     11 C8         -0.9699   -2.4438   -1.4224 C.2       1 <0>         0.5090
     12 O2          0.1140   -2.5035   -0.8815 O.2       1 <0>        -0.5161
     13 N2         -1.2997   -3.3419   -2.3716 N.am      1 <0>        -0.7208
     14 C9         -0.3490   -4.3904   -2.7500 C.3       1 <0>         0.1619
     15 C10        -0.9569   -5.2562   -3.8233 C.ar      1 <0>        -0.1157
     16 C11        -1.5199   -6.4745   -3.4917 C.ar      1 <0>        -0.0561
     17 C12        -2.0776   -7.2693   -4.4748 C.ar      1 <0>        -0.1493
     18 C13        -2.0729   -6.8456   -5.7933 C.ar      1 <0>         0.1251
     19 C14        -1.5096   -5.6255   -6.1253 C.ar      1 <0>        -0.1489
     20 C15        -0.9564   -4.8287   -5.1390 C.ar      1 <0>         0.0057
     21 Cl1        -0.2552   -3.2957   -5.5534 Cl        1 <0>        -0.0433
     22 F1         -2.6173   -7.6227   -6.7550 F         1 <0>        -0.1277
     23 H2          1.0039    1.9031    0.0027 H         1 <0>         0.0679
     24 H3         -0.5459    1.8868   -0.8726 H         1 <0>         0.0534
     25 H4         -0.5289    1.8773    0.9072 H         1 <0>         0.0704
     26 H5          0.5123   -0.3556   -0.8948 H         1 <0>         0.0924
     27 H6          0.2319   -0.1594    2.1383 H         1 <0>         0.0633
     28 H7          0.7568   -1.6008    1.2356 H         1 <0>         0.0658
     29 H8          1.7647   -0.1336    1.2338 H         1 <0>         0.0622
     30 H9         -4.0096   -2.0839   -1.1432 H         1 <0>         0.1010
     31 H10        -2.9879   -2.9552    0.0485 H         1 <0>         0.0881
     32 H11        -4.3035   -0.2297    0.2820 H         1 <0>         0.1093
     33 H12        -3.9697   -1.4352    1.5646 H         1 <0>         0.1063
     34 H13        -2.1666   -3.2942   -2.8042 H         1 <0>         0.4032
     35 H14         0.5655   -3.9327   -3.1270 H         1 <0>         0.0866
     36 H15        -0.1166   -5.0019   -1.8782 H         1 <0>         0.0854
     37 H16        -1.5234   -6.8054   -2.4636 H         1 <0>         0.1472
     38 H17        -2.5169   -8.2211   -4.2151 H         1 <0>         0.1470
     39 H18        -1.5051   -5.2943   -7.1533 H         1 <0>         0.1501
@<TRIPOS>BOND
     1    1    2 1
     2    1   23 1
     3    1   24 1
     4    1   25 1
     5    2    3 1
     6    2    4 1
     7    2   26 1
     8    3   27 1
     9    3   28 1
    10    3   29 1
    11    4    9 am
    12    4    5 1
    13    5    6 1
    14    5    7 1
    15    5   11 1
    16    7    8 1
    17    7   30 1
    18    7   31 1
    19    8    9 1
    20    8   32 1
    21    8   33 1
    22    9   10 2
    23   11   12 2
    24   11   13 am
    25   13   14 1
    26   13   34 1
    27   14   15 1
    28   14   35 1
    29   14   36 1
    30   15   20 ar
    31   15   16 ar
    32   16   17 ar
    33   16   37 1
    34   17   18 ar
    35   17   38 1
    36   18   19 ar
    37   18   22 1
    38   19   20 ar
    39   19   39 1
    40   20   21 1
@<TRIPOS>MOLECULE
ZINC13985650
   64    66     0     0     0
SMALL
USER_CHARGES

@<TRIPOS>ATOM
      1 C1         -0.4559    1.2156   -0.2676 C.3       1 <0>        -0.1340
      2 C2         -0.2129   -0.2939   -0.2103 C.3       1 <0>        -0.0817
      3 C3          0.4472   -0.6540    1.1222 C.3       1 <0>        -0.1445
      4 C4         -1.5483   -1.0305   -0.3334 C.3       1 <0>        -0.1354
      5 C5          0.7054   -0.7068   -1.3623 C.3       1 <0>         0.3713
      6 H1          0.2351   -0.4503   -2.3116 H         1 <0>         0.1378
      7 N1          1.9840   -0.0015   -1.2444 N.am      1 <0>        -0.7387
      8 C6          2.5481    0.5576   -2.3333 C.2       1 <0>         0.5116
      9 O1          1.9578    0.5516   -3.3928 O.2       1 <0>        -0.4943
     10 C7          3.9123    1.1901   -2.2344 C.3       1 <0>        -0.1000
     11 C8          4.3112    1.7372   -3.5808 C.ar      1 <0>        -0.0588
     12 C9          4.9955    0.9359   -4.4757 C.ar      1 <0>        -0.0949
     13 C10         5.3636    1.4331   -5.7120 C.ar      1 <0>        -0.1683
     14 C11         5.0463    2.7371   -6.0567 C.ar      1 <0>         0.0980
     15 C12         4.3571    3.5435   -5.1561 C.ar      1 <0>         0.0981
     16 C13         3.9869    3.0374   -3.9205 C.ar      1 <0>        -0.1551
     17 O2          4.0434    4.8240   -5.4898 O.3       1 <0>        -0.3082
     18 C14         3.3351    5.5933   -4.5159 C.3       1 <0>         0.0270
     19 O3          5.4080    3.2279   -7.2723 O.3       1 <0>        -0.3088
     20 C15         6.1136    2.3435   -8.1452 C.3       1 <0>         0.0264
     21 N2          0.9381   -2.1521   -1.3074 N.pl3     1 <0>        -0.7503
     22 C16         0.8690   -2.9059   -2.4601 C.2       1 <0>         0.6906
     23 N3          1.1813   -4.2038   -2.4288 N.2       1 <0>        -0.6002
     24 C17         1.4657   -4.8039   -1.2477 C.1       1 <0>         0.3817
     25 N4          1.7042   -5.3070   -0.2575 N.1       1 <0>        -0.5438
     26 N5          0.4919   -2.3410   -3.6012 N.2       1 <0>        -0.6689
     27 C18        -0.6417   -2.7460   -4.2128 C.2       1 <0>         0.3247
     28 C19        -1.4934   -3.6676   -3.5996 C.2       1 <0>        -0.3044
     29 C20        -2.6507   -4.0748   -4.2338 C.2       1 <0>        -0.0088
     30 C21        -3.0042   -3.5940   -5.4779 C.2       1 <0>        -0.2557
     31 C22        -2.2012   -2.6755   -6.1418 C.2       1 <0>         0.1844
     32 C23        -1.0083   -2.2243   -5.5300 C.2       1 <0>        -0.1535
     33 C24        -0.2032   -1.2950   -6.1975 C.2       1 <0>         0.0096
     34 C25        -0.6062   -0.8383   -7.4453 C.2       1 <0>        -0.2503
     35 C26        -1.7747   -1.2955   -8.0061 C.2       1 <0>         0.1228
     36 N6         -2.5490   -2.1951   -7.3788 N.2       1 <0>        -0.5173
     37 H2          0.4954    1.7403   -0.1799 H         1 <0>         0.0549
     38 H3         -0.9262    1.4721   -1.2169 H         1 <0>         0.0588
     39 H4         -1.1101    1.5097    0.5531 H         1 <0>         0.0565
     40 H5         -0.2070   -0.3599    1.9430 H         1 <0>         0.0609
     41 H6          0.6203   -1.7294    1.1631 H         1 <0>         0.0543
     42 H7          1.3985   -0.1292    1.2099 H         1 <0>         0.0531
     43 H8         -2.0185   -0.7740   -1.2827 H         1 <0>         0.0612
     44 H9         -1.3751   -2.1059   -0.2925 H         1 <0>         0.0589
     45 H10        -2.2025   -0.7364    0.4874 H         1 <0>         0.0554
     46 H11         2.4246    0.0631   -0.3827 H         1 <0>         0.3889
     47 H12         3.8850    2.0009   -1.5064 H         1 <0>         0.0965
     48 H13         4.6379    0.4412   -1.9172 H         1 <0>         0.0996
     49 H14         5.2434   -0.0807   -4.2083 H         1 <0>         0.1249
     50 H15         5.8988    0.8052   -6.4090 H         1 <0>         0.1341
     51 H16         3.4486    3.6600   -3.2211 H         1 <0>         0.1312
     52 H17         3.1485    6.5930   -4.9082 H         1 <0>         0.0979
     53 H18         2.3853    5.1084   -4.2905 H         1 <0>         0.0556
     54 H19         3.9312    5.6654   -3.6062 H         1 <0>         0.0520
     55 H20         7.0417    2.0270   -7.6692 H         1 <0>         0.0528
     56 H21         5.4961    1.4699   -8.3541 H         1 <0>         0.0563
     57 H22         6.3413    2.8589   -9.0783 H         1 <0>         0.0980
     58 H23         1.1407   -2.5789   -0.4603 H         1 <0>         0.3872
     59 H24        -1.2457   -4.0638   -2.6259 H         1 <0>         0.1047
     60 H25        -3.2958   -4.7885   -3.7431 H         1 <0>         0.0992
     61 H26        -3.9174   -3.9367   -5.9418 H         1 <0>         0.1057
     62 H27         0.7136   -0.9396   -5.7509 H         1 <0>         0.1373
     63 H28         0.0007   -0.1205   -7.9771 H         1 <0>         0.1162
     64 H29        -2.0726   -0.9289   -8.9773 H         1 <0>         0.1398
@<TRIPOS>BOND
     1    1    2 1
     2    1   37 1
     3    1   38 1
     4    1   39 1
     5    2    3 1
     6    2    4 1
     7    2    5 1
     8    3   40 1
     9    3   41 1
    10    3   42 1
    11    4   43 1
    12    4   44 1
    13    4   45 1
    14    5    6 1
    15    5    7 1
    16    5   21 1
    17    7    8 am
    18    7   46 1
    19    8    9 2
    20    8   10 1
    21   10   11 1
    22   10   47 1
    23   10   48 1
    24   11   16 ar
    25   11   12 ar
    26   12   13 ar
    27   12   49 1
    28   13   14 ar
    29   13   50 1
    30   14   15 ar
    31   14   19 1
    32   15   16 ar
    33   15   17 1
    34   16   51 1
    35   17   18 1
    36   18   52 1
    37   18   53 1
    38   18   54 1
    39   19   20 1
    40   20   55 1
    41   20   56 1
    42   20   57 1
    43   21   22 1
    44   21   58 1
    45   22   23 2
    46   22   26 1
    47   23   24 1
    48   24   25 3
    49   26   27 2
    50   27   32 1
    51   27   28 1
    52   28   29 2
    53   28   59 1
    54   29   30 1
    55   29   60 1
    56   30   31 2
    57   30   61 1
    58   31   36 1
    59   31   32 1
    60   32   33 2
    61   33   34 1
    62   33   62 1
    63   34   35 2
    64   34   63 1
    65   35   36 1
    66   35   64 1
@<TRIPOS>MOLECULE
ZINC13985650
   65    67     0     0     0
SMALL
USER_CHARGES

@<TRIPOS>ATOM
      1 C1         -2.7173    0.5437   -0.0905 C.3       1 <0>        -0.1389
      2 C2         -2.2133   -0.8953   -0.2180 C.3       1 <0>        -0.0791
      3 C3         -1.9538   -1.4701    1.1760 C.3       1 <0>        -0.1511
      4 C4         -3.2679   -1.7438   -0.9313 C.3       1 <0>        -0.1416
      5 C5         -0.9142   -0.9110   -1.0261 C.3       1 <0>         0.3692
      6 N1          0.0956   -0.0985   -0.3431 N.am      1 <0>        -0.7393
      7 C6          0.8500    0.7696   -1.0457 C.2       1 <0>         0.5119
      8 O1          0.6929    0.8783   -2.2434 O.2       1 <0>        -0.4935
      9 C7          1.8887    1.6053   -0.3431 C.3       1 <0>        -0.0976
     10 C8          2.5879    2.4858   -1.3466 C.ar      1 <0>        -0.0677
     11 C9          3.7201    2.0284   -1.9949 C.ar      1 <0>        -0.0984
     12 C10         4.3650    2.8322   -2.9163 C.ar      1 <0>        -0.1706
     13 C11         3.8767    4.0993   -3.1921 C.ar      1 <0>         0.1023
     14 C12         2.7369    4.5595   -2.5399 C.ar      1 <0>         0.1010
     15 C13         2.0924    3.7469   -1.6210 C.ar      1 <0>        -0.1550
     16 O2          2.2538    5.8024   -2.8072 O.3       1 <0>        -0.3064
     17 C14         1.0801    6.2081   -2.1003 C.3       1 <0>         0.0263
     18 O3          4.5102    4.8915   -4.0979 O.3       1 <0>        -0.3068
     19 C15         5.6744    4.3535   -4.7282 C.3       1 <0>         0.0259
     20 N2         -0.4316   -2.2888   -1.1481 N.pl3     1 <0>        -0.7076
     21 C16         0.0135   -2.7581   -2.3660 C.2       1 <0>         0.6773
     22 N3         -0.1227   -2.0066   -3.4613 N.2       1 <0>        -0.5339
     23 C17         0.1831   -2.5200   -4.6775 C.1       1 <0>         0.3725
     24 N4          0.4395   -2.9503   -5.6970 N.1       1 <0>        -0.4613
     25 N5          0.5776   -3.9574   -2.4495 N.pl3     1 <0>        -0.6465
     26 C18         0.8972   -4.6329   -1.3249 C.2       1 <0>         0.1715
     27 C19         1.1674   -3.9521   -0.1357 C.2       1 <0>        -0.1977
     28 C20         1.4928   -4.6529    1.0089 C.2       1 <0>        -0.0606
     29 C21         1.5623   -6.0310    1.0212 C.2       1 <0>        -0.1157
     30 C22         1.3051   -6.7680   -0.1276 C.2       1 <0>         0.1541
     31 C23         0.9622   -6.0949   -1.3236 C.2       1 <0>        -0.1205
     32 C24         0.6980   -6.8389   -2.4786 C.2       1 <0>        -0.0530
     33 C25         0.7763   -8.2236   -2.4124 C.2       1 <0>        -0.1692
     34 C26         1.1074   -8.8429   -1.2310 C.2       1 <0>         0.1335
     35 N6          1.3732   -8.1381   -0.1198 N.2       1 <0>        -0.4685
     36 H1         -1.9660    1.1481    0.4177 H         1 <0>         0.0602
     37 H2         -2.9022    0.9532   -1.0836 H         1 <0>         0.0620
     38 H3         -3.6428    0.5548    0.4852 H         1 <0>         0.0645
     39 H4         -2.8793   -1.4590    1.7517 H         1 <0>         0.0699
     40 H5         -1.5947   -2.4953    1.0852 H         1 <0>         0.0536
     41 H6         -1.2024   -0.8657    1.6841 H         1 <0>         0.0600
     42 H7         -3.4528   -1.3343   -1.9244 H         1 <0>         0.0641
     43 H8         -2.9088   -2.7689   -1.0221 H         1 <0>         0.0554
     44 H9         -4.1934   -1.7326   -0.3556 H         1 <0>         0.0646
     45 H10        -1.0991   -0.5014   -2.0192 H         1 <0>         0.1475
     46 H11         0.2212   -0.1854    0.6148 H         1 <0>         0.3975
     47 H12         1.4058    2.2266    0.4112 H         1 <0>         0.1033
     48 H13         2.6172    0.9517    0.1366 H         1 <0>         0.1033
     49 H14         4.1017    1.0410   -1.7808 H         1 <0>         0.1227
     50 H15         5.2497    2.4728   -3.4208 H         1 <0>         0.1347
     51 H16         1.2055    4.1002   -1.1162 H         1 <0>         0.1331
     52 H17         0.2641    5.5217   -2.3266 H         1 <0>         0.0551
     53 H18         1.2788    6.1954   -1.0286 H         1 <0>         0.0539
     54 H19         0.8020    7.2166   -2.4063 H         1 <0>         0.1006
     55 H20         6.4222    4.1190   -3.9706 H         1 <0>         0.0547
     56 H21         5.4080    3.4455   -5.2690 H         1 <0>         0.0551
     57 H22         6.0812    5.0857   -5.4257 H         1 <0>         0.1010
     58 H23        -0.4252   -2.8709   -0.3723 H         1 <0>         0.4180
     59 H24         1.1220   -2.8733   -0.1113 H         1 <0>         0.1517
     60 H25         1.6986   -4.1079    1.9184 H         1 <0>         0.1394
     61 H26         1.8205   -6.5433    1.9363 H         1 <0>         0.1400
     62 H27         0.4380   -6.3458   -3.4037 H         1 <0>         0.1319
     63 H28         0.5758   -8.8164   -3.2926 H         1 <0>         0.1437
     64 H29         1.1632   -9.9209   -1.1980 H         1 <0>         0.1669
     65 H30         0.7600   -4.3482   -3.3183 H         1 <0>         0.4266
@<TRIPOS>BOND
     1    1    2 1
     2    1   36 1
     3    1   37 1
     4    1   38 1
     5    2    3 1
     6    2    4 1
     7    2    5 1
     8    3   39 1
     9    3   40 1
    10    3   41 1
    11    4   42 1
    12    4   43 1
    13    4   44 1
    14    5    6 1
    15    5   20 1
    16    5   45 1
    17    6    7 am
    18    6   46 1
    19    7    8 2
    20    7    9 1
    21    9   10 1
    22    9   47 1
    23    9   48 1
    24   10   15 ar
    25   10   11 ar
    26   11   12 ar
    27   11   49 1
    28   12   13 ar
    29   12   50 1
    30   13   14 ar
    31   13   18 1
    32   14   15 ar
    33   14   16 1
    34   15   51 1
    35   16   17 1
    36   17   52 1
    37   17   53 1
    38   17   54 1
    39   18   19 1
    40   19   55 1
    41   19   56 1
    42   19   57 1
    43   20   21 1
    44   20   58 1
    45   21   22 2
    46   21   25 1
    47   22   23 1
    48   23   24 3
    49   25   26 2
    50   25   65 1
    51   26   31 1
    52   26   27 1
    53   27   28 2
    54   27   59 1
    55   28   29 1
    56   28   60 1
    57   29   30 2
    58   29   61 1
    59   30   35 1
    60   30   31 1
    61   31   32 2
    62   32   33 1
    63   32   62 1
    64   33   34 2
    65   33   63 1
    66   34   35 1
    67   34   64 1
@<TRIPOS>MOLECULE
ZINC13985650
   65    67     0     0     0
SMALL
USER_CHARGES

@<TRIPOS>ATOM
      1 C1         -0.7119    1.2062    0.0192 C.3       1 <0>        -0.1406
      2 C2         -0.2109   -0.2395    0.0183 C.3       1 <0>        -0.0783
      3 C3          0.6685   -0.4752    1.2480 C.3       1 <0>        -0.1499
      4 C4         -1.4064   -1.1936    0.0558 C.3       1 <0>        -0.1456
      5 C5          0.6062   -0.4954   -1.2496 C.3       1 <0>         0.3562
      6 H1         -0.0203   -0.3274   -2.1257 H         1 <0>         0.1136
      7 N1          1.7509    0.4182   -1.2856 N.am      1 <0>        -0.7356
      8 C6          2.0682    1.0563   -2.4295 C.2       1 <0>         0.5252
      9 O1          1.3553    0.9442   -3.4042 O.2       1 <0>        -0.5277
     10 C7          3.3088    1.9092   -2.4974 C.3       1 <0>        -0.0977
     11 C8          3.4332    2.5060   -3.8756 C.ar      1 <0>        -0.0707
     12 C9          4.1204    1.8245   -4.8629 C.ar      1 <0>        -0.0977
     13 C10         4.2373    2.3678   -6.1287 C.ar      1 <0>        -0.1696
     14 C11         3.6648    3.5978   -6.4103 C.ar      1 <0>         0.1050
     15 C12         2.9728    4.2835   -5.4167 C.ar      1 <0>         0.1012
     16 C13         2.8552    3.7311   -4.1514 C.ar      1 <0>        -0.1554
     17 O2          2.4092    5.4910   -5.6882 O.3       1 <0>        -0.3055
     18 C14         1.7142    6.1375   -4.6200 C.3       1 <0>         0.0265
     19 O3          3.7793    4.1338   -7.6549 O.3       1 <0>        -0.3060
     20 C15         4.5039    3.3741   -8.6243 C.3       1 <0>         0.0254
     21 N2          1.0859   -1.8796   -1.2504 N.pl3     1 <0>        -0.7437
     22 C16         1.0092   -2.6352   -2.4014 C.2       1 <0>         0.6774
     23 N3          1.5367   -3.8615   -2.4313 N.2       1 <0>        -0.5509
     24 C17         2.0565   -4.4032   -1.3033 C.1       1 <0>         0.3698
     25 N4          2.4923   -4.8573   -0.3576 N.1       1 <0>        -0.4614
     26 N5          0.4107   -2.1433   -3.4800 N.pl3     1 <0>        -0.5911
     27 C18         0.2182   -2.9276   -4.5620 C.2       1 <0>         0.1538
     28 C19         0.3260   -4.3167   -4.4650 C.2       1 <0>        -0.1384
     29 C20         0.1267   -5.1097   -5.5780 C.2       1 <0>        -0.0687
     30 C21        -0.1818   -4.5682   -6.8092 C.2       1 <0>        -0.1203
     31 C22        -0.3037   -3.1944   -6.9734 C.2       1 <0>         0.1443
     32 C23        -0.1140   -2.3413   -5.8611 C.2       1 <0>        -0.1130
     33 C24        -0.2424   -0.9581   -6.0269 C.2       1 <0>        -0.0538
     34 C25        -0.5594   -0.4639   -7.2851 C.2       1 <0>        -0.1730
     35 C26        -0.7416   -1.3240   -8.3415 C.2       1 <0>         0.1232
     36 N6         -0.6102   -2.6520   -8.1956 N.2       1 <0>        -0.4695
     37 H2          0.1398    1.8859   -0.0076 H         1 <0>         0.0612
     38 H3         -1.3384    1.3741   -0.8569 H         1 <0>         0.0605
     39 H4         -1.2940    1.3885    0.9225 H         1 <0>         0.0687
     40 H5          0.0863   -0.2929    2.1513 H         1 <0>         0.0733
     41 H6          1.0254   -1.5051    1.2474 H         1 <0>         0.0567
     42 H7          1.5202    0.2045    1.2213 H         1 <0>         0.0598
     43 H8         -2.0329   -1.0256   -0.8202 H         1 <0>         0.0603
     44 H9         -1.0495   -2.2235    0.0553 H         1 <0>         0.0609
     45 H10        -1.9885   -1.0113    0.9592 H         1 <0>         0.0706
     46 H11         2.2805    0.5638   -0.4860 H         1 <0>         0.4062
     47 H12         3.2407    2.7089   -1.7599 H         1 <0>         0.1062
     48 H13         4.1841    1.2946   -2.2872 H         1 <0>         0.1077
     49 H14         4.5670    0.8657   -4.6447 H         1 <0>         0.1232
     50 H15         4.7752    1.8337   -6.8980 H         1 <0>         0.1358
     51 H16         2.3155    4.2596   -3.3795 H         1 <0>         0.1325
     52 H17         0.8960    5.5018   -4.2815 H         1 <0>         0.0542
     53 H18         2.4024    6.3147   -3.7935 H         1 <0>         0.0540
     54 H19         1.3141    7.0891   -4.9701 H         1 <0>         0.1014
     55 H20         4.0193    2.4079   -8.7650 H         1 <0>         0.0557
     56 H21         4.5198    3.9139   -9.5711 H         1 <0>         0.1020
     57 H22         5.5254    3.2209   -8.2763 H         1 <0>         0.0552
     58 H23         1.4575   -2.2646   -0.4414 H         1 <0>         0.4189
     59 H24         0.5666   -4.7726   -3.5160 H         1 <0>         0.1890
     60 H25         0.2149   -6.1818   -5.4823 H         1 <0>         0.1345
     61 H26        -0.3301   -5.2214   -7.6564 H         1 <0>         0.1341
     62 H27        -0.0982   -0.2878   -5.1924 H         1 <0>         0.1350
     63 H28        -0.6635    0.6007   -7.4343 H         1 <0>         0.1374
     64 H29        -0.9880   -0.9217   -9.3130 H         1 <0>         0.1614
     65 H30         0.1118   -1.2206   -3.4904 H         1 <0>         0.4260
@<TRIPOS>BOND
     1    1    2 1
     2    1   37 1
     3    1   38 1
     4    1   39 1
     5    2    3 1
     6    2    4 1
     7    2    5 1
     8    3   40 1
     9    3   41 1
    10    3   42 1
    11    4   43 1
    12    4   44 1
    13    4   45 1
    14    5    6 1
    15    5    7 1
    16    5   21 1
    17    7    8 am
    18    7   46 1
    19    8    9 2
    20    8   10 1
    21   10   11 1
    22   10   47 1
    23   10   48 1
    24   11   16 ar
    25   11   12 ar
    26   12   13 ar
    27   12   49 1
    28   13   14 ar
    29   13   50 1
    30   14   15 ar
    31   14   19 1
    32   15   16 ar
    33   15   17 1
    34   16   51 1
    35   17   18 1
    36   18   52 1
    37   18   53 1
    38   18   54 1
    39   19   20 1
    40   20   55 1
    41   20   56 1
    42   20   57 1
    43   21   22 1
    44   21   58 1
    45   22   23 2
    46   22   26 1
    47   23   24 1
    48   24   25 3
    49   26   27 2
    50   26   65 1
    51   27   32 1
    52   27   28 1
    53   28   29 2
    54   28   59 1
    55   29   30 1
    56   29   60 1
    57   30   31 2
    58   30   61 1
    59   31   36 1
    60   31   32 1
    61   32   33 2
    62   33   34 1
    63   33   62 1
    64   34   35 2
    65   34   63 1
    66   35   36 1
    67   35   64 1
@<TRIPOS>MOLECULE
ZINC13985654
   64    66     0     0     0
SMALL
USER_CHARGES

@<TRIPOS>ATOM
      1 C1         -0.2628    1.6465   -0.2644 C.3       1 <0>        -0.1446
      2 C2         -0.3082    0.1218   -0.1454 C.3       1 <0>        -0.0826
      3 C3          0.2124   -0.2980    1.2307 C.3       1 <0>        -0.1339
      4 C4         -1.7505   -0.3601   -0.3139 C.3       1 <0>        -0.1353
      5 C5          0.5681   -0.5010   -1.2340 C.3       1 <0>         0.3736
      6 H1          0.5358   -1.5872   -1.1493 H         1 <0>         0.1368
      7 N1          1.9491   -0.0395   -1.0727 N.am      1 <0>        -0.7391
      8 C6          2.9672   -0.9190   -1.1523 C.2       1 <0>         0.5069
      9 O1          2.7484   -2.0747   -1.4481 O.2       1 <0>        -0.4848
     10 C7          4.3774   -0.4665   -0.8738 C.3       1 <0>        -0.0979
     11 C8          5.3192   -1.6327   -1.0294 C.ar      1 <0>        -0.0588
     12 C9          5.6034   -2.4394    0.0567 C.ar      1 <0>        -0.1037
     13 C10         6.4666   -3.5104   -0.0809 C.ar      1 <0>        -0.1723
     14 C11         7.0488   -3.7775   -1.3096 C.ar      1 <0>         0.0966
     15 C12         6.7624   -2.9657   -2.4030 C.ar      1 <0>         0.1089
     16 C13         5.8925   -1.8967   -2.2593 C.ar      1 <0>        -0.1489
     17 O2          7.3313   -3.2238   -3.6109 O.3       1 <0>        -0.3053
     18 C14         6.9914   -2.3487   -4.6883 C.3       1 <0>         0.0259
     19 O3          7.8986   -4.8304   -1.4466 O.3       1 <0>        -0.3070
     20 C15         8.1465   -5.6198   -0.2816 C.3       1 <0>         0.0282
     21 N2          0.0696   -0.0989   -2.5516 N.pl3     1 <0>        -0.7510
     22 C16        -0.0730   -1.0384   -3.5509 C.2       1 <0>         0.6907
     23 N3         -0.6258   -0.6944   -4.7168 N.2       1 <0>        -0.6014
     24 C17        -0.9512    0.5989   -4.9569 C.1       1 <0>         0.3819
     25 N4         -1.2239    1.6831   -5.1582 N.1       1 <0>        -0.5454
     26 N5          0.3393   -2.2853   -3.3538 N.2       1 <0>        -0.6771
     27 C18         1.3088   -2.8072   -4.1353 C.2       1 <0>         0.3472
     28 C19         1.9812   -2.0116   -5.0658 C.2       1 <0>        -0.3039
     29 C20         2.9716   -2.5555   -5.8599 C.2       1 <0>        -0.0128
     30 C21         3.3291   -3.8849   -5.7658 C.2       1 <0>        -0.2552
     31 C22         2.6996   -4.7301   -4.8610 C.2       1 <0>         0.1876
     32 C23         1.6826   -4.2175   -4.0220 C.2       1 <0>        -0.1407
     33 C24         1.0532   -5.0688   -3.1073 C.2       1 <0>         0.0089
     34 C25         1.4533   -6.3970   -3.0482 C.2       1 <0>        -0.2515
     35 C26         2.4489   -6.8580   -3.8757 C.2       1 <0>         0.1208
     36 N6          3.0519   -6.0523   -4.7643 N.2       1 <0>        -0.5137
     37 H2          0.7647    1.9899   -0.1444 H         1 <0>         0.0540
     38 H3         -0.6337    1.9457   -1.2448 H         1 <0>         0.0541
     39 H4         -0.8871    2.0902    0.5111 H         1 <0>         0.0600
     40 H5         -0.4119    0.1457    2.0062 H         1 <0>         0.0557
     41 H6          0.1801   -1.3842    1.3154 H         1 <0>         0.0582
     42 H7          1.2399    0.0454    1.3507 H         1 <0>         0.0563
     43 H8         -2.1214   -0.0610   -1.2942 H         1 <0>         0.0578
     44 H9         -1.7828   -1.4464   -0.2291 H         1 <0>         0.0605
     45 H10        -2.3748    0.0836    0.4617 H         1 <0>         0.0548
     46 H11         2.1308    0.8991   -0.9087 H         1 <0>         0.3881
     47 H12         4.6526    0.3192   -1.5774 H         1 <0>         0.0950
     48 H13         4.4411   -0.0814    0.1440 H         1 <0>         0.0977
     49 H14         5.1502   -2.2323    1.0150 H         1 <0>         0.1211
     50 H15         6.6875   -4.1387    0.7693 H         1 <0>         0.1310
     51 H16         5.6656   -1.2674   -3.1072 H         1 <0>         0.1315
     52 H17         7.5120   -2.6657   -5.5920 H         1 <0>         0.0975
     53 H18         5.9153   -2.3825   -4.8582 H         1 <0>         0.0648
     54 H19         7.2877   -1.3304   -4.4366 H         1 <0>         0.0484
     55 H20         8.5806   -4.9924    0.4968 H         1 <0>         0.0510
     56 H21         7.2085   -6.0450    0.0755 H         1 <0>         0.0536
     57 H22         8.8394   -6.4242   -0.5285 H         1 <0>         0.0968
     58 H23        -0.1601    0.8281   -2.7211 H         1 <0>         0.3865
     59 H24         1.7253   -0.9670   -5.1649 H         1 <0>         0.1003
     60 H25         3.4794   -1.9237   -6.5736 H         1 <0>         0.0947
     61 H26         4.1085   -4.2736   -6.4045 H         1 <0>         0.1031
     62 H27         0.2716   -4.6998   -2.4597 H         1 <0>         0.1283
     63 H28         0.9804   -7.0706   -2.3488 H         1 <0>         0.1144
     64 H29         2.7474   -7.8942   -3.8156 H         1 <0>         0.1377
@<TRIPOS>BOND
     1    1    2 1
     2    1   37 1
     3    1   38 1
     4    1   39 1
     5    2    3 1
     6    2    4 1
     7    2    5 1
     8    3   40 1
     9    3   41 1
    10    3   42 1
    11    4   43 1
    12    4   44 1
    13    4   45 1
    14    5    6 1
    15    5    7 1
    16    5   21 1
    17    7    8 am
    18    7   46 1
    19    8    9 2
    20    8   10 1
    21   10   11 1
    22   10   47 1
    23   10   48 1
    24   11   16 ar
    25   11   12 ar
    26   12   13 ar
    27   12   49 1
    28   13   14 ar
    29   13   50 1
    30   14   15 ar
    31   14   19 1
    32   15   16 ar
    33   15   17 1
    34   16   51 1
    35   17   18 1
    36   18   52 1
    37   18   53 1
    38   18   54 1
    39   19   20 1
    40   20   55 1
    41   20   56 1
    42   20   57 1
    43   21   22 1
    44   21   58 1
    45   22   23 2
    46   22   26 1
    47   23   24 1
    48   24   25 3
    49   26   27 2
    50   27   32 1
    51   27   28 1
    52   28   29 2
    53   28   59 1
    54   29   30 1
    55   29   60 1
    56   30   31 2
    57   30   61 1
    58   31   36 1
    59   31   32 1
    60   32   33 2
    61   33   34 1
    62   33   62 1
    63   34   35 2
    64   34   63 1
    65   35   36 1
    66   35   64 1
@<TRIPOS>MOLECULE
ZINC13985654
   65    67     0     0     0
SMALL
USER_CHARGES

@<TRIPOS>ATOM
      1 C1          2.1139    2.2372   -1.5804 C.3       1 <0>        -0.1535
      2 C2          1.9426    0.7903   -1.1133 C.3       1 <0>        -0.0808
      3 C3          3.0856    0.4216   -0.1655 C.3       1 <0>        -0.1385
      4 C4          0.6066    0.6453   -0.3819 C.3       1 <0>        -0.1458
      5 C5          1.9642   -0.1429   -2.3256 C.3       1 <0>         0.3705
      6 H1          1.8421   -1.1736   -1.9929 H         1 <0>         0.1451
      7 N1          3.2434   -0.0041   -3.0260 N.am      1 <0>        -0.7384
      8 C6          3.9104   -1.1015   -3.4349 C.2       1 <0>         0.5114
      9 O1          3.4515   -2.2040   -3.2230 O.2       1 <0>        -0.4896
     10 C7          5.2262   -0.9587   -4.1554 C.3       1 <0>        -0.0977
     11 C8          5.7605   -2.3248   -4.5011 C.ar      1 <0>        -0.0669
     12 C9          6.5788   -2.9916   -3.6082 C.ar      1 <0>        -0.0985
     13 C10         7.0714   -4.2449   -3.9207 C.ar      1 <0>        -0.1706
     14 C11         6.7449   -4.8357   -5.1308 C.ar      1 <0>         0.1020
     15 C12         5.9209   -4.1647   -6.0293 C.ar      1 <0>         0.1008
     16 C13         5.4266   -2.9108   -5.7078 C.ar      1 <0>        -0.1547
     17 O2          5.5976   -4.7404   -7.2182 O.3       1 <0>        -0.3059
     18 C14         4.7475   -3.9935   -8.0908 C.3       1 <0>         0.0273
     19 O3          7.2290   -6.0684   -5.4399 O.3       1 <0>        -0.3072
     20 C15         8.0691   -6.6974   -4.4701 C.3       1 <0>         0.0260
     21 N2          0.8697    0.2102   -3.2332 N.pl3     1 <0>        -0.7088
     22 C16         0.0808   -0.7799   -3.7799 C.2       1 <0>         0.6739
     23 N3          0.3852   -2.0642   -3.5774 N.2       1 <0>        -0.5308
     24 C17        -0.3116   -3.0346   -4.2167 C.1       1 <0>         0.3725
     25 N4         -0.8958   -3.8482   -4.7527 N.1       1 <0>        -0.4620
     26 N5         -0.9816   -0.4562   -4.5079 N.pl3     1 <0>        -0.6463
     27 C18        -1.3900    0.8292   -4.5718 C.2       1 <0>         0.1722
     28 C19        -1.1179    1.7173   -3.5288 C.2       1 <0>        -0.2058
     29 C20        -1.5398    3.0301   -3.6046 C.2       1 <0>        -0.0600
     30 C21        -2.2354    3.5071   -4.6967 C.2       1 <0>        -0.1158
     31 C22        -2.5382    2.6759   -5.7676 C.2       1 <0>         0.1545
     32 C23        -2.1222    1.3242   -5.7383 C.2       1 <0>        -0.1209
     33 C24        -2.4231    0.4896   -6.8200 C.2       1 <0>        -0.0529
     34 C25        -3.1206    1.0195   -7.8973 C.2       1 <0>        -0.1694
     35 C26        -3.5039    2.3393   -7.8926 C.2       1 <0>         0.1335
     36 N6         -3.2295    3.1460   -6.8552 N.2       1 <0>        -0.4683
     37 H2          3.0657    2.3405   -2.1015 H         1 <0>         0.0604
     38 H3          1.2996    2.4998   -2.2556 H         1 <0>         0.0542
     39 H4          2.0985    2.9020   -0.7167 H         1 <0>         0.0716
     40 H5          3.0702    1.0864    0.6982 H         1 <0>         0.0652
     41 H6          2.9636   -0.6091    0.1672 H         1 <0>         0.0623
     42 H7          4.0374    0.5249   -0.6866 H         1 <0>         0.0609
     43 H8         -0.2077    0.9080   -1.0571 H         1 <0>         0.0562
     44 H9          0.4845   -0.3854   -0.0491 H         1 <0>         0.0651
     45 H10         0.5912    1.3102    0.4818 H         1 <0>         0.0681
     46 H11         3.6103    0.8777   -3.1955 H         1 <0>         0.3971
     47 H12         5.0793   -0.3840   -5.0698 H         1 <0>         0.0995
     48 H13         5.9385   -0.4422   -3.5120 H         1 <0>         0.1049
     49 H14         6.8340   -2.5322   -2.6647 H         1 <0>         0.1253
     50 H15         7.7110   -4.7634   -3.2218 H         1 <0>         0.1357
     51 H16         4.7839   -2.3895   -6.4018 H         1 <0>         0.1300
     52 H17         3.7980   -3.7972   -7.5927 H         1 <0>         0.0534
     53 H18         5.2272   -3.0481   -8.3440 H         1 <0>         0.0534
     54 H19         4.5687   -4.5656   -9.0012 H         1 <0>         0.1006
     55 H20         7.5169   -6.8246   -3.5389 H         1 <0>         0.0553
     56 H21         8.3855   -7.6723   -4.8410 H         1 <0>         0.1006
     57 H22         8.9458   -6.0750   -4.2904 H         1 <0>         0.0548
     58 H23         0.6999    1.1404   -3.4495 H         1 <0>         0.4181
     59 H24        -0.5758    1.3759   -2.6593 H         1 <0>         0.1579
     60 H25        -1.3198    3.7011   -2.7874 H         1 <0>         0.1401
     61 H26        -2.5488    4.5404   -4.7191 H         1 <0>         0.1403
     62 H27        -2.1186   -0.5466   -6.8173 H         1 <0>         0.1315
     63 H28        -3.3626    0.3922   -8.7424 H         1 <0>         0.1435
     64 H29        -4.0454    2.7345   -8.7394 H         1 <0>         0.1670
     65 H30        -1.4643   -1.1431   -4.9937 H         1 <0>         0.4267
@<TRIPOS>BOND
     1    1    2 1
     2    1   37 1
     3    1   38 1
     4    1   39 1
     5    2    3 1
     6    2    4 1
     7    2    5 1
     8    3   40 1
     9    3   41 1
    10    3   42 1
    11    4   43 1
    12    4   44 1
    13    4   45 1
    14    5    6 1
    15    5    7 1
    16    5   21 1
    17    7    8 am
    18    7   46 1
    19    8    9 2
    20    8   10 1
    21   10   11 1
    22   10   47 1
    23   10   48 1
    24   11   16 ar
    25   11   12 ar
    26   12   13 ar
    27   12   49 1
    28   13   14 ar
    29   13   50 1
    30   14   15 ar
    31   14   19 1
    32   15   16 ar
    33   15   17 1
    34   16   51 1
    35   17   18 1
    36   18   52 1
    37   18   53 1
    38   18   54 1
    39   19   20 1
    40   20   55 1
    41   20   56 1
    42   20   57 1
    43   21   22 1
    44   21   58 1
    45   22   23 2
    46   22   26 1
    47   23   24 1
    48   24   25 3
    49   26   27 2
    50   26   65 1
    51   27   32 1
    52   27   28 1
    53   28   29 2
    54   28   59 1
    55   29   30 1
    56   29   60 1
    57   30   31 2
    58   30   61 1
    59   31   36 1
    60   31   32 1
    61   32   33 2
    62   33   34 1
    63   33   62 1
    64   34   35 2
    65   34   63 1
    66   35   36 1
    67   35   64 1
@<TRIPOS>MOLECULE
ZINC13985654
   65    67     0     0     0
SMALL
USER_CHARGES

@<TRIPOS>ATOM
      1 C1         -0.2440    1.6306   -0.2897 C.3       1 <0>        -0.1498
      2 C2         -0.0262    0.1259   -0.1189 C.3       1 <0>        -0.0787
      3 C3          0.7476   -0.1338    1.1752 C.3       1 <0>        -0.1410
      4 C4         -1.3813   -0.5815   -0.0536 C.3       1 <0>        -0.1456
      5 C5          0.7730   -0.4119   -1.3077 C.3       1 <0>         0.3579
      6 H1          0.9282   -1.4839   -1.1860 H         1 <0>         0.1117
      7 N1          2.0705    0.2653   -1.3703 N.am      1 <0>        -0.7358
      8 C6          3.1958   -0.4508   -1.5636 C.2       1 <0>         0.5237
      9 O1          3.1270   -1.6428   -1.7764 O.2       1 <0>        -0.5258
     10 C7          4.5396    0.2297   -1.5152 C.3       1 <0>        -0.0967
     11 C8          5.6258   -0.7856   -1.7608 C.ar      1 <0>        -0.0709
     12 C9          6.1851   -1.4684   -0.6966 C.ar      1 <0>        -0.0988
     13 C10         7.1818   -2.4007   -0.9166 C.ar      1 <0>        -0.1710
     14 C11         7.6222   -2.6529   -2.2060 C.ar      1 <0>         0.1043
     15 C12         7.0590   -1.9659   -3.2771 C.ar      1 <0>         0.1026
     16 C13         6.0570   -1.0362   -3.0501 C.ar      1 <0>        -0.1557
     17 O2          7.4879   -2.2100   -4.5444 O.3       1 <0>        -0.3051
     18 C14         6.8645   -1.4678   -5.5945 C.3       1 <0>         0.0264
     19 O3          8.6030   -3.5694   -2.4241 O.3       1 <0>        -0.3060
     20 C15         9.1349   -4.2357   -1.2773 C.3       1 <0>         0.0258
     21 N2          0.0321   -0.1633   -2.5468 N.pl3     1 <0>        -0.7438
     22 C16        -0.0959   -1.1645   -3.4863 C.2       1 <0>         0.6769
     23 N3         -0.8591   -0.9740   -4.5653 N.2       1 <0>        -0.5514
     24 C17        -1.4255    0.2364   -4.7894 C.1       1 <0>         0.3701
     25 N4         -1.9004    1.2511   -4.9772 N.1       1 <0>        -0.4621
     26 N5          0.5398   -2.3183   -3.3179 N.pl3     1 <0>        -0.5896
     27 C18         0.5189   -3.2494   -4.2954 C.2       1 <0>         0.1582
     28 C19         0.1482   -2.9086   -5.5982 C.2       1 <0>        -0.1385
     29 C20         0.1307   -3.8688   -6.5906 C.2       1 <0>        -0.0678
     30 C21         0.4735   -5.1812   -6.3369 C.2       1 <0>        -0.1211
     31 C22         0.8515   -5.5858   -5.0631 C.2       1 <0>         0.1453
     32 C23         0.8901   -4.6369   -4.0147 C.2       1 <0>        -0.1113
     33 C24         1.2763   -5.0448   -2.7333 C.2       1 <0>        -0.0529
     34 C25         1.6168   -6.3757   -2.5315 C.2       1 <0>        -0.1737
     35 C26         1.5725   -7.2680   -3.5758 C.2       1 <0>         0.1232
     36 N6          1.1931   -6.8894   -4.8066 N.2       1 <0>        -0.4680
     37 H2          0.7214    2.1345   -0.3363 H         1 <0>         0.0601
     38 H3         -0.7953    1.8156   -1.2117 H         1 <0>         0.0566
     39 H4         -0.8134    2.0137    0.5571 H         1 <0>         0.0732
     40 H5          0.1782    0.2493    2.0220 H         1 <0>         0.0689
     41 H6          0.9028   -1.2058    1.2968 H         1 <0>         0.0600
     42 H7          1.7130    0.3701    1.1286 H         1 <0>         0.0619
     43 H8         -1.9326   -0.3965   -0.9755 H         1 <0>         0.0610
     44 H9         -1.2261   -1.6535    0.0681 H         1 <0>         0.0597
     45 H10        -1.9507   -0.1983    0.7933 H         1 <0>         0.0706
     46 H11         2.1197    1.2291   -1.2726 H         1 <0>         0.4061
     47 H12         4.5836    1.0019   -2.2833 H         1 <0>         0.1048
     48 H13         4.6817    0.6840   -0.5347 H         1 <0>         0.1094
     49 H14         5.8427   -1.2728    0.3088 H         1 <0>         0.1248
     50 H15         7.6175   -2.9322   -0.0835 H         1 <0>         0.1362
     51 H16         5.6156   -0.5044   -3.8801 H         1 <0>         0.1314
     52 H17         5.7948   -1.6771   -5.6019 H         1 <0>         0.0542
     53 H18         7.0251   -0.4021   -5.4310 H         1 <0>         0.0541
     54 H19         7.2981   -1.7579   -6.5515 H         1 <0>         0.1023
     55 H20         8.3368   -4.7763   -0.7685 H         1 <0>         0.0553
     56 H21         9.9070   -4.9383   -1.5909 H         1 <0>         0.1016
     57 H22         9.5666   -3.5008   -0.5979 H         1 <0>         0.0552
     58 H23        -0.3685    0.7056   -2.7064 H         1 <0>         0.4187
     59 H24        -0.1263   -1.8902   -5.8303 H         1 <0>         0.1868
     60 H25        -0.1593   -3.5852   -7.5915 H         1 <0>         0.1343
     61 H26         0.4473   -5.9034   -7.1395 H         1 <0>         0.1344
     62 H27         1.3093   -4.3382   -1.9172 H         1 <0>         0.1264
     63 H28         1.9180   -6.7109   -1.5500 H         1 <0>         0.1380
     64 H29         1.8411   -8.2993   -3.4003 H         1 <0>         0.1620
     65 H30         1.0191   -2.4920   -2.4927 H         1 <0>         0.4270
@<TRIPOS>BOND
     1    1    2 1
     2    1   37 1
     3    1   38 1
     4    1   39 1
     5    2    3 1
     6    2    4 1
     7    2    5 1
     8    3   40 1
     9    3   41 1
    10    3   42 1
    11    4   43 1
    12    4   44 1
    13    4   45 1
    14    5    6 1
    15    5    7 1
    16    5   21 1
    17    7    8 am
    18    7   46 1
    19    8    9 2
    20    8   10 1
    21   10   11 1
    22   10   47 1
    23   10   48 1
    24   11   16 ar
    25   11   12 ar
    26   12   13 ar
    27   12   49 1
    28   13   14 ar
    29   13   50 1
    30   14   15 ar
    31   14   19 1
    32   15   16 ar
    33   15   17 1
    34   16   51 1
    35   17   18 1
    36   18   52 1
    37   18   53 1
    38   18   54 1
    39   19   20 1
    40   20   55 1
    41   20   56 1
    42   20   57 1
    43   21   22 1
    44   21   58 1
    45   22   23 2
    46   22   26 1
    47   23   24 1
    48   24   25 3
    49   26   27 2
    50   26   65 1
    51   27   32 1
    52   27   28 1
    53   28   29 2
    54   28   59 1
    55   29   30 1
    56   29   60 1
    57   30   31 2
    58   30   61 1
    59   31   36 1
    60   31   32 1
    61   32   33 2
    62   33   34 1
    63   33   62 1
    64   34   35 2
    65   34   63 1
    66   35   36 1
    67   35   64 1
@<TRIPOS>MOLECULE
ZINC35636067
   29    31     0     0     0
SMALL
USER_CHARGES

@<TRIPOS>ATOM
      1 C1          0.9655   -0.2320    0.9612 C.ar      1 <0>        -0.0966
      2 C2          2.1599    0.4593    0.9574 C.ar      1 <0>        -0.0822
      3 C3          2.3952    1.4353   -0.0106 C.ar      1 <0>        -0.0194
      4 C4          1.4193    1.7071   -0.9710 C.ar      1 <0>         0.0063
      5 C5          0.2271    1.0079   -0.9565 C.ar      1 <0>        -0.0324
      6 C6          0.0013    0.0406    0.0077 C.ar      1 <0>        -0.0736
      7 Cl1        -0.9891    1.3436   -2.1489 Cl        1 <0>        -0.0294
      8 Cl2         1.7020    2.9205   -2.1799 Cl        1 <0>        -0.0135
      9 C7          3.6740    2.1801   -0.0193 C.2       1 <0>         0.2821
     10 N1          3.8185    3.4861   -0.0995 N.2       1 <0>        -0.2989
     11 N2          5.0629    3.8026   -0.0815 N.2       1 <0>        -0.0342
     12 N3          5.7942    2.7451    0.0098 N.2       1 <0>        -0.0672
     13 N4          4.9182    1.6466    0.0598 N.pl3     1 <0>        -0.3651
     14 C8          5.2734    0.2297    0.1709 C.3       1 <0>         0.1647
     15 C9          5.5683   -0.3232   -1.1997 C.ar      1 <0>        -0.1827
     16 C10         4.5401   -0.7896   -2.0048 C.ar      1 <0>        -0.0496
     17 C11         4.8583   -1.2895   -3.2580 C.ar      1 <0>        -0.1720
     18 C12         6.1806   -1.3062   -3.6607 C.ar      1 <0>         0.1183
     19 N5          7.1327   -0.8545   -2.8681 N.ar      1 <0>        -0.4817
     20 C13         6.8661   -0.3664   -1.6723 C.ar      1 <0>         0.1351
     21 H1          0.7849   -0.9909    1.7081 H         1 <0>         0.1531
     22 H2          2.9111    0.2450    1.7032 H         1 <0>         0.1444
     23 H3         -0.9316   -0.5034    0.0154 H         1 <0>         0.1536
     24 H4          6.1555    0.1246    0.8026 H         1 <0>         0.1254
     25 H5          4.4423   -0.3197    0.6131 H         1 <0>         0.1171
     26 H6          3.5158   -0.7645   -1.6634 H         1 <0>         0.1326
     27 H7          4.0830   -1.6615   -3.9114 H         1 <0>         0.1421
     28 H8          6.4368   -1.6940   -4.6355 H         1 <0>         0.1625
     29 H9          7.6720   -0.0006   -1.0533 H         1 <0>         0.1614
@<TRIPOS>BOND
     1    1    6 ar
     2    1    2 ar
     3    1   21 1
     4    2    3 ar
     5    2   22 1
     6    3    4 ar
     7    3    9 1
     8    4    5 ar
     9    4    8 1
    10    5    6 ar
    11    5    7 1
    12    6   23 1
    13    9   13 1
    14    9   10 2
    15   10   11 1
    16   11   12 2
    17   12   13 1
    18   13   14 1
    19   14   15 1
    20   14   24 1
    21   14   25 1
    22   15   20 ar
    23   15   16 ar
    24   16   17 ar
    25   16   26 1
    26   17   18 ar
    27   17   27 1
    28   18   19 ar
    29   18   28 1
    30   19   20 ar
    31   20   29 1
@<TRIPOS>MOLECULE
ZINC27061984
   42    44     0     0     0
SMALL
USER_CHARGES
(1R,4R)-3,3-dimethyl-2-methylene-N'-phenyl-norbornane-1-carbohydrazide
@<TRIPOS>ATOM
      1 C1         -4.5582    0.1184    2.6628 C.3       1 <0>        -0.1404
      2 C2         -4.2277   -0.3223    1.2354 C.3       1 <0>        -0.0315
      3 C3         -5.0458    0.5158    0.2056 C.3       1 <0>        -0.1035
      4 H1         -6.1034    0.6688    0.4666 H         1 <0>         0.1083
      5 C4         -4.8087   -0.1853   -1.1674 C.3       1 <0>        -0.1332
      6 C5         -3.3059    0.0883   -1.4730 C.3       1 <0>        -0.1031
      7 C6         -2.8091    0.9509   -0.2729 C.3       1 <0>        -0.0472
      8 C7         -4.1085    1.7667    0.0570 C.3       1 <0>        -0.0907
      9 C8         -2.7600   -0.0101    0.9232 C.2       1 <0>        -0.0973
     10 C9         -1.6936   -0.4737    1.5265 C.2       1 <0>        -0.1876
     11 C10        -1.5614    1.7599   -0.5172 C.2       1 <0>         0.5430
     12 O1         -1.6012    2.9704   -0.4531 O.2       1 <0>        -0.5392
     13 N1         -0.4011    1.1383   -0.8070 N.am      1 <0>        -0.5290
     14 N2          0.7576    1.8906   -1.0398 N.pl3     1 <0>        -0.5557
     15 C11         1.9587    1.2467   -1.3457 C.ar      1 <0>         0.2255
     16 C12         2.0074   -0.1399   -1.4139 C.ar      1 <0>        -0.2076
     17 C13         3.1953   -0.7732   -1.7223 C.ar      1 <0>        -0.0644
     18 C14         4.3380   -0.0291   -1.9518 C.ar      1 <0>        -0.1809
     19 C15         4.2944    1.3512   -1.8791 C.ar      1 <0>        -0.0631
     20 C16         3.1085    1.9911   -1.5768 C.ar      1 <0>        -0.1927
     21 C17        -4.5190   -1.8139    1.0590 C.3       1 <0>        -0.1450
     22 H2         -5.6122   -0.1078    2.8816 H         1 <0>         0.0600
     23 H3         -4.3874    1.2006    2.7612 H         1 <0>         0.0585
     24 H4         -3.9126   -0.4207    3.3717 H         1 <0>         0.0569
     25 H5         -5.0242   -1.2598   -1.0724 H         1 <0>         0.0816
     26 H6         -5.4735    0.2565   -1.9243 H         1 <0>         0.0697
     27 H7         -2.7656   -0.8675   -1.5406 H         1 <0>         0.0728
     28 H8         -3.2181    0.6274   -2.4278 H         1 <0>         0.0737
     29 H9         -4.4856    2.4138   -0.7486 H         1 <0>         0.0800
     30 H10        -4.0944    2.3288    1.0025 H         1 <0>         0.0783
     31 H11        -0.6932   -0.1606    1.1931 H         1 <0>         0.1048
     32 H12        -1.7985   -1.1761    2.3665 H         1 <0>         0.1137
     33 H13        -0.3640    0.0402   -0.8607 H         1 <0>         0.4418
     34 H14         0.7215    2.9885   -0.9817 H         1 <0>         0.4585
     35 H15         1.1162   -0.7218   -1.2304 H         1 <0>         0.1111
     36 H16         3.2329   -1.8510   -1.7796 H         1 <0>         0.1223
     37 H17         5.2668   -0.5270   -2.1881 H         1 <0>         0.1202
     38 H18         5.1886    1.9294   -2.0592 H         1 <0>         0.1244
     39 H19         3.0751    3.0691   -1.5198 H         1 <0>         0.1235
     40 H20        -4.2768   -2.1155    0.0293 H         1 <0>         0.0665
     41 H21        -5.5841   -2.0053    1.2562 H         1 <0>         0.0608
     42 H22        -3.9055   -2.3932    1.7647 H         1 <0>         0.0562
@<TRIPOS>BOND
     1    1    2 1
     2    1   22 1
     3    1   23 1
     4    1   24 1
     5    2    9 1
     6    2    3 1
     7    2   21 1
     8    3    4 1
     9    3    8 1
    10    3    5 1
    11    5    6 1
    12    5   25 1
    13    5   26 1
    14    6    7 1
    15    6   27 1
    16    6   28 1
    17    7    8 1
    18    7    9 1
    19    7   11 1
    20    8   29 1
    21    8   30 1
    22    9   10 2
    23   10   31 1
    24   10   32 1
    25   11   12 2
    26   11   13 am
    27   13   14 1
    28   13   33 1
    29   14   15 1
    30   14   34 1
    31   15   20 ar
    32   15   16 ar
    33   16   17 ar
    34   16   35 1
    35   17   18 ar
    36   17   36 1
    37   18   19 ar
    38   18   37 1
    39   19   20 ar
    40   19   38 1
    41   20   39 1
    42   21   40 1
    43   21   41 1
    44   21   42 1
@<TRIPOS>MOLECULE
ZINC27061988
   42    44     0     0     0
SMALL
USER_CHARGES
(1S,4S)-3,3-dimethyl-2-methylene-N'-phenyl-norbornane-1-carbohydrazide
@<TRIPOS>ATOM
      1 C1          4.7526    0.2884    2.5505 C.3       1 <0>        -0.1398
      2 C2          4.2372   -0.2110    1.1993 C.3       1 <0>        -0.0326
      3 C3          4.8552    0.6282    0.0390 C.3       1 <0>        -0.1029
      4 H1          5.9310    0.8390    0.1301 H         1 <0>         0.1096
      5 C4          4.4383   -0.1370   -1.2546 C.3       1 <0>        -0.1350
      6 C5          2.8896    0.0681   -1.3538 C.3       1 <0>        -0.1038
      7 C6          2.5546    0.9522   -0.1139 C.3       1 <0>        -0.0461
      8 C7          3.8487    1.8326   -0.0005 C.3       1 <0>        -0.0903
      9 C8          2.7365    0.0153    1.0886 C.2       1 <0>        -0.0973
     10 C9          1.7992   -0.4833    1.8561 C.2       1 <0>        -0.1881
     11 C10         1.2468    1.6986   -0.1731 C.2       1 <0>         0.5428
     12 O1          1.2390    2.9112   -0.1495 O.2       1 <0>        -0.5393
     13 N1          0.0858    1.0187   -0.2524 N.am      1 <0>        -0.5290
     14 N2         -1.1297    1.7127   -0.3133 N.pl3     1 <0>        -0.5557
     15 C11        -2.3325    1.0081   -0.4013 C.ar      1 <0>         0.2255
     16 C12        -2.3251   -0.3805   -0.4342 C.ar      1 <0>        -0.2077
     17 C13        -3.5165   -1.0742   -0.5154 C.ar      1 <0>        -0.0644
     18 C14        -4.7154   -0.3876   -0.5754 C.ar      1 <0>        -0.1809
     19 C15        -4.7261    0.9950   -0.5486 C.ar      1 <0>        -0.0631
     20 C16        -3.5386    1.6947   -0.4617 C.ar      1 <0>        -0.1927
     21 C17         4.5665   -1.6944    1.0204 C.3       1 <0>        -0.1458
     22 H2          5.8374    0.1179    2.6149 H         1 <0>         0.0604
     23 H3          4.2469   -0.2578    3.3604 H         1 <0>         0.0567
     24 H4          4.5440    1.3641    2.6476 H         1 <0>         0.0585
     25 H5          4.9641    0.2924   -2.1201 H         1 <0>         0.0685
     26 H6          4.7046   -1.1995   -1.1540 H         1 <0>         0.0820
     27 H7          2.6462    0.5699   -2.3019 H         1 <0>         0.0742
     28 H8          2.3871   -0.9097   -1.3169 H         1 <0>         0.0738
     29 H9          3.9472    2.4232    0.9223 H         1 <0>         0.0787
     30 H10         4.0728    2.4694   -0.8690 H         1 <0>         0.0803
     31 H11         0.7440   -0.2380    1.6656 H         1 <0>         0.1041
     32 H12         2.0674   -1.1473    2.6911 H         1 <0>         0.1137
     33 H13         0.0926   -0.0811   -0.2693 H         1 <0>         0.4416
     34 H14        -1.1368    2.8125   -0.2918 H         1 <0>         0.4586
     35 H15        -1.3888   -0.9173   -0.3918 H         1 <0>         0.1110
     36 H16        -3.5117   -2.1539   -0.5369 H         1 <0>         0.1223
     37 H17        -5.6455   -0.9323   -0.6430 H         1 <0>         0.1202
     38 H18        -5.6641    1.5282   -0.5960 H         1 <0>         0.1244
     39 H19        -3.5477    2.7745   -0.4405 H         1 <0>         0.1235
     40 H20         4.1902   -2.0385    0.0457 H         1 <0>         0.0673
     41 H21         4.0895   -2.2753    1.8235 H         1 <0>         0.0562
     42 H22         5.6565   -1.8358    1.0633 H         1 <0>         0.0604
@<TRIPOS>BOND
     1    1    2 1
     2    1   22 1
     3    1   23 1
     4    1   24 1
     5    2    9 1
     6    2    3 1
     7    2   21 1
     8    3    4 1
     9    3    8 1
    10    3    5 1
    11    5    6 1
    12    5   25 1
    13    5   26 1
    14    6    7 1
    15    6   27 1
    16    6   28 1
    17    7    8 1
    18    7    9 1
    19    7   11 1
    20    8   29 1
    21    8   30 1
    22    9   10 2
    23   10   31 1
    24   10   32 1
    25   11   12 2
    26   11   13 am
    27   13   14 1
    28   13   33 1
    29   14   15 1
    30   14   34 1
    31   15   20 ar
    32   15   16 ar
    33   16   17 ar
    34   16   35 1
    35   17   18 ar
    36   17   36 1
    37   18   19 ar
    38   18   37 1
    39   19   20 ar
    40   19   38 1
    41   20   39 1
    42   21   40 1
    43   21   41 1
    44   21   42 1
@<TRIPOS>MOLECULE
ZINC43203068
   40    42     0     0     0
SMALL
USER_CHARGES

@<TRIPOS>ATOM
      1 C1         -1.6739   -2.4150    1.4615 C.3       1 <0>        -0.1541
      2 C2         -1.8985   -0.9171    1.2452 C.3       1 <0>         0.1922
      3 H1         -2.9677   -0.7054    1.2513 H         1 <0>         0.1007
      4 C3         -1.2270   -0.1437    2.3506 C.ar      1 <0>        -0.0835
      5 C4          0.1339    0.0935    2.3002 C.ar      1 <0>        -0.1144
      6 C5          0.7499    0.8030    3.3142 C.ar      1 <0>        -0.1170
      7 C6          0.0049    1.2755    4.3784 C.ar      1 <0>        -0.1257
      8 C7         -1.3562    1.0390    4.4284 C.ar      1 <0>        -0.1189
      9 C8         -1.9729    0.3333    3.4123 C.ar      1 <0>        -0.1082
     10 N1         -1.3292   -0.5193   -0.0447 N.pl3     1 <0>        -0.7438
     11 C9         -2.0389   -0.7343   -1.2073 C.2       1 <0>         0.6823
     12 N2         -1.4790   -0.4688   -2.3901 N.2       1 <0>        -0.6043
     13 C10        -0.1803   -0.0877   -2.4546 C.1       1 <0>         0.3822
     14 N3          0.9085    0.2318   -2.5087 N.1       1 <0>        -0.5446
     15 N4         -3.2793   -1.2054   -1.1506 N.2       1 <0>        -0.6818
     16 C11        -3.6003   -2.3421   -1.8047 C.2       1 <0>         0.3188
     17 C12        -2.6140   -3.1095   -2.4286 C.2       1 <0>        -0.2942
     18 C13        -2.9532   -4.2708   -3.0945 C.2       1 <0>        -0.0109
     19 C14        -4.2591   -4.7105   -3.1678 C.2       1 <0>        -0.2512
     20 C15        -5.2873   -3.9938   -2.5689 C.2       1 <0>         0.1821
     21 C16        -4.9885   -2.8006   -1.8705 C.2       1 <0>        -0.1531
     22 C17        -6.0244   -2.0827   -1.2631 C.2       1 <0>         0.0023
     23 C18        -7.3206   -2.5705   -1.3614 C.2       1 <0>        -0.2493
     24 C19        -7.5720   -3.7366   -2.0440 C.2       1 <0>         0.1221
     25 N5         -6.5868   -4.4274   -2.6394 N.2       1 <0>        -0.5137
     26 H2         -2.0975   -2.7111    2.4213 H         1 <0>         0.0601
     27 H3         -2.1596   -2.9744    0.6620 H         1 <0>         0.0697
     28 H4         -0.6047   -2.6267    1.4555 H         1 <0>         0.0507
     29 H5          0.7160   -0.2756    1.4687 H         1 <0>         0.1179
     30 H6          1.8132    0.9878    3.2751 H         1 <0>         0.1205
     31 H7          0.4862    1.8292    5.1710 H         1 <0>         0.1193
     32 H8         -1.9382    1.4079    5.2600 H         1 <0>         0.1215
     33 H9         -3.0369    0.1517    3.4494 H         1 <0>         0.1253
     34 H10        -0.4531   -0.1046   -0.0810 H         1 <0>         0.3908
     35 H11        -1.5821   -2.7932   -2.3903 H         1 <0>         0.1107
     36 H12        -2.1760   -4.8499   -3.5708 H         1 <0>         0.1011
     37 H13        -4.4849   -5.6238   -3.6982 H         1 <0>         0.1071
     38 H14        -5.8197   -1.1673   -0.7279 H         1 <0>         0.1324
     39 H15        -8.1346   -2.0316   -0.8994 H         1 <0>         0.1179
     40 H16        -8.5865   -4.1012   -2.1099 H         1 <0>         0.1411
@<TRIPOS>BOND
     1    1    2 1
     2    1   26 1
     3    1   27 1
     4    1   28 1
     5    2    3 1
     6    2    4 1
     7    2   10 1
     8    4    9 ar
     9    4    5 ar
    10    5    6 ar
    11    5   29 1
    12    6    7 ar
    13    6   30 1
    14    7    8 ar
    15    7   31 1
    16    8    9 ar
    17    8   32 1
    18    9   33 1
    19   10   11 1
    20   10   34 1
    21   11   12 2
    22   11   15 1
    23   12   13 1
    24   13   14 3
    25   15   16 2
    26   16   21 1
    27   16   17 1
    28   17   18 2
    29   17   35 1
    30   18   19 1
    31   18   36 1
    32   19   20 2
    33   19   37 1
    34   20   25 1
    35   20   21 1
    36   21   22 2
    37   22   23 1
    38   22   38 1
    39   23   24 2
    40   23   39 1
    41   24   25 1
    42   24   40 1
@<TRIPOS>MOLECULE
ZINC43203068
   41    43     0     0     0
SMALL
USER_CHARGES

@<TRIPOS>ATOM
      1 H1          2.5922    1.8424   -3.3370 H         1 <0>         0.1244
      2 C1          2.2418    2.7488   -2.8656 C.ar      1 <0>        -0.1149
      3 C2          0.8870    3.0159   -2.8027 C.ar      1 <0>        -0.1133
      4 C3          0.4385    4.1760   -2.1993 C.ar      1 <0>        -0.1024
      5 C4          1.3449    5.0687   -1.6585 C.ar      1 <0>        -0.0991
      6 C5          2.6997    4.8011   -1.7206 C.ar      1 <0>        -0.1177
      7 C6          3.1479    3.6389   -2.3201 C.ar      1 <0>        -0.1132
      8 C7          0.8561    6.3338   -1.0016 C.3       1 <0>         0.1950
      9 H2         -0.1928    6.2193   -0.7281 H         1 <0>         0.1114
     10 C8          1.0042    7.5043   -1.9757 C.3       1 <0>        -0.1612
     11 N1          1.6487    6.5969    0.2020 N.pl3     1 <0>        -0.6992
     12 C9          1.1151    7.3468    1.2288 C.2       1 <0>         0.6795
     13 N2         -0.0671    7.9477    1.0721 N.2       1 <0>        -0.5552
     14 C10        -0.5262    8.7976    2.0223 C.1       1 <0>         0.3716
     15 N3         -0.9112    9.5101    2.8189 N.1       1 <0>        -0.4620
     16 N4          1.7767    7.4714    2.3735 N.pl3     1 <0>        -0.6455
     17 C11         2.8672    6.7109    2.6091 C.2       1 <0>         0.1667
     18 C12         3.0174    5.4674    1.9910 C.2       1 <0>        -0.1944
     19 C13         4.1371    4.6978    2.2386 C.2       1 <0>        -0.0597
     20 C14         5.1345    5.1213    3.0929 C.2       1 <0>        -0.1146
     21 C15         5.0464    6.3476    3.7394 C.2       1 <0>         0.1533
     22 C16         3.9208    7.1739    3.5131 C.2       1 <0>        -0.1196
     23 C17         3.8361    8.4111    4.1607 C.2       1 <0>        -0.0535
     24 C18         4.8689    8.7933    5.0063 C.2       1 <0>        -0.1691
     25 C19         5.9496    7.9661    5.1975 C.2       1 <0>         0.1328
     26 N5          6.0358    6.7724    4.5894 N.2       1 <0>        -0.4680
     27 H3          0.1789    2.3185   -3.2252 H         1 <0>         0.1262
     28 H4         -0.6199    4.3850   -2.1508 H         1 <0>         0.1280
     29 H5          3.4078    5.4987   -1.2984 H         1 <0>         0.1173
     30 H6          4.2061    3.4281   -2.3654 H         1 <0>         0.1252
     31 H7          2.0531    7.6188   -2.2493 H         1 <0>         0.0576
     32 H8          0.4144    7.3086   -2.8712 H         1 <0>         0.0732
     33 H9          0.6506    8.4194   -1.5006 H         1 <0>         0.0745
     34 H10         2.5490    6.2435    0.2767 H         1 <0>         0.4214
     35 H11         2.2548    5.1062    1.3169 H         1 <0>         0.1541
     36 H12         4.2343    3.7390    1.7511 H         1 <0>         0.1401
     37 H13         5.9950    4.4908    3.2614 H         1 <0>         0.1405
     38 H14         2.9841    9.0565    4.0056 H         1 <0>         0.1320
     39 H15         4.8230    9.7446    5.5155 H         1 <0>         0.1436
     40 H16         6.7438    8.2800    5.8586 H         1 <0>         0.1669
     41 H17         1.4766    8.1087    3.0403 H         1 <0>         0.4273
@<TRIPOS>BOND
     1    1    2 1
     2    2    7 ar
     3    2    3 ar
     4    3    4 ar
     5    3   27 1
     6    4    5 ar
     7    4   28 1
     8    5    6 ar
     9    5    8 1
    10    6    7 ar
    11    6   29 1
    12    7   30 1
    13    8    9 1
    14    8   10 1
    15    8   11 1
    16   10   31 1
    17   10   32 1
    18   10   33 1
    19   11   12 1
    20   11   34 1
    21   12   13 2
    22   12   16 1
    23   13   14 1
    24   14   15 3
    25   16   17 2
    26   16   41 1
    27   17   22 1
    28   17   18 1
    29   18   19 2
    30   18   35 1
    31   19   20 1
    32   19   36 1
    33   20   21 2
    34   20   37 1
    35   21   26 1
    36   21   22 1
    37   22   23 2
    38   23   24 1
    39   23   38 1
    40   24   25 2
    41   24   39 1
    42   25   26 1
    43   25   40 1
@<TRIPOS>MOLECULE
ZINC43203068
   41    43     0     0     0
SMALL
USER_CHARGES

@<TRIPOS>ATOM
      1 H1          4.0089    1.9788   -2.8378 H         1 <0>         0.1267
      2 C1          3.6431    2.5911   -2.0269 C.ar      1 <0>        -0.1114
      3 C2          4.5108    3.0235   -1.0414 C.ar      1 <0>        -0.1134
      4 C3          4.0425    3.8073   -0.0035 C.ar      1 <0>        -0.1055
      5 C4          2.7067    4.1591    0.0488 C.ar      1 <0>        -0.1003
      6 C5          1.8392    3.7275   -0.9372 C.ar      1 <0>        -0.1114
      7 C6          2.3083    2.9473   -1.9775 C.ar      1 <0>        -0.1115
      8 C7          2.1961    5.0127    1.1808 C.3       1 <0>         0.1744
      9 H2          3.0305    5.5400    1.6433 H         1 <0>         0.0889
     10 C8          1.5143    4.1235    2.2227 C.3       1 <0>        -0.1700
     11 N1          1.2310    5.9853    0.6622 N.pl3     1 <0>        -0.7365
     12 C9          1.0295    7.1775    1.3252 C.2       1 <0>         0.6787
     13 N2          0.0788    8.0190    0.9117 N.2       1 <0>        -0.5558
     14 C10        -0.7688    7.6497   -0.0789 C.1       1 <0>         0.3705
     15 N3         -1.4794    7.3401   -0.9093 N.1       1 <0>        -0.4618
     16 N4          1.7810    7.4887    2.3750 N.pl3     1 <0>        -0.5969
     17 C11         1.6568    8.6997    2.9590 C.2       1 <0>         0.1482
     18 C12         0.4874    9.4484    2.8080 C.2       1 <0>        -0.1300
     19 C13         0.3706   10.6857    3.4100 C.2       1 <0>        -0.0692
     20 C14         1.3889   11.2213    4.1719 C.2       1 <0>        -0.1177
     21 C15         2.5775   10.5282    4.3615 C.2       1 <0>         0.1428
     22 C16         2.7420    9.2542    3.7692 C.2       1 <0>        -0.1112
     23 C17         3.9377    8.5549    3.9656 C.2       1 <0>        -0.0624
     24 C18         4.9294    9.1353    4.7451 C.2       1 <0>        -0.1716
     25 C19         4.7316   10.3729    5.3090 C.2       1 <0>         0.1212
     26 N5          3.5923   11.0570    5.1181 N.2       1 <0>        -0.4656
     27 H3          5.5544    2.7486   -1.0823 H         1 <0>         0.1279
     28 H4          4.7203    4.1445    0.7668 H         1 <0>         0.1260
     29 H5          0.7955    4.0020   -0.8962 H         1 <0>         0.1189
     30 H6          1.6313    2.6132   -2.7498 H         1 <0>         0.1272
     31 H7          0.6799    3.5963    1.7602 H         1 <0>         0.0710
     32 H8          2.2323    3.3999    2.6085 H         1 <0>         0.0800
     33 H9          1.1449    4.7410    3.0415 H         1 <0>         0.0650
     34 H10         0.7338    5.7906   -0.1476 H         1 <0>         0.4208
     35 H11        -0.3286    9.0582    2.2177 H         1 <0>         0.1928
     36 H12        -0.5416   11.2493    3.2808 H         1 <0>         0.1356
     37 H13         1.2600   12.1924    4.6265 H         1 <0>         0.1350
     38 H14         4.0864    7.5825    3.5198 H         1 <0>         0.1272
     39 H15         5.8597    8.6119    4.9093 H         1 <0>         0.1392
     40 H16         5.5139   10.8088    5.9127 H         1 <0>         0.1625
     41 H17         2.4192    6.8459    2.7223 H         1 <0>         0.4217
@<TRIPOS>BOND
     1    1    2 1
     2    2    7 ar
     3    2    3 ar
     4    3    4 ar
     5    3   27 1
     6    4    5 ar
     7    4   28 1
     8    5    6 ar
     9    5    8 1
    10    6    7 ar
    11    6   29 1
    12    7   30 1
    13    8    9 1
    14    8   10 1
    15    8   11 1
    16   10   31 1
    17   10   32 1
    18   10   33 1
    19   11   12 1
    20   11   34 1
    21   12   13 2
    22   12   16 1
    23   13   14 1
    24   14   15 3
    25   16   17 2
    26   16   41 1
    27   17   22 1
    28   17   18 1
    29   18   19 2
    30   18   35 1
    31   19   20 1
    32   19   36 1
    33   20   21 2
    34   20   37 1
    35   21   26 1
    36   21   22 1
    37   22   23 2
    38   23   24 1
    39   23   38 1
    40   24   25 2
    41   24   39 1
    42   25   26 1
    43   25   40 1
