@<TRIPOS>MOLECULE
ZINC06844860
   36    37     0     0     0
SMALL
USER_CHARGES

@<TRIPOS>ATOM
      1 C1          2.2876    1.3316    1.4747 C.ar      1 <0>        -0.1037
      2 C2          3.2589    2.1282    0.9786 C.ar      1 <0>        -0.1148
      3 C3          3.5292    3.3864    1.5649 C.ar      1 <0>         0.0676
      4 C4          2.7961    3.8493    2.6822 C.ar      1 <0>        -0.6537
      5 C5          1.8097    3.0982    3.2179 C.ar      1 <0>         0.0187
      6 C6          1.5095    1.7846    2.6345 C.ar      1 <0>         0.0428
      7 N1          0.5556    1.0286    3.1392 N.2       1 <0>        -0.4142
      8 C7          0.3061   -0.0856    2.6304 C.1       1 <0>         0.2033
      9 S1         -0.0040   -1.4703    1.9979 S.2       1 <0>        -0.0531
     10 S2          3.1692    5.4243    3.3785 S.o2      1 <0>         2.6928
     11 O1          2.3649    5.5544    4.5427 O.2       1 <0>        -1.0563
     12 O2          4.5860    5.5264    3.4160 O.2       1 <0>        -1.0407
     13 C8          4.5432    4.1905    1.0279 C.2       1 <0>        -0.1089
     14 C9          5.4655    3.6471    0.1472 C.2       1 <0>        -0.1070
     15 C10         6.4794    4.4512   -0.3898 C.ar      1 <0>         0.0636
     16 C11         6.3636    5.8584   -0.3095 C.ar      1 <0>        -0.1155
     17 C12         7.3277    6.6587   -0.8138 C.ar      1 <0>        -0.1037
     18 C13         8.4987    6.0531   -1.4602 C.ar      1 <0>         0.0442
     19 C14         8.5879    4.5893   -1.5332 C.ar      1 <0>         0.0207
     20 C15         7.5955    3.8397   -1.0065 C.ar      1 <0>        -0.6529
     21 S3          7.6927    2.0823   -1.0880 S.o2      1 <0>         2.6935
     22 O3          9.0328    1.7655   -1.4387 O.2       1 <0>        -1.0551
     23 O4          7.0766    1.5863    0.0925 O.2       1 <0>        -1.0394
     24 N2          9.4518    6.8093   -1.9660 N.2       1 <0>        -0.4145
     25 C16         9.3643    8.0544   -1.8976 C.1       1 <0>         0.2035
     26 S4          9.2555    9.6018   -1.8125 S.2       1 <0>        -0.0517
     27 H1          2.0856    0.3715    1.0232 H         1 <0>         0.1302
     28 H2          3.8352    1.8008    0.1258 H         1 <0>         0.1483
     29 H3          1.2504    3.4582    4.0687 H         1 <0>         0.1514
     30 H4          4.6062    5.2338    1.3002 H         1 <0>         0.1526
     31 H5          5.4025    2.6039   -0.1251 H         1 <0>         0.1627
     32 H6          5.4978    6.2975    0.1637 H         1 <0>         0.1483
     33 H7          7.2363    7.7327   -0.7458 H         1 <0>         0.1305
     34 H8          9.4378    4.1171   -2.0033 H         1 <0>         0.1506
     35 O5          2.6830    6.4782    2.3939 O.3       1 <0>        -1.0699
     36 O6          6.8212    1.6370   -2.2536 O.3       1 <0>        -1.0701
@<TRIPOS>BOND
     1    1    6 ar
     2    1    2 ar
     3    1   27 1
     4    2    3 ar
     5    2   28 1
     6    3    4 ar
     7    3   13 1
     8    4    5 ar
     9    4   10 1
    10    5    6 ar
    11    5   29 1
    12    6    7 1
    13    7    8 2
    14    8    9 2
    15   10   11 2
    16   10   12 2
    17   10   35 1
    18   13   14 2
    19   13   30 1
    20   14   15 1
    21   14   31 1
    22   15   20 ar
    23   15   16 ar
    24   16   17 ar
    25   16   32 1
    26   17   18 ar
    27   17   33 1
    28   18   19 ar
    29   18   24 1
    30   19   20 ar
    31   19   34 1
    32   20   21 1
    33   21   22 2
    34   21   23 2
    35   21   36 1
    36   24   25 2
    37   25   26 2
