@<TRIPOS>MOLECULE
ZINC00015250
   34    35     0     0     0
SMALL
USER_CHARGES
5-[(4-ethoxyphenyl)carbamoyl]pyridine-2-carboxylic acid
@<TRIPOS>ATOM
      1 C1          2.1711    5.6297   -0.1164 C.3       1 <0>        -0.1524
      2 C2          2.3931    4.1166   -0.1621 C.3       1 <0>         0.0540
      3 O1          1.1461    3.4461    0.0312 O.3       1 <0>        -0.3174
      4 C3          1.1677    2.0866    0.0184 C.ar      1 <0>         0.1111
      5 C4         -0.0079    1.3728    0.2001 C.ar      1 <0>        -0.1310
      6 C5          0.0133   -0.0077    0.1873 C.ar      1 <0>        -0.0802
      7 C6          1.2117   -0.6817   -0.0078 C.ar      1 <0>         0.1172
      8 C7          2.3881    0.0336   -0.1897 C.ar      1 <0>        -0.1059
      9 C8          2.3653    1.4141   -0.1765 C.ar      1 <0>        -0.1889
     10 N1          1.2340   -2.0816   -0.0205 N.am      1 <0>        -0.6707
     11 C9          0.1811   -2.7679   -0.5070 C.2       1 <0>         0.5735
     12 O2         -0.7459   -2.1741   -1.0221 O.2       1 <0>        -0.5222
     13 C10         0.1536   -4.2445   -0.4139 C.ar      1 <0>        -0.2122
     14 C11        -0.9344   -4.9665   -0.9156 C.ar      1 <0>        -0.0254
     15 C12        -0.9148   -6.3464   -0.8056 C.ar      1 <0>        -0.1488
     16 C13         0.1792   -6.9647   -0.2036 C.ar      1 <0>         0.1334
     17 N2          1.1953   -6.2482    0.2615 N.ar      1 <0>        -0.4405
     18 C14         1.2169   -4.9375    0.1713 C.ar      1 <0>         0.1232
     19 C15         0.2090   -8.4417   -0.0813 C.2       1 <0>         0.4967
     20 O3         -0.7160   -9.1046   -0.5043 O.co2     1 <0>        -0.6187
     21 H1          1.7560    5.9069    0.8526 H         1 <0>         0.0658
     22 H2          3.1223    6.1411   -0.2639 H         1 <0>         0.0771
     23 H3          1.4768    5.9191   -0.9053 H         1 <0>         0.0659
     24 H4          3.0874    3.8272    0.6267 H         1 <0>         0.0612
     25 H5          2.8083    3.8394   -1.1311 H         1 <0>         0.0610
     26 H6         -0.9405    1.8971    0.3473 H         1 <0>         0.1336
     27 H7         -0.9020   -0.5633    0.3291 H         1 <0>         0.1429
     28 H8          3.3206   -0.4899   -0.3410 H         1 <0>         0.1300
     29 H9          3.2801    1.9705   -0.3180 H         1 <0>         0.1302
     30 H10         2.0073   -2.5574    0.3208 H         1 <0>         0.4116
     31 H11        -1.7688   -4.4600   -1.3777 H         1 <0>         0.1439
     32 H12        -1.7377   -6.9364   -1.1814 H         1 <0>         0.1505
     33 H13         2.0636   -4.3894    0.5573 H         1 <0>         0.1503
     34 O4          1.2620   -9.0482    0.4990 O.co2     1 <0>        -0.7188
@<TRIPOS>BOND
     1    1    2 1
     2    1   21 1
     3    1   22 1
     4    1   23 1
     5    2    3 1
     6    2   24 1
     7    2   25 1
     8    3    4 1
     9    4    9 ar
    10    4    5 ar
    11    5    6 ar
    12    5   26 1
    13    6    7 ar
    14    6   27 1
    15    7    8 ar
    16    7   10 1
    17    8    9 ar
    18    8   28 1
    19    9   29 1
    20   10   11 am
    21   10   30 1
    22   11   12 2
    23   11   13 1
    24   13   18 ar
    25   13   14 ar
    26   14   15 ar
    27   14   31 1
    28   15   16 ar
    29   15   32 1
    30   16   17 ar
    31   16   19 1
    32   17   18 ar
    33   18   33 1
    34   19   20 2
    35   19   34 1
@<TRIPOS>MOLECULE
ZINC05017776
   24    25     0     0     0
SMALL
USER_CHARGES
6-(5-carboxy-2-pyridyl)pyridine-3-carboxylic acid
@<TRIPOS>ATOM
      1 C1          1.1800    2.0809    0.0020 C.ar      1 <0>        -0.0538
      2 C2         -0.0168    1.3901    0.0097 C.ar      1 <0>        -0.1472
      3 C3          0.0021   -0.0041    0.0020 C.ar      1 <0>         0.1585
      4 N1          1.1508   -0.6697   -0.0130 N.ar      1 <0>        -0.4862
      5 C4          2.3101   -0.0500   -0.0207 C.ar      1 <0>         0.1346
      6 C5          2.3728    1.3459   -0.0134 C.ar      1 <0>        -0.1635
      7 C6          3.6780    2.0370   -0.0222 C.2       1 <0>         0.4973
      8 O1          3.7227    3.2509   -0.0157 O.co2     1 <0>        -0.6315
      9 C7         -1.2775   -0.7532    0.0102 C.ar      1 <0>         0.1584
     10 C8         -1.2586   -2.1474    0.0025 C.ar      1 <0>        -0.1472
     11 C9         -2.4554   -2.8381    0.0107 C.ar      1 <0>        -0.0538
     12 C10        -3.6483   -2.1032    0.0265 C.ar      1 <0>        -0.1635
     13 C11        -3.5856   -0.7073    0.0334 C.ar      1 <0>         0.1345
     14 N2         -2.4262   -0.0876    0.0303 N.ar      1 <0>        -0.4862
     15 C12        -4.9535   -2.7942    0.0353 C.2       1 <0>         0.4974
     16 O2         -4.9981   -4.0081    0.0288 O.co2     1 <0>        -0.6316
     17 H1          1.1955    3.1608    0.0073 H         1 <0>         0.1376
     18 H2         -0.9557    1.9238    0.0171 H         1 <0>         0.1413
     19 H3          3.2237   -0.6258   -0.0325 H         1 <0>         0.1665
     20 H4         -0.3198   -2.6810   -0.0093 H         1 <0>         0.1413
     21 H5         -2.4710   -3.9180    0.0047 H         1 <0>         0.1375
     22 H6         -4.4992   -0.1314    0.0452 H         1 <0>         0.1665
     23 O3          4.8192    1.3210   -0.0374 O.co2     1 <0>        -0.7535
     24 O4         -6.0946   -2.0783    0.0505 O.co2     1 <0>        -0.7534
@<TRIPOS>BOND
     1    1    6 ar
     2    1    2 ar
     3    1   17 1
     4    2    3 ar
     5    2   18 1
     6    3    4 ar
     7    3    9 1
     8    4    5 ar
     9    5    6 ar
    10    5   19 1
    11    6    7 1
    12    7    8 2
    13    7   23 1
    14    9   14 ar
    15    9   10 ar
    16   10   11 ar
    17   10   20 1
    18   11   12 ar
    19   11   21 1
    20   12   13 ar
    21   12   15 1
    22   13   14 ar
    23   13   22 1
    24   15   16 2
    25   15   24 1
@<TRIPOS>MOLECULE
ZINC13451015
   35    36     0     0     0
SMALL
USER_CHARGES
5-[(4-dimethylaminophenyl)carbamoyl]pyridine-2-carboxylic acid
@<TRIPOS>ATOM
      1 C1         -0.1161    4.1969    0.2365 C.3       1 <0>         0.0974
      2 N1          1.1480    3.4855    0.0311 N.pl3     1 <0>        -0.6420
      3 C2          2.3896    4.2388   -0.1610 C.3       1 <0>         0.0949
      4 C3          1.1693    2.0868    0.0184 C.ar      1 <0>         0.1955
      5 C4         -0.0079    1.3726    0.2005 C.ar      1 <0>        -0.1741
      6 C5          0.0132   -0.0077    0.1875 C.ar      1 <0>        -0.0708
      7 C6          1.2116   -0.6821   -0.0072 C.ar      1 <0>         0.0958
      8 C7          2.3888    0.0320   -0.1889 C.ar      1 <0>        -0.0970
      9 C8          2.3678    1.4123   -0.1759 C.ar      1 <0>        -0.1778
     10 N2          1.2329   -2.0824   -0.0200 N.am      1 <0>        -0.6690
     11 C9          0.1797   -2.7680   -0.5069 C.2       1 <0>         0.5720
     12 O1         -0.7467   -2.1735   -1.0224 O.2       1 <0>        -0.5253
     13 C10         0.1512   -4.2446   -0.4139 C.ar      1 <0>        -0.2105
     14 C11        -0.9370   -4.9658   -0.9160 C.ar      1 <0>        -0.0266
     15 C12        -0.9183   -6.3458   -0.8064 C.ar      1 <0>        -0.1490
     16 C13         0.1753   -6.9649   -0.2044 C.ar      1 <0>         0.1318
     17 N3          1.1916   -6.2490    0.2614 N.ar      1 <0>        -0.4407
     18 C14         1.2138   -4.9383    0.1718 C.ar      1 <0>         0.1224
     19 C15         0.2046   -8.4419   -0.0831 C.2       1 <0>         0.4970
     20 O2         -0.7205   -9.1043   -0.5068 O.co2     1 <0>        -0.6194
     21 H1         -0.5370    3.9183    1.2026 H         1 <0>         0.0527
     22 H2          0.0642    5.2717    0.2150 H         1 <0>         0.0703
     23 H3         -0.8161    3.9300   -0.5553 H         1 <0>         0.0530
     24 H4          2.5365    4.4324   -1.2236 H         1 <0>         0.0455
     25 H5          2.3270    5.1855    0.3755 H         1 <0>         0.0638
     26 H6          3.2294    3.6590    0.2221 H         1 <0>         0.0678
     27 H7         -0.9405    1.8970    0.3478 H         1 <0>         0.1229
     28 H8         -0.9022   -0.5632    0.3291 H         1 <0>         0.1348
     29 H9          3.3207   -0.4926   -0.3400 H         1 <0>         0.1259
     30 H10         3.2834    1.9676   -0.3165 H         1 <0>         0.1249
     31 H11         2.0058   -2.5588    0.3216 H         1 <0>         0.4095
     32 H12        -1.7711   -4.4587   -1.3781 H         1 <0>         0.1433
     33 H13        -1.7413   -6.9353   -1.1827 H         1 <0>         0.1498
     34 H14         2.0606   -4.3908    0.5584 H         1 <0>         0.1505
     35 O3          1.2572   -9.0492    0.4972 O.co2     1 <0>        -0.7194
@<TRIPOS>BOND
     1    1    2 1
     2    1   21 1
     3    1   22 1
     4    1   23 1
     5    2    3 1
     6    2    4 1
     7    3   24 1
     8    3   25 1
     9    3   26 1
    10    4    9 ar
    11    4    5 ar
    12    5    6 ar
    13    5   27 1
    14    6    7 ar
    15    6   28 1
    16    7    8 ar
    17    7   10 1
    18    8    9 ar
    19    8   29 1
    20    9   30 1
    21   10   11 am
    22   10   31 1
    23   11   12 2
    24   11   13 1
    25   13   18 ar
    26   13   14 ar
    27   14   15 ar
    28   14   32 1
    29   15   16 ar
    30   15   33 1
    31   16   17 ar
    32   16   19 1
    33   17   18 ar
    34   18   34 1
    35   19   20 2
    36   19   35 1
@<TRIPOS>MOLECULE
ZINC13451005
   30    31     0     0     0
SMALL
USER_CHARGES
5-(p-tolylcarbamoyl)pyridine-2-carboxylic acid
@<TRIPOS>ATOM
      1 C1          1.1485    3.5926    0.0413 C.3       1 <0>        -0.1112
      2 C2          1.1722    2.0858    0.0248 C.ar      1 <0>        -0.1066
      3 C3          0.1424    1.3862   -0.5771 C.ar      1 <0>        -0.1028
      4 C4          0.1611    0.0054   -0.5940 C.ar      1 <0>        -0.1416
      5 C5          1.2158   -0.6806   -0.0055 C.ar      1 <0>         0.1444
      6 C6          2.2486    0.0252    0.5983 C.ar      1 <0>        -0.1168
      7 C7          2.2238    1.4059    0.6117 C.ar      1 <0>        -0.1031
      8 N1          1.2376   -2.0787   -0.0204 N.am      1 <0>        -0.6724
      9 C8          2.4100   -2.7331   -0.1369 C.2       1 <0>         0.5741
     10 O1          3.4547   -2.1119   -0.1441 O.2       1 <0>        -0.5218
     11 C9          2.4254   -4.2080   -0.2559 C.ar      1 <0>        -0.2124
     12 C10         3.6367   -4.8970   -0.3772 C.ar      1 <0>        -0.0252
     13 C11         3.6003   -6.2768   -0.4854 C.ar      1 <0>        -0.1488
     14 C12         2.3683   -6.9275   -0.4698 C.ar      1 <0>         0.1335
     15 N2          1.2377   -6.2417   -0.3528 N.ar      1 <0>        -0.4403
     16 C13         1.2303   -4.9324   -0.2429 C.ar      1 <0>         0.1234
     17 C14         2.3195   -8.4046   -0.5850 C.2       1 <0>         0.4968
     18 O2          3.3488   -9.0394   -0.6921 O.co2     1 <0>        -0.6186
     19 H1          0.6333    3.9380    0.9376 H         1 <0>         0.0678
     20 H2          2.1703    3.9721    0.0406 H         1 <0>         0.0644
     21 H3          0.6247    3.9574   -0.8422 H         1 <0>         0.0641
     22 H4         -0.6751    1.9203   -1.0384 H         1 <0>         0.1244
     23 H5         -0.6436   -0.5405   -1.0640 H         1 <0>         0.1266
     24 H6          3.0699   -0.5052    1.0570 H         1 <0>         0.1401
     25 H7          3.0266    1.9553    1.0807 H         1 <0>         0.1237
     26 H8          0.4089   -2.5774    0.0530 H         1 <0>         0.4121
     27 H9          4.5770   -4.3659   -0.3860 H         1 <0>         0.1439
     28 H10         4.5157   -6.8419   -0.5809 H         1 <0>         0.1507
     29 H11         0.2901   -4.4099   -0.1455 H         1 <0>         0.1503
     30 O3          1.1335   -9.0422   -0.5710 O.co2     1 <0>        -0.7186
@<TRIPOS>BOND
     1    1    2 1
     2    1   19 1
     3    1   20 1
     4    1   21 1
     5    2    7 ar
     6    2    3 ar
     7    3    4 ar
     8    3   22 1
     9    4    5 ar
    10    4   23 1
    11    5    6 ar
    12    5    8 1
    13    6    7 ar
    14    6   24 1
    15    7   25 1
    16    8    9 am
    17    8   26 1
    18    9   10 2
    19    9   11 1
    20   11   16 ar
    21   11   12 ar
    22   12   13 ar
    23   12   27 1
    24   13   14 ar
    25   13   28 1
    26   14   15 ar
    27   14   17 1
    28   15   16 ar
    29   16   29 1
    30   17   18 2
    31   17   30 1
@<TRIPOS>MOLECULE
ZINC00005284
   15    15     0     0     0
SMALL
USER_CHARGES
pyridine-2,5-dicarboxylic acid
@<TRIPOS>ATOM
      1 C1          2.4701    3.7304   -0.0015 C.ar      1 <0>        -0.0641
      2 C2          2.4728    5.1154    0.0054 C.ar      1 <0>        -0.1590
      3 C3          1.2582    5.7971    0.0202 C.ar      1 <0>         0.0856
      4 N1          0.1064    5.1365    0.0272 N.ar      1 <0>        -0.4545
      5 C4          0.0612    3.8236    0.0161 C.ar      1 <0>         0.1174
      6 C5          1.2380    3.0685    0.0067 C.ar      1 <0>        -0.1786
      7 C6          1.1806    1.5906   -0.0007 C.2       1 <0>         0.5019
      8 O1          2.2080    0.9431   -0.0140 O.co2     1 <0>        -0.6397
      9 C7          1.2513    7.2796    0.0277 C.2       1 <0>         0.5077
     10 O2          2.2998    7.8915    0.0210 O.co2     1 <0>        -0.6379
     11 H1          3.3964    3.1753   -0.0133 H         1 <0>         0.1298
     12 H2          3.4053    5.6602   -0.0002 H         1 <0>         0.1318
     13 H3         -0.8953    3.3221    0.0180 H         1 <0>         0.1576
     14 O3         -0.0110    0.9628    0.0073 O.co2     1 <0>        -0.7598
     15 O4          0.0821    7.9474    0.0420 O.co2     1 <0>        -0.7383
@<TRIPOS>BOND
     1    1    6 ar
     2    1    2 ar
     3    1   11 1
     4    2    3 ar
     5    2   12 1
     6    3    4 ar
     7    3    9 1
     8    4    5 ar
     9    5    6 ar
    10    5   13 1
    11    6    7 1
    12    7    8 2
    13    7   14 1
    14    9   10 2
    15    9   15 1
