@<TRIPOS>MOLECULE
ZINC00153920
   23    24     0     0     0
SMALL
USER_CHARGES
2-(7-hydroxy-2-oxo-chromen-4-yl)acetic acid
@<TRIPOS>ATOM
      1 C1         -1.2355    2.0276    0.0189 C.ar      1 <0>        -0.1677
      2 C2         -1.2707    3.3921    0.0320 C.ar      1 <0>        -0.0261
      3 C3         -0.0747    4.1185    0.0240 C.ar      1 <0>        -0.1398
      4 C4         -0.0821    5.5829    0.0324 C.2       1 <0>         0.0852
      5 C5          1.1119    6.2307    0.0249 C.2       1 <0>        -0.2755
      6 C6          2.3116    5.4900    0.0095 C.2       1 <0>         0.5186
      7 O1          3.3752    6.0835    0.0029 O.2       1 <0>        -0.4816
      8 O2          2.3117    4.1478    0.0022 O.3       1 <0>        -0.2758
      9 C7          1.1600    3.4429    0.0090 C.ar      1 <0>         0.1605
     10 C8          1.1774    2.0566    0.0019 C.ar      1 <0>        -0.1677
     11 C9         -0.0163    1.3533    0.0095 C.ar      1 <0>         0.1530
     12 O3          0.0021   -0.0041    0.0020 O.3       1 <0>        -0.4943
     13 C10        -1.3790    6.3503    0.0484 C.3       1 <0>        -0.1458
     14 C11        -1.8613    6.4919    1.4691 C.2       1 <0>         0.4704
     15 O4         -1.2180    6.0183    2.3756 O.co2     1 <0>        -0.6254
     16 H1         -2.1586    1.4671    0.0203 H         1 <0>         0.1390
     17 H2         -2.2186    3.9094    0.0431 H         1 <0>         0.1451
     18 H3          1.1422    7.3103    0.0312 H         1 <0>         0.1589
     19 H4          2.1184    1.5267   -0.0093 H         1 <0>         0.1460
     20 H5          0.0158   -0.4021    0.8832 H         1 <0>         0.3962
     21 H6         -1.2213    7.3392   -0.3821 H         1 <0>         0.0939
     22 H7         -2.1257    5.8140   -0.5371 H         1 <0>         0.0908
     23 O5         -3.0057    7.1442    1.7274 O.co2     1 <0>        -0.7578
@<TRIPOS>BOND
     1    1   11 ar
     2    1    2 ar
     3    1   16 1
     4    2    3 ar
     5    2   17 1
     6    3    9 ar
     7    3    4 1
     8    4    5 2
     9    4   13 1
    10    5    6 1
    11    5   18 1
    12    6    7 2
    13    6    8 1
    14    8    9 1
    15    9   10 ar
    16   10   11 ar
    17   10   19 1
    18   11   12 1
    19   12   20 1
    20   13   14 1
    21   13   21 1
    22   13   22 1
    23   14   15 2
    24   14   23 1
@<TRIPOS>MOLECULE
ZINC64539506
   73    79     0     0     0
SMALL
USER_CHARGES

@<TRIPOS>ATOM
      1 C1         -0.8034    1.1981   -2.0475 C.3       1 <0>        -0.1373
      2 C2         -0.9132   -0.3251   -1.9533 C.3       1 <0>        -0.1439
      3 C3         -1.8869   -0.6921   -0.8632 C.2       1 <0>         0.5116
      4 O1         -2.4388    0.1788   -0.2246 O.2       1 <0>        -0.5400
      5 N1         -2.1445   -1.9882   -0.5981 N.am      1 <0>        -0.6057
      6 C4         -1.4786   -3.0541   -1.3597 C.3       1 <0>         0.0914
      7 C5         -0.7731   -3.9935   -0.3738 C.3       1 <0>         0.1227
      8 N2         -1.7246   -4.3662    0.6825 N.pl3     1 <0>        -0.6412
      9 C6         -2.3905   -3.3002    1.4441 C.3       1 <0>         0.0982
     10 C7         -3.0917   -2.3609    0.4620 C.3       1 <0>         0.0636
     11 C8         -1.9917   -5.7105    0.9575 C.ar      1 <0>         0.2762
     12 C9         -0.9536   -6.5704    1.2942 C.ar      1 <0>        -0.1610
     13 C10        -1.2176   -7.8974    1.5661 C.ar      1 <0>        -0.0493
     14 C11        -2.5211   -8.3734    1.5033 C.ar      1 <0>         0.0715
     15 C12        -3.5587   -7.5142    1.1664 C.ar      1 <0>        -0.0251
     16 C13        -3.2958   -6.1854    0.8999 C.ar      1 <0>        -0.2300
     17 C14        -4.4227   -5.2515    0.5409 C.3       1 <0>         0.5187
     18 F1         -5.5990   -5.9873    0.3618 F         1 <0>        -0.1736
     19 F2         -4.6056   -4.3235    1.5717 F         1 <0>        -0.1666
     20 F3         -4.1097   -4.5767   -0.6439 F         1 <0>        -0.1590
     21 N3         -2.7889   -9.7207    1.7794 N.am      1 <0>        -0.4580
     22 C15        -3.0107  -10.5803    0.7663 C.2       1 <0>         0.5296
     23 O2         -2.9762  -10.1764   -0.3836 O.2       1 <0>        -0.5112
     24 C16        -3.2818  -11.9407    1.0174 C.2       1 <0>        -0.2197
     25 C17        -3.3235  -12.4049    2.2923 C.2       1 <0>         0.0019
     26 C18        -3.0911  -11.5032    3.3608 C.ar      1 <0>        -0.1955
     27 C19        -2.8179  -10.1560    3.0758 C.ar      1 <0>         0.2428
     28 C20        -2.5848   -9.2810    4.1622 C.ar      1 <0>        -0.1182
     29 C21        -2.3121   -7.9243    3.9592 C.ar      1 <0>        -0.1236
     30 C22        -2.0902   -7.1022    5.0517 C.ar      1 <0>        -0.0374
     31 C23        -2.1382   -7.6250    6.3522 C.ar      1 <0>        -0.0785
     32 C24        -2.4020   -8.9415    6.5657 C.ar      1 <0>        -0.0891
     33 C25        -2.6316   -9.8018    5.4788 C.ar      1 <0>         0.1627
     34 N4         -2.8928  -11.1013    5.6841 N.ar      1 <0>        -0.4901
     35 C26        -3.1232  -11.9324    4.7010 C.ar      1 <0>         0.2010
     36 C27        -1.7999   -5.6625    4.8453 C.ar      1 <0>        -0.1016
     37 C28        -1.5923   -4.8284    5.9343 C.ar      1 <0>        -0.0453
     38 C29        -1.3208   -3.4723    5.6840 C.ar      1 <0>        -0.0944
     39 C30        -1.0992   -2.5671    6.7358 C.ar      1 <0>        -0.0959
     40 C31        -0.8385   -1.2607    6.4555 C.ar      1 <0>        -0.1116
     41 C32        -0.7888   -0.8087    5.1382 C.ar      1 <0>        -0.0939
     42 C33        -0.9990   -1.6577    4.0955 C.ar      1 <0>        -0.0952
     43 C34        -1.2702   -3.0147    4.3431 C.ar      1 <0>         0.1182
     44 N5         -1.4790   -3.8675    3.3344 N.ar      1 <0>        -0.4443
     45 C35        -1.7275   -5.1349    3.5462 C.ar      1 <0>         0.0932
     46 H1         -0.0991    1.4635   -2.8359 H         1 <0>         0.0611
     47 H2         -1.7820    1.6193   -2.2775 H         1 <0>         0.0612
     48 H3         -0.4509    1.5965   -1.0961 H         1 <0>         0.0611
     49 H4         -1.2657   -0.7235   -2.9046 H         1 <0>         0.0917
     50 H5          0.0655   -0.7463   -1.7232 H         1 <0>         0.0919
     51 H6         -2.2196   -3.6131   -1.9312 H         1 <0>         0.0768
     52 H7         -0.7449   -2.6165   -2.0367 H         1 <0>         0.0956
     53 H8         -0.4386   -4.8891   -0.8974 H         1 <0>         0.0876
     54 H9          0.0831   -3.4839    0.0682 H         1 <0>         0.0691
     55 H10        -3.1241   -3.7379    2.1211 H         1 <0>         0.1097
     56 H11        -1.6495   -2.7412    2.0156 H         1 <0>         0.1163
     57 H12        -3.4232   -1.4654    0.9877 H         1 <0>         0.0941
     58 H13        -3.9503   -2.8693    0.0232 H         1 <0>         0.0751
     59 H14         0.0599   -6.2005    1.3427 H         1 <0>         0.1551
     60 H15        -0.4106   -8.5659    1.8275 H         1 <0>         0.1467
     61 H16        -4.5721   -7.8845    1.1173 H         1 <0>         0.1487
     62 H17        -3.4573  -12.6157    0.1928 H         1 <0>         0.1630
     63 H18        -3.5312  -13.4462    2.4896 H         1 <0>         0.1550
     64 H19        -2.2745   -7.5207    2.9581 H         1 <0>         0.1643
     65 H20        -1.9630   -6.9732    7.1952 H         1 <0>         0.1371
     66 H21        -2.4352   -9.3272    7.5739 H         1 <0>         0.1467
     67 H22        -3.3290  -12.9695    4.9208 H         1 <0>         0.1769
     68 H23        -1.6383   -5.2094    6.9438 H         1 <0>         0.1431
     69 H24        -1.1358   -2.9058    7.7606 H         1 <0>         0.1315
     70 H25        -0.6683   -0.5656    7.2644 H         1 <0>         0.1300
     71 H26        -0.5805    0.2326    4.9415 H         1 <0>         0.1318
     72 H27        -0.9575   -1.2900    3.0808 H         1 <0>         0.1353
     73 H28        -1.8855   -5.7895    2.7018 H         1 <0>         0.1764
@<TRIPOS>BOND
     1    1    2 1
     2    1   46 1
     3    1   47 1
     4    1   48 1
     5    2    3 1
     6    2   49 1
     7    2   50 1
     8    3    4 2
     9    3    5 am
    10    5   10 1
    11    5    6 1
    12    6    7 1
    13    6   51 1
    14    6   52 1
    15    7    8 1
    16    7   53 1
    17    7   54 1
    18    8    9 1
    19    8   11 1
    20    9   10 1
    21    9   55 1
    22    9   56 1
    23   10   57 1
    24   10   58 1
    25   11   16 ar
    26   11   12 ar
    27   12   13 ar
    28   12   59 1
    29   13   14 ar
    30   13   60 1
    31   14   15 ar
    32   14   21 1
    33   15   16 ar
    34   15   61 1
    35   16   17 1
    36   17   18 1
    37   17   19 1
    38   17   20 1
    39   21   27 1
    40   21   22 am
    41   22   23 2
    42   22   24 1
    43   24   25 2
    44   24   62 1
    45   25   26 1
    46   25   63 1
    47   26   35 ar
    48   26   27 ar
    49   27   28 ar
    50   28   33 ar
    51   28   29 ar
    52   29   30 ar
    53   29   64 1
    54   30   31 ar
    55   30   36 1
    56   31   32 ar
    57   31   65 1
    58   32   33 ar
    59   32   66 1
    60   33   34 ar
    61   34   35 ar
    62   35   67 1
    63   36   45 ar
    64   36   37 ar
    65   37   38 ar
    66   37   68 1
    67   38   43 ar
    68   38   39 ar
    69   39   40 ar
    70   39   69 1
    71   40   41 ar
    72   40   70 1
    73   41   42 ar
    74   41   71 1
    75   42   43 ar
    76   42   72 1
    77   43   44 ar
    78   44   45 ar
    79   45   73 1
@<TRIPOS>MOLECULE
ZINC03828650
   37    39     0     0     0
SMALL
USER_CHARGES
3-(6,7-dimethoxyquinazolin-4-yl)aminophenol
@<TRIPOS>ATOM
      1 C1          5.8804    3.1956   -0.9435 C.3       1 <0>         0.0217
      2 O1          4.6825    3.9745   -0.9222 O.3       1 <0>        -0.3002
      3 C2          3.5194    3.3117   -0.6836 C.ar      1 <0>         0.1101
      4 C3          3.5412    1.9613   -0.4787 C.ar      1 <0>        -0.1480
      5 C4          2.3443    1.2779   -0.2335 C.ar      1 <0>        -0.1833
      6 C5          1.1190    1.9888   -0.1989 C.ar      1 <0>         0.2011
      7 C6          1.1201    3.3727   -0.4112 C.ar      1 <0>        -0.1836
      8 C7          2.3111    4.0216   -0.6510 C.ar      1 <0>         0.1633
      9 O2          2.3150    5.3643   -0.8578 O.3       1 <0>        -0.2974
     10 C8          1.0521    6.0314   -0.8122 C.3       1 <0>         0.0201
     11 N1         -0.0140    1.3095    0.0388 N.ar      1 <0>        -0.5426
     12 C9          0.0167    0.0128    0.2347 C.ar      1 <0>         0.3433
     13 N2          1.1365   -0.6924    0.2117 N.ar      1 <0>        -0.5780
     14 C10         2.3117   -0.1199   -0.0145 C.ar      1 <0>         0.4635
     15 N3          3.4719   -0.8679   -0.0362 N.pl3     1 <0>        -0.6413
     16 C11         3.4074   -2.2607    0.0620 C.ar      1 <0>         0.1685
     17 C12         4.4003   -2.9571    0.7404 C.ar      1 <0>        -0.1562
     18 C13         4.3341   -4.3330    0.8410 C.ar      1 <0>        -0.0823
     19 C14         3.2861   -5.0215    0.2594 C.ar      1 <0>        -0.1601
     20 C15         2.2945   -4.3319   -0.4238 C.ar      1 <0>         0.1255
     21 C16         2.3546   -2.9506   -0.5230 C.ar      1 <0>        -0.1360
     22 O3          1.2653   -5.0104   -0.9958 O.3       1 <0>        -0.4957
     23 H1          6.7326    3.8451   -1.1435 H         1 <0>         0.1069
     24 H2          6.0140    2.7080    0.0222 H         1 <0>         0.0572
     25 H3          5.8085    2.4396   -1.7254 H         1 <0>         0.0573
     26 H4          4.4774    1.4235   -0.5055 H         1 <0>         0.1390
     27 H5          0.1936    3.9273   -0.3878 H         1 <0>         0.1562
     28 H6          1.1970    7.0965   -0.9929 H         1 <0>         0.1074
     29 H7          0.3955    5.6190   -1.5783 H         1 <0>         0.0622
     30 H8          0.6004    5.8875    0.1693 H         1 <0>         0.0622
     31 H9         -0.9135   -0.5026    0.4230 H         1 <0>         0.1980
     32 H10         4.3318   -0.4269   -0.1195 H         1 <0>         0.4196
     33 H11         5.2222   -2.4219    1.1925 H         1 <0>         0.1270
     34 H12         5.1046   -4.8723    1.3718 H         1 <0>         0.1322
     35 H13         3.2391   -6.0977    0.3366 H         1 <0>         0.1302
     36 H14         1.5840   -2.4122   -1.0546 H         1 <0>         0.1408
     37 H15         1.4317   -5.2806   -1.9092 H         1 <0>         0.3915
@<TRIPOS>BOND
     1    1    2 1
     2    1   23 1
     3    1   24 1
     4    1   25 1
     5    2    3 1
     6    3    8 ar
     7    3    4 ar
     8    4    5 ar
     9    4   26 1
    10    5   14 ar
    11    5    6 ar
    12    6    7 ar
    13    6   11 ar
    14    7    8 ar
    15    7   27 1
    16    8    9 1
    17    9   10 1
    18   10   28 1
    19   10   29 1
    20   10   30 1
    21   11   12 ar
    22   12   13 ar
    23   12   31 1
    24   13   14 ar
    25   14   15 1
    26   15   16 1
    27   15   32 1
    28   16   21 ar
    29   16   17 ar
    30   17   18 ar
    31   17   33 1
    32   18   19 ar
    33   18   34 1
    34   19   20 ar
    35   19   35 1
    36   20   21 ar
    37   20   22 1
    38   21   36 1
    39   22   37 1
@<TRIPOS>MOLECULE
ZINC71318831
   47    51     0     0     0
SMALL
USER_CHARGES

@<TRIPOS>ATOM
      1 C1          0.2267    1.2917    3.1105 C.ar      1 <0>        -0.1048
      2 C2          0.7883    2.0335    2.0872 C.ar      1 <0>        -0.0492
      3 C3          1.3809    1.3967    1.0124 C.ar      1 <0>        -0.1770
      4 C4          1.4134    0.0169    0.9574 C.ar      1 <0>        -0.0607
      5 C5          0.8504   -0.7308    1.9832 C.ar      1 <0>         0.1153
      6 C6          0.2562   -0.0880    3.0617 C.ar      1 <0>        -0.0726
      7 N1          0.8813   -2.1292    1.9303 N.am      1 <0>        -0.4650
      8 C7          1.9425   -2.7946    2.4261 C.2       1 <0>         0.5305
      9 O1          2.8677   -2.1707    2.9170 O.2       1 <0>        -0.5127
     10 C8          1.9975   -4.2027    2.3852 C.2       1 <0>        -0.2210
     11 C9          0.9748   -4.9109    1.8422 C.2       1 <0>         0.0033
     12 C10        -0.1435   -4.2143    1.3195 C.ar      1 <0>        -0.1948
     13 C11        -0.1693   -2.8122    1.3805 C.ar      1 <0>         0.2404
     14 C12        -1.3002   -2.1448    0.8557 C.ar      1 <0>        -0.1170
     15 C13        -1.3968   -0.7495    0.8750 C.ar      1 <0>        -0.1287
     16 C14        -2.5222   -0.1364    0.3498 C.ar      1 <0>        -0.0197
     17 C15        -3.5579   -0.9075   -0.1974 C.ar      1 <0>        -0.0774
     18 C16        -3.4791   -2.2645   -0.2231 C.ar      1 <0>        -0.0904
     19 C17        -2.3506   -2.9170    0.3011 C.ar      1 <0>         0.1577
     20 N2         -2.2672   -4.2555    0.2770 N.ar      1 <0>        -0.4883
     21 C18        -1.2302   -4.9002    0.7452 C.ar      1 <0>         0.1970
     22 C19        -2.6328    1.3425    0.3668 C.ar      1 <0>        -0.1697
     23 C20        -3.8678    1.9592    0.6001 C.ar      1 <0>        -0.0151
     24 C21        -3.9221    3.3386    0.6066 C.ar      1 <0>        -0.2349
     25 C22        -2.7560    4.0659    0.3826 C.ar      1 <0>         0.4102
     26 N3         -1.6034    3.4512    0.1646 N.ar      1 <0>        -0.5346
     27 C23        -1.5090    2.1365    0.1567 C.ar      1 <0>         0.1618
     28 N4         -2.8024    5.4544    0.3876 N.pl3     1 <0>        -0.8471
     29 C24         1.9916    2.2090   -0.1004 C.3       1 <0>         0.5102
     30 F1          1.8362    3.5713    0.1772 F         1 <0>        -0.1642
     31 F2          3.3535    1.9068   -0.2051 F         1 <0>        -0.1718
     32 F3          1.3520    1.9028   -1.3064 F         1 <0>        -0.1720
     33 H1         -0.2315    1.7920    3.9508 H         1 <0>         0.1508
     34 H2          0.7635    3.1124    2.1275 H         1 <0>         0.1536
     35 H3          1.8758   -0.4799    0.1173 H         1 <0>         0.1444
     36 H4         -0.1825   -0.6667    3.8611 H         1 <0>         0.1432
     37 H5          2.8564   -4.7197    2.7871 H         1 <0>         0.1630
     38 H6          1.0128   -5.9897    1.8085 H         1 <0>         0.1550
     39 H7         -0.5999   -0.1548    1.2966 H         1 <0>         0.1586
     40 H8         -4.4300   -0.4167   -0.6036 H         1 <0>         0.1365
     41 H9         -4.2863   -2.8427   -0.6478 H         1 <0>         0.1451
     42 H10        -1.2128   -5.9792    0.7016 H         1 <0>         0.1761
     43 H11        -4.7567    1.3699    0.7705 H         1 <0>         0.1373
     44 H12        -4.8581    3.8477    0.7829 H         1 <0>         0.1350
     45 H13        -0.5508    1.6705   -0.0194 H         1 <0>         0.1482
     46 H14        -3.6434    5.9110    0.5463 H         1 <0>         0.4097
     47 H15        -1.9939    5.9673    0.2323 H         1 <0>         0.4063
@<TRIPOS>BOND
     1    1    6 ar
     2    1    2 ar
     3    1   33 1
     4    2    3 ar
     5    2   34 1
     6    3    4 ar
     7    3   29 1
     8    4    5 ar
     9    4   35 1
    10    5    6 ar
    11    5    7 1
    12    6   36 1
    13    7   13 1
    14    7    8 am
    15    8    9 2
    16    8   10 1
    17   10   11 2
    18   10   37 1
    19   11   12 1
    20   11   38 1
    21   12   21 ar
    22   12   13 ar
    23   13   14 ar
    24   14   19 ar
    25   14   15 ar
    26   15   16 ar
    27   15   39 1
    28   16   17 ar
    29   16   22 1
    30   17   18 ar
    31   17   40 1
    32   18   19 ar
    33   18   41 1
    34   19   20 ar
    35   20   21 ar
    36   21   42 1
    37   22   27 ar
    38   22   23 ar
    39   23   24 ar
    40   23   43 1
    41   24   25 ar
    42   24   44 1
    43   25   26 ar
    44   25   28 1
    45   26   27 ar
    46   27   45 1
    47   28   46 1
    48   28   47 1
    49   29   30 1
    50   29   31 1
    51   29   32 1
@<TRIPOS>MOLECULE
ZINC71318831
   48    52     0     0     0
SMALL
USER_CHARGES

@<TRIPOS>ATOM
      1 C1          0.2240    1.2917    3.1082 C.ar      1 <0>        -0.1055
      2 C2          0.7886    2.0335    2.0865 C.ar      1 <0>        -0.0699
      3 C3          1.3842    1.3968    1.0134 C.ar      1 <0>        -0.1869
      4 C4          1.4167    0.0169    0.9584 C.ar      1 <0>        -0.0576
      5 C5          0.8507   -0.7307    1.9826 C.ar      1 <0>         0.1208
      6 C6          0.2535   -0.0880    3.0594 C.ar      1 <0>        -0.0709
      7 N1          0.8816   -2.1292    1.9297 N.am      1 <0>        -0.4702
      8 C7          1.9429   -2.7946    2.4252 C.2       1 <0>         0.5309
      9 O1          2.8682   -2.1706    2.9160 O.2       1 <0>        -0.5022
     10 C8          1.9979   -4.2027    2.3844 C.2       1 <0>        -0.2090
     11 C9          0.9751   -4.9109    1.8416 C.2       1 <0>        -0.0011
     12 C10        -0.1433   -4.2142    1.3191 C.ar      1 <0>        -0.1850
     13 C11        -0.1691   -2.8122    1.3801 C.ar      1 <0>         0.2400
     14 C12        -1.3001   -2.1448    0.8555 C.ar      1 <0>        -0.1250
     15 C13        -1.3967   -0.7495    0.8748 C.ar      1 <0>        -0.0953
     16 C14        -2.5222   -0.1364    0.3498 C.ar      1 <0>        -0.0720
     17 C15        -3.5580   -0.9075   -0.1972 C.ar      1 <0>        -0.0787
     18 C16        -3.4792   -2.2645   -0.2229 C.ar      1 <0>        -0.0796
     19 C17        -2.3506   -2.9170    0.3012 C.ar      1 <0>         0.1789
     20 N2         -2.2672   -4.2555    0.2770 N.ar      1 <0>        -0.4909
     21 C18        -1.2301   -4.9002    0.7450 C.ar      1 <0>         0.2178
     22 C19        -2.6328    1.3425    0.3668 C.ar      1 <0>        -0.0726
     23 C20        -1.5036    2.1411    0.1497 C.ar      1 <0>         0.0267
     24 C21        -1.6550    3.5131    0.1748 C.ar      1 <0>        -0.1861
     25 C22        -2.9158    4.0536    0.4133 C.ar      1 <0>         0.4528
     26 N3         -3.9639    3.2696    0.6153 N.ar      1 <0>        -0.4933
     27 C23        -3.8617    1.9556    0.5931 C.ar      1 <0>         0.1497
     28 N4         -3.0764    5.4333    0.4401 N.pl3     1 <0>        -0.8160
     29 C24         1.9982    2.2090   -0.0976 C.3       1 <0>         0.5078
     30 F1          1.8421    3.5713    0.1796 F         1 <0>        -0.1721
     31 F2          3.3604    1.9067   -0.1984 F         1 <0>        -0.1603
     32 F3          1.3620    1.9030   -1.3054 F         1 <0>        -0.1731
     33 H1         -0.2366    1.7921    3.9472 H         1 <0>         0.1554
     34 H2          0.7639    3.1125    2.1268 H         1 <0>         0.1546
     35 H3          1.8815   -0.4798    0.1196 H         1 <0>         0.1506
     36 H4         -0.1876   -0.6667    3.8575 H         1 <0>         0.1492
     37 H5          2.8569   -4.7196    2.7861 H         1 <0>         0.1689
     38 H6          1.0131   -5.9897    1.8079 H         1 <0>         0.1611
     39 H7         -0.5997   -0.1548    1.2962 H         1 <0>         0.1588
     40 H8         -4.4302   -0.4167   -0.6033 H         1 <0>         0.1399
     41 H9         -4.2865   -2.8427   -0.6475 H         1 <0>         0.1540
     42 H10        -1.2128   -5.9792    0.7015 H         1 <0>         0.1843
     43 H11        -0.5372    1.6946   -0.0326 H         1 <0>         0.1625
     44 H12        -0.8053    4.1595    0.0117 H         1 <0>         0.1839
     45 H13        -4.7398    1.3485    0.7568 H         1 <0>         0.2119
     46 H14        -2.3129    6.0134    0.2932 H         1 <0>         0.4424
     47 H15        -3.9519    5.8166    0.6056 H         1 <0>         0.4236
     48 H16        -4.8306    3.6730    0.7794 H         1 <0>         0.4467
@<TRIPOS>BOND
     1    1    6 ar
     2    1    2 ar
     3    1   33 1
     4    2    3 ar
     5    2   34 1
     6    3    4 ar
     7    3   29 1
     8    4    5 ar
     9    4   35 1
    10    5    6 ar
    11    5    7 1
    12    6   36 1
    13    7   13 1
    14    7    8 am
    15    8    9 2
    16    8   10 1
    17   10   11 2
    18   10   37 1
    19   11   12 1
    20   11   38 1
    21   12   21 ar
    22   12   13 ar
    23   13   14 ar
    24   14   19 ar
    25   14   15 ar
    26   15   16 ar
    27   15   39 1
    28   16   17 ar
    29   16   22 1
    30   17   18 ar
    31   17   40 1
    32   18   19 ar
    33   18   41 1
    34   19   20 ar
    35   20   21 ar
    36   21   42 1
    37   22   27 ar
    38   22   23 ar
    39   23   24 ar
    40   23   43 1
    41   24   25 ar
    42   24   44 1
    43   25   26 ar
    44   25   28 1
    45   26   27 ar
    46   26   48 1
    47   27   45 1
    48   28   46 1
    49   28   47 1
    50   29   30 1
    51   29   31 1
    52   29   32 1
@<TRIPOS>MOLECULE
ZINC01619592
   55    59     0     0     0
SMALL
USER_CHARGES

@<TRIPOS>ATOM
      1 C1         -0.0184    1.5028    0.0103 C.3       1 <0>        -0.1511
      2 C2          0.0021   -0.0041    0.0020 C.2       1 <0>         0.4597
      3 O1          1.0565   -0.5939   -0.0112 O.2       1 <0>        -0.4999
      4 O2         -1.1511   -0.6910    0.0093 O.3       1 <0>        -0.3474
      5 C3         -1.0568   -2.1201    0.0008 C.3       1 <0>         0.1219
      6 H1         -0.1268   -2.3839    0.5135 H         1 <0>         0.1078
      7 C4         -0.9300   -2.5524   -1.4583 C.3       1 <0>        -0.1184
      8 C5         -1.5070   -3.9418   -1.6157 C.3       1 <0>        -0.1187
      9 C6         -3.0076   -3.8238   -1.2599 C.3       1 <0>        -0.0498
     10 H2         -3.4688   -3.0269   -1.8517 H         1 <0>         0.1063
     11 C7         -3.5424   -5.1804   -1.7235 C.3       1 <0>        -0.1009
     12 C8         -2.7629   -5.4191   -3.0462 C.3       1 <0>        -0.1830
     13 C9         -1.5465   -4.4997   -3.0127 C.2       1 <0>         0.3855
     14 O3         -0.7805   -4.2605   -3.9130 O.2       1 <0>        -0.4254
     15 C10        -3.1349   -3.4967    0.1921 C.2       1 <0>        -0.1113
     16 C11        -2.2157   -2.7096    0.7678 C.2       1 <0>        -0.0220
     17 C12        -2.2470   -2.4186    2.2520 C.3       1 <0>        -0.0027
     18 C13        -3.5419   -2.8944    2.8428 C.2       1 <0>        -0.1255
     19 C14        -4.0137   -2.4591    4.1090 C.2       1 <0>        -0.2743
     20 C15        -5.1338   -3.1850    4.3420 C.2       1 <0>         0.1107
     21 O4         -5.3667   -3.9750    3.2644 O.3       1 <0>        -0.1272
     22 C16        -4.4651   -3.7201    2.3152 C.2       1 <0>        -0.0593
     23 C17        -4.2994   -4.0888    0.9041 C.2       1 <0>         0.4739
     24 O5         -5.0852   -4.8388    0.3501 O.2       1 <0>        -0.4050
     25 C18        -3.2587   -1.3792    4.7707 C.2       1 <0>         0.5710
     26 O6         -3.4416   -1.0831    5.9367 O.2       1 <0>        -0.4406
     27 O7         -2.3673   -0.7035    4.0022 O.3       1 <0>        -0.3342
     28 C19        -2.1782   -0.9381    2.6104 C.3       1 <0>         0.1418
     29 H3         -1.2274   -0.5290    2.3161 H         1 <0>         0.1331
     30 C20        -3.3080   -0.2057    1.8834 C.3       1 <0>         0.0325
     31 O8         -3.1902    1.1997    2.1137 O.3       1 <0>        -0.3752
     32 C21        -4.2027    1.9802    1.4751 C.3       1 <0>         0.0299
     33 C22        -1.0932   -3.1555    2.9462 C.3       1 <0>        -0.1410
     34 C23        -0.7898   -4.9340   -0.7021 C.3       1 <0>        -0.1431
     35 H4          1.0042    1.8801    0.0026 H         1 <0>         0.1053
     36 H5         -0.5455    1.8639   -0.8728 H         1 <0>         0.1024
     37 H6         -0.5286    1.8543    0.9071 H         1 <0>         0.1090
     38 H7         -1.4691   -1.8509   -2.0999 H         1 <0>         0.0889
     39 H8          0.1251   -2.5564   -1.7479 H         1 <0>         0.0943
     40 H9         -3.3312   -5.9617   -0.9953 H         1 <0>         0.0820
     41 H10        -4.6154   -5.1243   -1.9164 H         1 <0>         0.0922
     42 H11        -2.4449   -6.4590   -3.1085 H         1 <0>         0.1059
     43 H12        -3.3960   -5.1755   -3.9005 H         1 <0>         0.1025
     44 H13        -5.7345   -3.1423    5.2384 H         1 <0>         0.2359
     45 H14        -3.2413   -0.4054    0.8139 H         1 <0>         0.0819
     46 H15        -4.2692   -0.5562    2.2593 H         1 <0>         0.0526
     47 H16        -4.0433    3.0351    1.6985 H         1 <0>         0.0920
     48 H17        -4.1546    1.8258    0.3972 H         1 <0>         0.0450
     49 H18        -5.1825    1.6750    1.8425 H         1 <0>         0.0405
     50 H19        -0.1439   -2.8172    2.5309 H         1 <0>         0.0813
     51 H20        -1.1181   -2.9442    4.0152 H         1 <0>         0.0779
     52 H21        -1.1983   -4.2284    2.7854 H         1 <0>         0.0788
     53 H22        -0.9157   -4.6281    0.3365 H         1 <0>         0.0689
     54 H23        -1.2137   -5.9285   -0.8418 H         1 <0>         0.0723
     55 H24         0.2717   -4.9535   -0.9490 H         1 <0>         0.0724
@<TRIPOS>BOND
     1    1    2 1
     2    1   35 1
     3    1   36 1
     4    1   37 1
     5    2    3 2
     6    2    4 1
     7    4    5 1
     8    5    6 1
     9    5   16 1
    10    5    7 1
    11    7    8 1
    12    7   38 1
    13    7   39 1
    14    8   13 1
    15    8    9 1
    16    8   34 1
    17    9   10 1
    18    9   11 1
    19    9   15 1
    20   11   12 1
    21   11   40 1
    22   11   41 1
    23   12   13 1
    24   12   42 1
    25   12   43 1
    26   13   14 2
    27   15   23 1
    28   15   16 2
    29   16   17 1
    30   17   28 1
    31   17   18 1
    32   17   33 1
    33   18   22 2
    34   18   19 1
    35   19   20 2
    36   19   25 1
    37   20   21 1
    38   20   44 1
    39   21   22 1
    40   22   23 1
    41   23   24 2
    42   25   26 2
    43   25   27 1
    44   27   28 1
    45   28   29 1
    46   28   30 1
    47   30   31 1
    48   30   45 1
    49   30   46 1
    50   31   32 1
    51   32   47 1
    52   32   48 1
    53   32   49 1
    54   33   50 1
    55   33   51 1
    56   33   52 1
    57   34   53 1
    58   34   54 1
    59   34   55 1
@<TRIPOS>MOLECULE
ZINC03869685
   32    34     0     0     0
SMALL
USER_CHARGES

@<TRIPOS>ATOM
      1 C1          0.9741   -0.2755   -0.9644 C.ar      1 <0>        -0.0748
      2 C2          2.1569    0.4329   -0.9701 C.ar      1 <0>        -0.1346
      3 C3          2.3856    1.4156   -0.0177 C.ar      1 <0>         0.1032
      4 C4          1.4203    1.6918    0.9495 C.ar      1 <0>         0.0788
      5 C5          0.2328    0.9863    0.9617 C.ar      1 <0>        -0.0762
      6 C6          0.0021   -0.0041    0.0020 C.ar      1 <0>        -0.0447
      7 C7         -1.2637   -0.7605    0.0100 C.2       1 <0>         0.1350
      8 C8         -2.4363   -0.0759    0.1235 C.2       1 <0>        -0.0429
      9 C9         -3.6628   -0.7894    0.1327 C.2       1 <0>         0.4011
     10 O1         -4.7327   -0.2102    0.2323 O.2       1 <0>        -0.4484
     11 C10        -3.5946   -2.2549    0.0170 C.ar      1 <0>        -0.2690
     12 C11        -4.7561   -3.0387    0.0170 C.ar      1 <0>         0.2244
     13 C12        -4.6504   -4.4123   -0.0941 C.ar      1 <0>        -0.2081
     14 C13        -3.3994   -5.0103   -0.2044 C.ar      1 <0>         0.2000
     15 C14        -2.2463   -4.2416   -0.2047 C.ar      1 <0>        -0.1854
     16 C15        -2.3316   -2.8618   -0.0952 C.ar      1 <0>         0.1876
     17 O2         -1.2182   -2.0992   -0.1003 O.3       1 <0>        -0.1970
     18 O3         -3.3070   -6.3605   -0.3125 O.3       1 <0>        -0.4866
     19 O4         -5.9758   -2.4535    0.1257 O.3       1 <0>        -0.4726
     20 O5         -2.4312    1.2810    0.2275 O.3       1 <0>        -0.4502
     21 O6          1.6480    2.6557    1.8815 O.3       1 <0>        -0.4836
     22 O7          3.5534    2.1101   -0.0273 O.3       1 <0>        -0.4861
     23 H1          0.7971   -1.0371   -1.7094 H         1 <0>         0.1379
     24 H2          2.9075    0.2221   -1.7176 H         1 <0>         0.1421
     25 H3         -0.5155    1.1988    1.7108 H         1 <0>         0.1429
     26 H4         -5.5413   -5.0229   -0.0948 H         1 <0>         0.1515
     27 H5         -1.2805   -4.7174   -0.2903 H         1 <0>         0.1559
     28 H6         -3.3257   -6.6843   -1.2235 H         1 <0>         0.4050
     29 H7         -6.3751   -2.2160   -0.7224 H         1 <0>         0.4036
     30 H8         -3.3120    1.6729    0.3033 H         1 <0>         0.4079
     31 H9          1.3508    3.5370    1.6166 H         1 <0>         0.3905
     32 H10         3.5287    2.9137   -0.5647 H         1 <0>         0.3924
@<TRIPOS>BOND
     1    1    6 ar
     2    1    2 ar
     3    1   23 1
     4    2    3 ar
     5    2   24 1
     6    3    4 ar
     7    3   22 1
     8    4    5 ar
     9    4   21 1
    10    5    6 ar
    11    5   25 1
    12    6    7 1
    13    7   17 1
    14    7    8 2
    15    8    9 1
    16    8   20 1
    17    9   10 2
    18    9   11 1
    19   11   16 ar
    20   11   12 ar
    21   12   13 ar
    22   12   19 1
    23   13   14 ar
    24   13   26 1
    25   14   15 ar
    26   14   18 1
    27   15   16 ar
    28   15   27 1
    29   16   17 1
    30   18   28 1
    31   19   29 1
    32   20   30 1
    33   21   31 1
    34   22   32 1
@<TRIPOS>MOLECULE
ZINC03869685
   31    33     0     0     0
SMALL
USER_CHARGES

@<TRIPOS>ATOM
      1 C1          0.1390    1.1246   -0.8120 C.ar      1 <0>        -0.0626
      2 C2          1.3229    1.8301   -0.8179 C.ar      1 <0>        -0.1333
      3 C3          2.3812    1.4233   -0.0172 C.ar      1 <0>         0.0878
      4 C4          2.2522    0.2984    0.7970 C.ar      1 <0>         0.0757
      5 C5          1.0694   -0.4139    0.8086 C.ar      1 <0>        -0.0997
      6 C6          0.0021   -0.0041    0.0020 C.ar      1 <0>        -0.0194
      7 C7         -1.2620   -0.7597    0.0100 C.2       1 <0>         0.1007
      8 C8         -2.4587   -0.0763    0.1245 C.2       1 <0>        -0.0038
      9 C9         -3.6655   -0.7872    0.1324 C.2       1 <0>         0.3349
     10 C10        -3.6167   -2.1939    0.0219 C.2       1 <0>        -0.3331
     11 C11        -4.8018   -2.9593    0.0240 C.2       1 <0>         0.2664
     12 C12        -4.7326   -4.3182   -0.0844 C.2       1 <0>        -0.3749
     13 C13        -3.4871   -4.9570   -0.1979 C.2       1 <0>         0.3648
     14 O1         -3.4307   -6.2860   -0.3033 O.2       1 <0>        -0.6598
     15 C14        -2.3054   -4.2086   -0.2016 C.2       1 <0>        -0.3143
     16 C15        -2.3616   -2.8325   -0.0921 C.2       1 <0>         0.2118
     17 O2         -1.2290   -2.0988   -0.0996 O.3       1 <0>        -0.2018
     18 O3         -6.0073   -2.3463    0.1339 O.3       1 <0>        -0.4482
     19 O4         -4.8484   -0.1420    0.2437 O.3       1 <0>        -0.5747
     20 O5         -2.4638    1.2803    0.2294 O.3       1 <0>        -0.4649
     21 O6          3.2919   -0.0973    1.5794 O.3       1 <0>        -0.4856
     22 O7          3.5458    2.1225   -0.0269 O.3       1 <0>        -0.4881
     23 H1         -0.6843    1.4460   -1.4327 H         1 <0>         0.1397
     24 H2          1.4276    2.7014   -1.4473 H         1 <0>         0.1381
     25 H3          0.9685   -1.2854    1.4384 H         1 <0>         0.1410
     26 H4         -5.6395   -4.9047   -0.0825 H         1 <0>         0.1180
     27 H5         -1.3506   -4.7057   -0.2895 H         1 <0>         0.1230
     28 H6         -6.7597   -2.9537    0.1258 H         1 <0>         0.3847
     29 H7         -3.3475    1.6656    0.3047 H         1 <0>         0.4058
     30 H8          3.2925    0.2977    2.4620 H         1 <0>         0.3855
     31 H9          3.5825    2.8346    0.6263 H         1 <0>         0.3863
@<TRIPOS>BOND
     1    1    6 ar
     2    1    2 ar
     3    1   23 1
     4    2    3 ar
     5    2   24 1
     6    3    4 ar
     7    3   22 1
     8    4    5 ar
     9    4   21 1
    10    5    6 ar
    11    5   25 1
    12    6    7 1
    13    7   17 1
    14    7    8 2
    15    8    9 1
    16    8   20 1
    17    9   10 2
    18    9   19 1
    19   10   16 1
    20   10   11 1
    21   11   12 2
    22   11   18 1
    23   12   13 1
    24   12   26 1
    25   13   14 2
    26   13   15 1
    27   15   16 2
    28   15   27 1
    29   16   17 1
    30   18   28 1
    31   20   29 1
    32   21   30 1
    33   22   31 1
@<TRIPOS>MOLECULE
ZINC37858693
   41    44     0     0     0
SMALL
USER_CHARGES

@<TRIPOS>ATOM
      1 C1          0.5160    2.1016    0.8389 C.ar      1 <0>        -0.0994
      2 C2          1.7856    2.6500    0.8665 C.ar      1 <0>        -0.1121
      3 C3          2.8922    1.8441    0.6914 C.ar      1 <0>        -0.0943
      4 C4          2.7287    0.4752    0.4869 C.ar      1 <0>        -0.0732
      5 C5          1.4472   -0.0719    0.4605 C.ar      1 <0>        -0.1006
      6 C6          0.3478    0.7436    0.6363 C.ar      1 <0>        -0.1173
      7 C7          3.9141   -0.3959    0.2976 C.ar      1 <0>        -0.0335
      8 C8          4.8973   -0.0477   -0.6237 C.ar      1 <0>        -0.0260
      9 C9          6.0057   -0.8554   -0.8057 C.ar      1 <0>        -0.1150
     10 C10         6.1509   -2.0173   -0.0765 C.ar      1 <0>        -0.0276
     11 C11         5.1749   -2.3827    0.8521 C.ar      1 <0>        -0.1580
     12 C12         4.0513   -1.5679    1.0483 C.ar      1 <0>         0.1530
     13 O1          3.1107   -1.9210    1.9513 O.3       1 <0>        -0.2119
     14 C13         3.2233   -3.0458    2.6842 C.2       1 <0>         0.5161
     15 C14         4.3307   -3.9124    2.5453 C.2       1 <0>        -0.3925
     16 C15         5.3074   -3.6191    1.6424 C.2       1 <0>         0.3444
     17 O2          6.3792   -4.4322    1.4880 O.3       1 <0>        -0.4181
     18 N1          2.2825   -3.3434    3.5479 N.pl3     1 <0>        -0.4926
     19 C16         2.4343   -4.4783    4.4722 C.3       1 <0>         0.0520
     20 C17         2.1323   -3.9883    5.8930 C.3       1 <0>         0.0436
     21 O3          0.8653   -3.3262    5.9032 O.3       1 <0>        -0.3612
     22 C18         0.8098   -2.1560    5.0839 C.3       1 <0>         0.0453
     23 C19         1.0465   -2.5487    3.6254 C.3       1 <0>         0.0388
     24 H1         -0.3469    2.7354    0.9805 H         1 <0>         0.1315
     25 H2          1.9111    3.7109    1.0251 H         1 <0>         0.1335
     26 H3          3.8830    2.2735    0.7124 H         1 <0>         0.1299
     27 H4          1.3146   -1.1320    0.3020 H         1 <0>         0.1182
     28 H5         -0.6458    0.3207    0.6159 H         1 <0>         0.1304
     29 H6          4.7942    0.8593   -1.2010 H         1 <0>         0.1606
     30 H7          6.7620   -0.5746   -1.5237 H         1 <0>         0.1586
     31 H8          7.0184   -2.6435   -0.2242 H         1 <0>         0.1605
     32 H9          4.3974   -4.8082    3.1449 H         1 <0>         0.1871
     33 H10         1.7353   -5.2692    4.2004 H         1 <0>         0.1243
     34 H11         3.4552   -4.8572    4.4238 H         1 <0>         0.1224
     35 H12         2.1038   -4.8394    6.5733 H         1 <0>         0.1345
     36 H13         2.9091   -3.2929    6.2111 H         1 <0>         0.0713
     37 H14        -0.1702   -1.6889    5.1820 H         1 <0>         0.1322
     38 H15         1.5817   -1.4539    5.3990 H         1 <0>         0.0698
     39 H16         1.1488   -1.6504    3.0165 H         1 <0>         0.1219
     40 H17         0.2054   -3.1421    3.2669 H         1 <0>         0.1210
     41 H18         6.3643   -5.2148    2.0559 H         1 <0>         0.4327
@<TRIPOS>BOND
     1    1    6 ar
     2    1    2 ar
     3    1   24 1
     4    2    3 ar
     5    2   25 1
     6    3    4 ar
     7    3   26 1
     8    4    5 ar
     9    4    7 1
    10    5    6 ar
    11    5   27 1
    12    6   28 1
    13    7   12 ar
    14    7    8 ar
    15    8    9 ar
    16    8   29 1
    17    9   10 ar
    18    9   30 1
    19   10   11 ar
    20   10   31 1
    21   11   16 1
    22   11   12 ar
    23   12   13 1
    24   13   14 1
    25   14   15 1
    26   14   18 2
    27   15   16 2
    28   15   32 1
    29   16   17 1
    30   17   41 1
    31   18   23 1
    32   18   19 1
    33   19   20 1
    34   19   33 1
    35   19   34 1
    36   20   21 1
    37   20   35 1
    38   20   36 1
    39   21   22 1
    40   22   23 1
    41   22   37 1
    42   22   38 1
    43   23   39 1
    44   23   40 1
@<TRIPOS>MOLECULE
ZINC37858693
   40    43     0     0     0
SMALL
USER_CHARGES

@<TRIPOS>ATOM
      1 C1          0.2876    1.8369    0.5003 C.ar      1 <0>        -0.1138
      2 C2          1.5256    2.4537    0.5196 C.ar      1 <0>        -0.1178
      3 C3          2.6766    1.7000    0.4106 C.ar      1 <0>        -0.1031
      4 C4          2.5899    0.3150    0.2813 C.ar      1 <0>        -0.0464
      5 C5          1.3398   -0.3010    0.2629 C.ar      1 <0>        -0.0972
      6 C6          0.1955    0.4627    0.3722 C.ar      1 <0>        -0.1190
      7 C7          3.8233   -0.5002    0.1633 C.ar      1 <0>        -0.0659
      8 C8          4.8057   -0.1521   -0.7576 C.ar      1 <0>        -0.0509
      9 C9          5.9596   -0.9073   -0.8735 C.ar      1 <0>        -0.1421
     10 C10         6.1511   -2.0171   -0.0767 C.ar      1 <0>        -0.0303
     11 C11         5.1771   -2.3805    0.8515 C.ar      1 <0>        -0.2132
     12 C12         4.0070   -1.6203    0.9822 C.ar      1 <0>         0.1636
     13 O1          3.0722   -1.9773    1.8869 O.3       1 <0>        -0.2401
     14 C13         3.2188   -3.0440    2.6844 C.2       1 <0>         0.4332
     15 C14         4.3202   -3.8451    2.6409 C.2       1 <0>        -0.4014
     16 C15         5.3485   -3.5630    1.7210 C.2       1 <0>         0.4330
     17 O2          6.3487   -4.2595    1.6546 O.2       1 <0>        -0.4871
     18 N1          2.2228   -3.3404    3.5787 N.pl3     1 <0>        -0.6054
     19 C16         2.5307   -3.9598    4.8776 C.3       1 <0>         0.0933
     20 C17         1.8423   -3.1437    5.9776 C.3       1 <0>         0.0440
     21 O3          0.4569   -2.9961    5.6571 O.3       1 <0>        -0.3749
     22 C18         0.2096   -2.2766    4.4468 C.3       1 <0>         0.0453
     23 C19         0.8149   -3.0430    3.2707 C.3       1 <0>         0.0807
     24 H1         -0.6104    2.4302    0.5900 H         1 <0>         0.1241
     25 H2          1.5916    3.5270    0.6198 H         1 <0>         0.1260
     26 H3          3.6427    2.1826    0.4251 H         1 <0>         0.1253
     27 H4          1.2668   -1.3738    0.1627 H         1 <0>         0.1192
     28 H5         -0.7737   -0.0136    0.3580 H         1 <0>         0.1249
     29 H6          4.6668    0.7142   -1.3874 H         1 <0>         0.1424
     30 H7          6.7148   -0.6263   -1.5926 H         1 <0>         0.1401
     31 H8          7.0533   -2.6030   -0.1722 H         1 <0>         0.1447
     32 H9          4.4000   -4.6957    3.3015 H         1 <0>         0.1539
     33 H10         2.1587   -4.9842    4.8932 H         1 <0>         0.0888
     34 H11         3.6087   -3.9576    5.0390 H         1 <0>         0.1017
     35 H12         1.9421   -3.6615    6.9316 H         1 <0>         0.1144
     36 H13         2.3070   -2.1601    6.0461 H         1 <0>         0.0589
     37 H14        -0.8652   -2.1705    4.2994 H         1 <0>         0.1109
     38 H15         0.6683   -1.2898    4.5097 H         1 <0>         0.0586
     39 H16         0.7573   -2.4341    2.3685 H         1 <0>         0.0961
     40 H17         0.2673   -3.9736    3.1217 H         1 <0>         0.0853
@<TRIPOS>BOND
     1    1    6 ar
     2    1    2 ar
     3    1   24 1
     4    2    3 ar
     5    2   25 1
     6    3    4 ar
     7    3   26 1
     8    4    5 ar
     9    4    7 1
    10    5    6 ar
    11    5   27 1
    12    6   28 1
    13    7   12 ar
    14    7    8 ar
    15    8    9 ar
    16    8   29 1
    17    9   10 ar
    18    9   30 1
    19   10   11 ar
    20   10   31 1
    21   11   16 1
    22   11   12 ar
    23   12   13 1
    24   13   14 1
    25   14   15 2
    26   14   18 1
    27   15   16 1
    28   15   32 1
    29   16   17 2
    30   18   23 1
    31   18   19 1
    32   19   20 1
    33   19   33 1
    34   19   34 1
    35   20   21 1
    36   20   35 1
    37   20   36 1
    38   21   22 1
    39   22   23 1
    40   22   37 1
    41   22   38 1
    42   23   39 1
    43   23   40 1
