@<TRIPOS>MOLECULE
ZINC03813524
   56    55     0     0     0
SMALL
USER_CHARGES

@<TRIPOS>ATOM
      1 C1          1.4699    3.0103    1.6795 C.3       1 <0>        -0.1543
      2 C2          1.1470    1.5224    1.8304 C.3       1 <0>        -0.1260
      3 C3          2.2011    0.8593    2.7193 C.3       1 <0>        -0.1214
      4 C4          1.8782   -0.6286    2.8702 C.3       1 <0>        -0.1145
      5 C5          2.9323   -1.2916    3.7591 C.3       1 <0>        -0.1026
      6 C6          2.6142   -2.7572    3.9077 C.2       1 <0>        -0.1576
      7 C7          3.5316   -3.6560    3.6493 C.2       1 <0>        -0.1540
      8 C8          4.9477   -3.2268    3.3638 C.3       1 <0>        -0.0836
      9 C9          5.8898   -3.9597    4.2837 C.2       1 <0>        -0.1502
     10 C10         6.9144   -4.6095    3.7897 C.2       1 <0>        -0.1530
     11 C11         7.2468   -4.4906    2.3247 C.3       1 <0>        -0.0838
     12 C12         8.6877   -4.0777    2.1683 C.2       1 <0>        -0.1500
     13 C13         9.4920   -4.7809    1.4103 C.2       1 <0>        -0.1531
     14 C14         8.9417   -5.8950    0.5577 C.3       1 <0>        -0.0844
     15 C15         9.3779   -5.6965   -0.8711 C.2       1 <0>        -0.1473
     16 C16         9.9891   -6.6633   -1.5096 C.2       1 <0>        -0.1612
     17 C17        10.1105   -8.0256   -0.8767 C.3       1 <0>        -0.1010
     18 C18         9.5949   -9.0878   -1.8497 C.3       1 <0>        -0.1078
     19 C19         9.7182  -10.4708   -1.2070 C.3       1 <0>        -0.1636
     20 C20         9.2103  -11.5171   -2.1654 C.2       1 <0>         0.3287
     21 O1          8.7928  -11.1903   -3.2504 O.2       1 <0>        -0.3730
     22 C21         9.2234  -12.9712   -1.7697 C.3       1 <0>         0.4166
     23 F1          8.7076  -13.7438   -2.8157 F         1 <0>        -0.1646
     24 F2         10.5372  -13.3692   -1.4999 F         1 <0>        -0.1663
     25 F3          8.4377  -13.1504   -0.6262 F         1 <0>        -0.1663
     26 H1          2.4534    3.1242    1.2236 H         1 <0>         0.0534
     27 H2          0.7189    3.4826    1.0462 H         1 <0>         0.0536
     28 H3          1.4674    3.4840    2.6612 H         1 <0>         0.0534
     29 H4          0.1635    1.4084    2.2863 H         1 <0>         0.0606
     30 H5          1.1495    1.0487    0.8487 H         1 <0>         0.0605
     31 H6          3.1846    0.9733    2.2634 H         1 <0>         0.0610
     32 H7          2.1986    1.3330    3.7010 H         1 <0>         0.0613
     33 H8          0.8947   -0.7425    3.3261 H         1 <0>         0.0617
     34 H9          1.8807   -1.1023    1.8885 H         1 <0>         0.0620
     35 H10         3.9158   -1.1777    3.3032 H         1 <0>         0.0755
     36 H11         2.9298   -0.8179    4.7408 H         1 <0>         0.0689
     37 H12         1.6300   -3.0664    4.2272 H         1 <0>         0.1090
     38 H13         3.2730   -4.7045    3.6409 H         1 <0>         0.1086
     39 H14         5.1962   -3.4599    2.3284 H         1 <0>         0.0827
     40 H15         5.0419   -2.1533    3.5273 H         1 <0>         0.0842
     41 H16         5.7203   -3.9492    5.3503 H         1 <0>         0.1099
     42 H17         7.5209   -5.2304    4.4324 H         1 <0>         0.1100
     43 H18         7.0897   -5.4528    1.8372 H         1 <0>         0.0832
     44 H19         6.6022   -3.7411    1.8655 H         1 <0>         0.0836
     45 H20         9.0572   -3.2020    2.6812 H         1 <0>         0.1101
     46 H21        10.5496   -4.5623    1.3965 H         1 <0>         0.1102
     47 H22         9.3168   -6.8511    0.9226 H         1 <0>         0.0838
     48 H23         7.8529   -5.8882    0.6094 H         1 <0>         0.0839
     49 H24         9.1867   -4.7572   -1.3685 H         1 <0>         0.1103
     50 H25        10.4060   -6.4842   -2.4897 H         1 <0>         0.1113
     51 H26        11.1560   -8.2251   -0.6416 H         1 <0>         0.0745
     52 H27         9.5202   -8.0546    0.0392 H         1 <0>         0.0801
     53 H28         8.5494   -8.8883   -2.0848 H         1 <0>         0.0750
     54 H29        10.1852   -9.0588   -2.7655 H         1 <0>         0.0748
     55 H30        10.7637  -10.6704   -0.9719 H         1 <0>         0.1190
     56 H31         9.1279  -10.4999   -0.2912 H         1 <0>         0.1184
@<TRIPOS>BOND
     1    1    2 1
     2    1   26 1
     3    1   27 1
     4    1   28 1
     5    2    3 1
     6    2   29 1
     7    2   30 1
     8    3    4 1
     9    3   31 1
    10    3   32 1
    11    4    5 1
    12    4   33 1
    13    4   34 1
    14    5    6 1
    15    5   35 1
    16    5   36 1
    17    6    7 2
    18    6   37 1
    19    7    8 1
    20    7   38 1
    21    8    9 1
    22    8   39 1
    23    8   40 1
    24    9   10 2
    25    9   41 1
    26   10   11 1
    27   10   42 1
    28   11   12 1
    29   11   43 1
    30   11   44 1
    31   12   13 2
    32   12   45 1
    33   13   14 1
    34   13   46 1
    35   14   15 1
    36   14   47 1
    37   14   48 1
    38   15   16 2
    39   15   49 1
    40   16   17 1
    41   16   50 1
    42   17   18 1
    43   17   51 1
    44   17   52 1
    45   18   19 1
    46   18   53 1
    47   18   54 1
    48   19   20 1
    49   19   55 1
    50   19   56 1
    51   20   21 2
    52   20   22 1
    53   22   23 1
    54   22   24 1
    55   22   25 1
