@<TRIPOS>MOLECULE
ZINC05977595
   66    68     0     0     0
SMALL
USER_CHARGES
5-hydroxy-4-[6-hydroxy-5-[4-methyl-6-(2,6,6-trimethyl-1-cyclohexenyl)-hex-3-enyl]-3,6-dihydro-2H-pyran-2-yl]-5H-furan-2-one
@<TRIPOS>ATOM
      1 C1         -3.8369    8.6334   -8.3974 C.3       1 <0>        -0.1273
      2 C2         -3.5563    8.3509   -9.8508 C.2       1 <0>        -0.1223
      3 C3         -2.8213    7.3251  -10.1389 C.2       1 <0>        -0.1126
      4 C4         -2.4440    6.9267  -11.5356 C.3       1 <0>        -0.0219
      5 C5         -3.3748    7.6055  -12.5452 C.3       1 <0>        -0.1103
      6 C6         -3.4324    9.1026  -12.2163 C.3       1 <0>        -0.1225
      7 C7         -4.1469    9.2761  -10.8742 C.3       1 <0>        -0.0816
      8 C8         -0.9984    7.3463  -11.8097 C.3       1 <0>        -0.1384
      9 C9         -2.5643    5.4083  -11.6799 C.3       1 <0>        -0.1430
     10 C10        -2.3074    6.4820   -9.0004 C.3       1 <0>        -0.0813
     11 C11        -3.2520    5.2998   -8.7744 C.3       1 <0>        -0.0867
     12 C12        -2.7381    4.4568   -7.6359 C.2       1 <0>        -0.1222
     13 C13        -3.1921    4.6483   -6.4221 C.2       1 <0>        -0.1666
     14 C14        -2.5943    3.8893   -5.2655 C.3       1 <0>        -0.0880
     15 C15        -2.1253    4.8769   -4.1953 C.3       1 <0>        -0.0744
     16 C16        -1.5275    4.1179   -3.0387 C.2       1 <0>        -0.1432
     17 C17        -0.2400    3.9419   -3.0097 C.2       1 <0>        -0.1249
     18 C18         0.4485    3.1913   -1.9033 C.3       1 <0>        -0.1205
     19 C19        -0.4934    3.0690   -0.7022 C.3       1 <0>         0.1462
     20 H1         -0.5998    4.0398   -0.2180 H         1 <0>         0.0946
     21 O1         -1.7708    2.6219   -1.1733 O.3       1 <0>        -0.3676
     22 C20        -2.4457    3.5981   -1.9693 C.3       1 <0>         0.2953
     23 H2         -3.3206    3.1433   -2.4339 H         1 <0>         0.1113
     24 O2         -2.8614    4.6829   -1.1370 O.3       1 <0>        -0.5710
     25 C21         0.0633    2.0705    0.2797 C.2       1 <0>        -0.0733
     26 C22         0.4647    2.3201    1.5251 C.2       1 <0>        -0.1927
     27 C23         0.9401    1.0801    2.1446 C.2       1 <0>         0.5040
     28 O3          1.3712    0.9869    3.2771 O.2       1 <0>        -0.4395
     29 O4          0.8294    0.0597    1.2735 O.3       1 <0>        -0.3467
     30 C24         0.2731    0.5937    0.0394 C.3       1 <0>         0.2756
     31 H3          0.9718    0.4429   -0.7835 H         1 <0>         0.1245
     32 O5         -0.9743   -0.0394   -0.2525 O.3       1 <0>        -0.5200
     33 C25        -1.7019    3.3933   -7.8937 C.3       1 <0>        -0.1184
     34 H4         -3.0637    9.2906   -7.9992 H         1 <0>         0.0640
     35 H5         -4.8091    9.1170   -8.3023 H         1 <0>         0.0585
     36 H6         -3.8407    7.6971   -7.8394 H         1 <0>         0.0690
     37 H7         -4.3740    7.1760  -12.4740 H         1 <0>         0.0638
     38 H8         -2.9875    7.4668  -13.5546 H         1 <0>         0.0643
     39 H9         -3.9841    9.6281  -12.9957 H         1 <0>         0.0639
     40 H10        -2.4204    9.5017  -12.1469 H         1 <0>         0.0663
     41 H11        -5.2061    9.0502  -10.9970 H         1 <0>         0.0708
     42 H12        -4.0339   10.3066  -10.5376 H         1 <0>         0.0688
     43 H13        -0.3358    6.8529  -11.0986 H         1 <0>         0.0547
     44 H14        -0.7224    7.0577  -12.8240 H         1 <0>         0.0560
     45 H15        -0.9071    8.4271  -11.7019 H         1 <0>         0.0565
     46 H16        -3.5918    5.1046  -11.4793 H         1 <0>         0.0571
     47 H17        -2.2907    5.1168  -12.6939 H         1 <0>         0.0543
     48 H18        -1.8963    4.9217  -10.9692 H         1 <0>         0.0604
     49 H19        -2.2581    7.0861   -8.0944 H         1 <0>         0.0727
     50 H20        -1.3120    6.1104   -9.2439 H         1 <0>         0.0661
     51 H21        -3.3013    4.6958   -9.6804 H         1 <0>         0.0791
     52 H22        -4.2473    5.6715   -8.5309 H         1 <0>         0.0657
     53 H23        -3.9947    5.3502   -6.2503 H         1 <0>         0.1077
     54 H24        -1.7450    3.3028   -5.6159 H         1 <0>         0.0724
     55 H25        -3.3455    3.2232   -4.8411 H         1 <0>         0.0684
     56 H26        -2.9746    5.4634   -3.8449 H         1 <0>         0.0764
     57 H27        -1.3741    5.5430   -4.6198 H         1 <0>         0.0730
     58 H28         0.3582    4.3503   -3.8109 H         1 <0>         0.1233
     59 H29         1.3487    3.7290   -1.6054 H         1 <0>         0.0937
     60 H30         0.7202    2.1958   -2.2544 H         1 <0>         0.0888
     61 H31        -3.4653    4.4250   -0.4272 H         1 <0>         0.3878
     62 H32         0.4429    3.2876    2.0044 H         1 <0>         0.1766
     63 H33        -0.9062   -0.9924   -0.4018 H         1 <0>         0.3955
     64 H34        -2.0668    2.4339   -7.5268 H         1 <0>         0.0653
     65 H35        -1.5111    3.3240   -8.9647 H         1 <0>         0.0596
     66 H36        -0.7784    3.6528   -7.3762 H         1 <0>         0.0648
@<TRIPOS>BOND
     1    1    2 1
     2    1   34 1
     3    1   35 1
     4    1   36 1
     5    2    7 1
     6    2    3 2
     7    3    4 1
     8    3   10 1
     9    4    5 1
    10    4    8 1
    11    4    9 1
    12    5    6 1
    13    5   37 1
    14    5   38 1
    15    6    7 1
    16    6   39 1
    17    6   40 1
    18    7   41 1
    19    7   42 1
    20    8   43 1
    21    8   44 1
    22    8   45 1
    23    9   46 1
    24    9   47 1
    25    9   48 1
    26   10   11 1
    27   10   49 1
    28   10   50 1
    29   11   12 1
    30   11   51 1
    31   11   52 1
    32   12   13 2
    33   12   33 1
    34   13   14 1
    35   13   53 1
    36   14   15 1
    37   14   54 1
    38   14   55 1
    39   15   16 1
    40   15   56 1
    41   15   57 1
    42   16   22 1
    43   16   17 2
    44   17   18 1
    45   17   58 1
    46   18   19 1
    47   18   59 1
    48   18   60 1
    49   19   20 1
    50   19   21 1
    51   19   25 1
    52   21   22 1
    53   22   23 1
    54   22   24 1
    55   24   61 1
    56   25   30 1
    57   25   26 2
    58   26   27 1
    59   26   62 1
    60   27   28 2
    61   27   29 1
    62   29   30 1
    63   30   31 1
    64   30   32 1
    65   32   63 1
    66   33   64 1
    67   33   65 1
    68   33   66 1
