@<TRIPOS>MOLECULE
ZINC04475082
   32    34     0     0     0
SMALL
USER_CHARGES

@<TRIPOS>ATOM
      1 C1         -0.0160    1.3564    0.0398 C.ar      1 <0>        -0.1178
      2 C2          1.1689    2.0904    0.0326 C.ar      1 <0>        -0.1075
      3 C3          2.3787    1.4677    0.0074 C.ar      1 <0>        -0.1178
      4 C4          2.4379    0.0636   -0.0111 C.ar      1 <0>        -0.0348
      5 C5          1.2329   -0.6828   -0.0033 C.ar      1 <0>        -0.0520
      6 C6          0.0023   -0.0042    0.0223 C.ar      1 <0>        -0.1008
      7 C7          1.2920   -2.0865   -0.0213 C.ar      1 <0>        -0.0965
      8 C8          2.5021   -2.7094   -0.0460 C.ar      1 <0>        -0.1142
      9 C9          3.6866   -1.9757   -0.0532 C.ar      1 <0>        -0.0899
     10 C10         3.6681   -0.6146   -0.0367 C.ar      1 <0>        -0.0695
     11 C11         4.9603    0.1606   -0.0459 C.3       1 <0>        -0.0952
     12 H1          4.7473    1.2259   -0.1346 H         1 <0>         0.1282
     13 C12         5.8239   -0.2920   -1.2300 C.3       1 <0>        -0.1107
     14 C13         7.1929    0.3935   -1.1345 C.3       1 <0>        -0.1331
     15 C14         7.7763    0.1137    0.2332 C.2       1 <0>         0.0962
     16 C15         9.0041   -0.3456    0.3674 C.2       1 <0>        -0.1785
     17 Br1        10.0666   -0.6652   -1.1639 Br        1 <0>        -0.0243
     18 O1          6.9897    0.3527    1.3254 O.3       1 <0>        -0.3002
     19 C16         5.7183   -0.1006    1.2368 C.2       1 <0>         0.4909
     20 O2          5.2051   -0.6996    2.1522 O.2       1 <0>        -0.4155
     21 H2         -0.9629    1.8753    0.0640 H         1 <0>         0.1253
     22 H3          1.1262    3.1694    0.0468 H         1 <0>         0.1251
     23 H4          3.2886    2.0495    0.0014 H         1 <0>         0.1254
     24 H5         -0.9239   -0.5597    0.0286 H         1 <0>         0.1294
     25 H6          0.3820   -2.6682   -0.0153 H         1 <0>         0.1303
     26 H7          2.5447   -3.7884   -0.0598 H         1 <0>         0.1273
     27 H8          4.6336   -2.4945   -0.0726 H         1 <0>         0.1198
     28 H9          5.9538   -1.3737   -1.1949 H         1 <0>         0.0827
     29 H10         5.3388   -0.0105   -2.1646 H         1 <0>         0.1004
     30 H11         7.8557   -0.0035   -1.9035 H         1 <0>         0.1141
     31 H12         7.0742    1.4686   -1.2690 H         1 <0>         0.1042
     32 H13         9.4035   -0.5395    1.3519 H         1 <0>         0.1590
@<TRIPOS>BOND
     1    1    6 ar
     2    1    2 ar
     3    1   21 1
     4    2    3 ar
     5    2   22 1
     6    3    4 ar
     7    3   23 1
     8    4   10 ar
     9    4    5 ar
    10    5    6 ar
    11    5    7 ar
    12    6   24 1
    13    7    8 ar
    14    7   25 1
    15    8    9 ar
    16    8   26 1
    17    9   10 ar
    18    9   27 1
    19   10   11 1
    20   11   12 1
    21   11   19 1
    22   11   13 1
    23   13   14 1
    24   13   28 1
    25   13   29 1
    26   14   15 1
    27   14   30 1
    28   14   31 1
    29   15   16 2
    30   15   18 1
    31   16   17 1
    32   16   32 1
    33   18   19 1
    34   19   20 2
@<TRIPOS>MOLECULE
ZINC04475083
   32    34     0     0     0
SMALL
USER_CHARGES

@<TRIPOS>ATOM
      1 C1          0.0079    1.3085   -0.6433 C.ar      1 <0>        -0.1178
      2 C2          1.1928    2.0423   -0.6543 C.ar      1 <0>        -0.1075
      3 C3          2.3950    1.4351   -0.4592 C.ar      1 <0>        -0.1178
      4 C4          2.4460    0.0474   -0.2425 C.ar      1 <0>        -0.0348
      5 C5          1.2409   -0.6989   -0.2308 C.ar      1 <0>        -0.0520
      6 C6          0.0185   -0.0366   -0.4366 C.ar      1 <0>        -0.1008
      7 C7          1.2918   -2.0861   -0.0137 C.ar      1 <0>        -0.0965
      8 C8          2.4942   -2.6935    0.1820 C.ar      1 <0>        -0.1142
      9 C9          3.6787   -1.9599    0.1709 C.ar      1 <0>        -0.0899
     10 C10         3.6681   -0.6146   -0.0367 C.ar      1 <0>        -0.0695
     11 C11         4.9603    0.1606   -0.0459 C.3       1 <0>        -0.0952
     12 H1          4.7469    1.2268   -0.1220 H         1 <0>         0.1282
     13 C12         5.7371   -0.1179    1.2471 C.3       1 <0>        -0.1107
     14 C13         7.1127    0.5542    1.1524 C.3       1 <0>        -0.1331
     15 C14         7.7886    0.0889   -0.1188 C.2       1 <0>         0.0962
     16 C15         9.0202   -0.3794   -0.1015 C.2       1 <0>        -0.1784
     17 Br1         9.9714   -0.4779    1.5299 Br        1 <0>        -0.0243
     18 O1          7.0812    0.1692   -1.2858 O.3       1 <0>        -0.3002
     19 C16         5.8046   -0.2735   -1.2236 C.2       1 <0>         0.4909
     20 O2          5.3535   -0.9970   -2.0798 O.2       1 <0>        -0.4155
     21 H2         -0.9332    1.8156   -0.7967 H         1 <0>         0.1253
     22 H3          1.1564    3.1088   -0.8206 H         1 <0>         0.1251
     23 H4          3.3051    2.0165   -0.4711 H         1 <0>         0.1255
     24 H5         -0.9077   -0.5921   -0.4304 H         1 <0>         0.1294
     25 H6          0.3817   -2.6674   -0.0019 H         1 <0>         0.1303
     26 H7          2.5305   -3.7599    0.3486 H         1 <0>         0.1273
     27 H8          4.6194   -2.4663    0.3292 H         1 <0>         0.1198
     28 H9          5.1894    0.2890    2.0971 H         1 <0>         0.1004
     29 H10         5.8638   -1.1932    1.3726 H         1 <0>         0.0827
     30 H11         6.9902    1.6370    1.1267 H         1 <0>         0.1042
     31 H12         7.7183    0.2718    2.0136 H         1 <0>         0.1141
     32 H13         9.4863   -0.7069   -1.0190 H         1 <0>         0.1590
@<TRIPOS>BOND
     1    1    6 ar
     2    1    2 ar
     3    1   21 1
     4    2    3 ar
     5    2   22 1
     6    3    4 ar
     7    3   23 1
     8    4   10 ar
     9    4    5 ar
    10    5    6 ar
    11    5    7 ar
    12    6   24 1
    13    7    8 ar
    14    7   25 1
    15    8    9 ar
    16    8   26 1
    17    9   10 ar
    18    9   27 1
    19   10   11 1
    20   11   12 1
    21   11   19 1
    22   11   13 1
    23   13   14 1
    24   13   28 1
    25   13   29 1
    26   14   15 1
    27   14   30 1
    28   14   31 1
    29   15   16 2
    30   15   18 1
    31   16   17 1
    32   16   32 1
    33   18   19 1
    34   19   20 2
