@<TRIPOS>MOLECULE
ZINC27556112
   56    58     0     0     0
SMALL
USER_CHARGES
3-[3-(2-amino-2-oxo-ethyl)-1-benzyl-2-ethyl-indol-5-yl]oxypropylphosphonic acid
@<TRIPOS>ATOM
      1 C1         -0.3087   -1.0209    2.3408 C.3       1 <0>        -0.1492
      2 C2         -1.7312   -1.3420    1.8780 C.3       1 <0>        -0.0668
      3 C3         -2.6455   -0.1980    2.2337 C.2       1 <0>         0.1123
      4 C4         -3.2605   -0.0422    3.4168 C.2       1 <0>        -0.1606
      5 C5         -4.0503    1.1886    3.3307 C.ar      1 <0>        -0.0468
      6 C6         -4.8920    1.8640    4.2174 C.ar      1 <0>        -0.1169
      7 C7         -5.5045    3.0349    3.8182 C.ar      1 <0>         0.1122
      8 C8         -5.2855    3.5410    2.5393 C.ar      1 <0>        -0.1806
      9 C9         -4.4575    2.8838    1.6573 C.ar      1 <0>        -0.0888
     10 C10        -3.8309    1.7024    2.0403 C.ar      1 <0>         0.0704
     11 N1         -2.9689    0.8372    1.4000 N.pl3     1 <0>        -0.4722
     12 C11        -2.4778    0.9992    0.0293 C.3       1 <0>         0.1498
     13 C12        -3.4683    0.3970   -0.9337 C.ar      1 <0>        -0.1121
     14 C13        -4.5418    1.1454   -1.3792 C.ar      1 <0>        -0.0973
     15 C14        -5.4472    0.5949   -2.2669 C.ar      1 <0>        -0.1187
     16 C15        -5.2822   -0.7057   -2.7050 C.ar      1 <0>        -0.1120
     17 C16        -4.2117   -1.4559   -2.2553 C.ar      1 <0>        -0.1209
     18 C17        -3.3062   -0.9054   -1.3676 C.ar      1 <0>        -0.1012
     19 O1         -6.3247    3.6972    4.6773 O.3       1 <0>        -0.3153
     20 C18        -6.9261    4.9027    4.2008 C.3       1 <0>         0.0648
     21 C19        -7.8078    5.5013    5.2986 C.3       1 <0>        -0.1018
     22 C20        -8.4517    6.7920    4.7884 C.3       1 <0>        -0.7289
     23 P1         -9.5023    7.5052    6.0964 P.3       1 <0>         2.2824
     24 O2         -8.7005    7.6918    7.3263 O.2       1 <0>        -1.0877
     25 O3        -10.0753    8.9284    5.6082 O.3       1 <0>        -1.1198
     26 O4        -10.7295    6.5089    6.4019 O.3       1 <0>        -0.9379
     27 C21        -3.1622   -0.9626    4.6060 C.3       1 <0>        -0.0642
     28 C22        -4.2381   -2.0142    4.5176 C.2       1 <0>         0.5139
     29 O5         -5.0087   -2.0160    3.5811 O.2       1 <0>        -0.5360
     30 N2         -4.3438   -2.9526    5.4792 N.am      1 <0>        -0.8850
     31 H1          0.3586   -1.8559    2.0812 H         1 <0>         0.0625
     32 H2         -0.3026   -0.8718    3.4306 H         1 <0>         0.0627
     33 H3          0.0405   -0.1041    1.8433 H         1 <0>         0.0556
     34 H4         -1.7373   -1.4911    0.7882 H         1 <0>         0.0726
     35 H5         -2.0805   -2.2588    2.3754 H         1 <0>         0.0857
     36 H6         -5.0623    1.4728    5.2095 H         1 <0>         0.1258
     37 H7         -5.7695    4.4579    2.2368 H         1 <0>         0.1292
     38 H8         -4.2947    3.2852    0.6680 H         1 <0>         0.1174
     39 H9         -2.3554    2.0697   -0.1922 H         1 <0>         0.0946
     40 H10        -1.5084    0.4899   -0.0755 H         1 <0>         0.0970
     41 H11        -4.6705    2.1617   -1.0372 H         1 <0>         0.1209
     42 H12        -6.2834    1.1812   -2.6185 H         1 <0>         0.1240
     43 H13        -5.9894   -1.1357   -3.3988 H         1 <0>         0.1228
     44 H14        -4.0825   -2.4720   -2.5979 H         1 <0>         0.1230
     45 H15        -2.4697   -1.4914   -1.0166 H         1 <0>         0.1202
     46 H16        -6.1397    5.6222    3.9290 H         1 <0>         0.0578
     47 H17        -7.5415    4.6808    3.3165 H         1 <0>         0.0542
     48 H18        -8.5942    4.7817    5.5704 H         1 <0>         0.0707
     49 H19        -7.1924    5.7232    6.1829 H         1 <0>         0.0862
     50 H20        -7.6653    7.5115    4.5167 H         1 <0>         0.0877
     51 H21        -9.0671    6.5701    3.9041 H         1 <0>         0.0701
     52 H22       -11.4743    6.7723    7.1673 H         1 <0>         0.4442
     53 H23        -2.1750   -1.4477    4.6135 H         1 <0>         0.0959
     54 H24        -3.2923   -0.3817    5.5310 H         1 <0>         0.1001
     55 H25        -5.1291   -3.7202    5.4147 H         1 <0>         0.4173
     56 H26        -3.6448   -2.9509    6.3285 H         1 <0>         0.4168
@<TRIPOS>BOND
     1    1    2 1
     2    1   31 1
     3    1   32 1
     4    1   33 1
     5    2    3 1
     6    2   34 1
     7    2   35 1
     8    3   11 1
     9    3    4 2
    10    4    5 1
    11    4   27 1
    12    5   10 ar
    13    5    6 ar
    14    6    7 ar
    15    6   36 1
    16    7    8 ar
    17    7   19 1
    18    8    9 ar
    19    8   37 1
    20    9   10 ar
    21    9   38 1
    22   10   11 1
    23   11   12 1
    24   12   13 1
    25   12   39 1
    26   12   40 1
    27   13   18 ar
    28   13   14 ar
    29   14   15 ar
    30   14   41 1
    31   15   16 ar
    32   15   42 1
    33   16   17 ar
    34   16   43 1
    35   17   18 ar
    36   17   44 1
    37   18   45 1
    38   19   20 1
    39   20   21 1
    40   20   46 1
    41   20   47 1
    42   21   22 1
    43   21   48 1
    44   21   49 1
    45   22   23 1
    46   22   50 1
    47   22   51 1
    48   23   24 2
    49   23   25 1
    50   23   26 1
    51   26   52 1
    52   27   28 1
    53   27   53 1
    54   27   54 1
    55   28   29 2
    56   28   30 am
    57   30   55 1
    58   30   56 1
@<TRIPOS>MOLECULE
ZINC01543773
   47    49     0     0     0
SMALL
USER_CHARGES
2-[1-benzyl-3-(carbamoylformyl)-2-ethyl-indol-4-yl]oxyacetic acid
@<TRIPOS>ATOM
      1 C1         -4.4492   -2.2536    1.3450 C.3       1 <0>        -0.1506
      2 C2         -3.9258   -2.4371   -0.0809 C.3       1 <0>        -0.0696
      3 C3         -2.5234   -2.9869   -0.0344 C.2       1 <0>         0.1221
      4 C4         -1.3698   -2.2264    0.0056 C.2       1 <0>        -0.2101
      5 C5         -0.2479   -3.1845    0.0362 C.ar      1 <0>        -0.0958
      6 C6         -0.8319   -4.4598    0.0208 C.ar      1 <0>         0.1345
      7 N1         -2.2020   -4.2935   -0.0253 N.pl3     1 <0>        -0.4551
      8 C7         -3.1730   -5.3899   -0.0590 C.3       1 <0>         0.1483
      9 C8         -3.4586   -5.7641   -1.4906 C.ar      1 <0>        -0.1140
     10 C9         -4.4887   -5.1458   -2.1744 C.ar      1 <0>        -0.1021
     11 C10        -4.7475   -5.4856   -3.4891 C.ar      1 <0>        -0.1201
     12 C11        -3.9830   -6.4512   -4.1168 C.ar      1 <0>        -0.1116
     13 C12        -2.9562   -7.0733   -3.4314 C.ar      1 <0>        -0.1196
     14 C13        -2.6940   -6.7297   -2.1183 C.ar      1 <0>        -0.0948
     15 C14        -0.0135   -5.5849    0.0462 C.ar      1 <0>        -0.1791
     16 C15         1.3571   -5.4412    0.0915 C.ar      1 <0>        -0.0518
     17 C16         1.9359   -4.1823    0.1132 C.ar      1 <0>        -0.2465
     18 C17         1.1403   -3.0499    0.0890 C.ar      1 <0>         0.1869
     19 O1          1.7072   -1.8154    0.1102 O.3       1 <0>        -0.2835
     20 C18         3.1343   -1.7575    0.1577 C.3       1 <0>         0.0177
     21 C19         3.5784   -0.3176    0.1753 C.2       1 <0>         0.4699
     22 O2          2.7571    0.5683    0.1498 O.co2     1 <0>        -0.6115
     23 C20        -1.2792   -0.7673    0.0102 C.2       1 <0>         0.4404
     24 O3         -1.1918   -0.1670    1.0636 O.2       1 <0>        -0.4029
     25 C21        -1.2941   -0.0152   -1.2777 C.2       1 <0>         0.4942
     26 O4         -1.2847   -0.6167   -2.3320 O.2       1 <0>        -0.5080
     27 N2         -1.3180    1.3324   -1.2708 N.am      1 <0>        -0.8268
     28 H1         -4.4530   -3.2156    1.8573 H         1 <0>         0.0564
     29 H2         -3.8041   -1.5584    1.8822 H         1 <0>         0.0661
     30 H3         -5.4635   -1.8559    1.3113 H         1 <0>         0.0651
     31 H4         -3.9220   -1.4750   -0.5933 H         1 <0>         0.0864
     32 H5         -4.5709   -3.1323   -0.6182 H         1 <0>         0.0807
     33 H6         -2.7653   -6.2528    0.4676 H         1 <0>         0.0997
     34 H7         -4.0968   -5.0723    0.4246 H         1 <0>         0.0989
     35 H8         -5.0889   -4.3946   -1.6826 H         1 <0>         0.1229
     36 H9         -5.5499   -4.9999   -4.0244 H         1 <0>         0.1236
     37 H10        -4.1880   -6.7198   -5.1425 H         1 <0>         0.1224
     38 H11        -2.3591   -7.8279   -3.9217 H         1 <0>         0.1239
     39 H12        -1.8921   -7.2160   -1.5827 H         1 <0>         0.1235
     40 H13        -0.4522   -6.5716    0.0301 H         1 <0>         0.1160
     41 H14         1.9861   -6.3189    0.1107 H         1 <0>         0.1259
     42 H15         3.0108   -4.0845    0.1494 H         1 <0>         0.1320
     43 H16         3.4884   -2.2580    1.0590 H         1 <0>         0.0681
     44 H17         3.5475   -2.2545   -0.7200 H         1 <0>         0.0678
     45 H18        -1.3277    1.8215   -2.1084 H         1 <0>         0.4055
     46 H19        -1.3296    1.8130   -0.4283 H         1 <0>         0.4105
     47 O5          4.8863   -0.0191    0.2194 O.co2     1 <0>        -0.7561
@<TRIPOS>BOND
     1    1    2 1
     2    1   28 1
     3    1   29 1
     4    1   30 1
     5    2    3 1
     6    2   31 1
     7    2   32 1
     8    3    7 1
     9    3    4 2
    10    4    5 1
    11    4   23 1
    12    5   18 ar
    13    5    6 ar
    14    6    7 1
    15    6   15 ar
    16    7    8 1
    17    8    9 1
    18    8   33 1
    19    8   34 1
    20    9   14 ar
    21    9   10 ar
    22   10   11 ar
    23   10   35 1
    24   11   12 ar
    25   11   36 1
    26   12   13 ar
    27   12   37 1
    28   13   14 ar
    29   13   38 1
    30   14   39 1
    31   15   16 ar
    32   15   40 1
    33   16   17 ar
    34   16   41 1
    35   17   18 ar
    36   17   42 1
    37   18   19 1
    38   19   20 1
    39   20   21 1
    40   20   43 1
    41   20   44 1
    42   21   22 2
    43   21   47 1
    44   23   24 2
    45   23   25 1
    46   25   26 2
    47   25   27 am
    48   27   45 1
    49   27   46 1
@<TRIPOS>MOLECULE
ZINC03978827
   80    84     0     0     0
SMALL
USER_CHARGES

@<TRIPOS>ATOM
      1 C1         -2.2499    1.7395    1.5965 C.3       1 <0>        -0.1448
      2 C2         -2.3630    0.2147    1.6179 C.3       1 <0>        -0.0886
      3 H1         -2.1511   -0.1868    0.6297 H         1 <0>         0.0647
      4 C3         -3.7754   -0.1882    2.0495 C.3       1 <0>        -0.1142
      5 C4         -3.8831   -1.7109    2.0243 C.3       1 <0>        -0.0863
      6 C5         -2.8712   -2.3453    2.9771 C.3       1 <0>        -0.1168
      7 C6         -3.2034   -1.9924    4.4220 C.3       1 <0>        -0.0858
      8 C7         -2.2907   -2.7490    5.3888 C.3       1 <0>        -0.0975
      9 C8         -0.8207   -2.4481    5.1311 C.3       1 <0>         0.0200
     10 C9         -0.4927   -2.4623    3.6663 C.2       1 <0>        -0.0271
     11 C10         0.6115   -2.9748    3.1888 C.2       1 <0>        -0.1945
     12 C11         1.6871   -3.6146    4.0173 C.3       1 <0>        -0.0682
     13 C12         1.5217   -3.2085    5.4824 C.3       1 <0>        -0.0549
     14 H2          1.7443   -2.1224    5.5395 H         1 <0>         0.0556
     15 C13         0.0772   -3.4243    5.9096 C.3       1 <0>        -0.0252
     16 C14        -0.1263   -3.2338    7.4071 C.3       1 <0>        -0.1101
     17 C15         0.9033   -4.0493    8.2060 C.3       1 <0>        -0.1119
     18 C16         2.2898   -3.5411    7.8160 C.3       1 <0>        -0.0569
     19 H3          2.2178   -2.4232    7.8479 H         1 <0>         0.0555
     20 C17         2.5695   -3.8926    6.3613 C.3       1 <0>        -0.0335
     21 C18         3.9485   -3.3245    5.9787 C.3       1 <0>        -0.1101
     22 C19         5.0165   -3.9216    6.8907 C.3       1 <0>        -0.1478
     23 C20         4.7602   -3.5214    8.3374 C.3       1 <0>         0.1195
     24 H4          4.8674   -2.4352    8.4331 H         1 <0>         0.0460
     25 C21         3.3625   -3.9218    8.8099 C.3       1 <0>        -0.0368
     26 C22         3.3394   -5.4064    9.1716 C.3       1 <0>        -0.1352
     27 C23         3.1067   -3.1345   10.1199 C.3       1 <0>        -0.1462
     28 O1          5.7353   -4.1464    9.1809 O.3       1 <0>        -0.5663
     29 C24         2.6012   -5.3981    6.1216 C.3       1 <0>        -0.1547
     30 C25        -0.3721   -4.8467    5.5369 C.3       1 <0>        -0.1382
     31 C26        -1.4543   -1.8772    2.6495 C.3       1 <0>        -0.0155
     32 H5         -1.1832   -2.2584    1.6510 H         1 <0>         0.0546
     33 C27        -1.3629   -0.3562    2.6314 C.3       1 <0>        -0.0770
     34 H6         -1.6059    0.0562    3.6092 H         1 <0>         0.0715
     35 C28         0.0468    0.0829    2.2258 C.3       1 <0>        -0.1463
     36 C29        -0.5399   -1.0348    5.6568 C.3       1 <0>        -0.1536
     37 C30        -2.9445   -3.8442    2.7896 C.2       1 <0>         0.4993
     38 O2         -3.7239   -4.3202    1.9818 O.co2     1 <0>        -0.7070
     39 O3         -2.2243   -4.5767    3.4463 O.co2     1 <0>        -0.6696
     40 H7         -1.2399    2.0248    1.3019 H         1 <0>         0.0532
     41 H8         -2.9654    2.1470    0.8823 H         1 <0>         0.0474
     42 H9         -2.4636    2.1337    2.5900 H         1 <0>         0.0494
     43 H10        -3.9698    0.1803    3.0558 H         1 <0>         0.0549
     44 H11        -4.5022    0.2419    1.3592 H         1 <0>         0.0487
     45 H12        -4.8906   -2.0096    2.3196 H         1 <0>         0.0523
     46 H13        -3.6916   -2.0691    1.0098 H         1 <0>         0.0574
     47 H14        -3.1028   -0.9193    4.5760 H         1 <0>         0.0430
     48 H15        -4.2426   -2.2738    4.6258 H         1 <0>         0.0414
     49 H16        -2.5347   -2.4030    6.4107 H         1 <0>         0.0259
     50 H17        -2.5341   -3.8025    5.3536 H         1 <0>         0.0990
     51 H18         0.7546   -2.9368    2.1160 H         1 <0>         0.0852
     52 H19         1.6485   -4.6899    3.8782 H         1 <0>         0.0722
     53 H20         2.6596   -3.2560    3.6562 H         1 <0>         0.0490
     54 H21        -0.0128   -2.1972    7.7151 H         1 <0>         0.0590
     55 H22        -1.1267   -3.5776    7.6859 H         1 <0>         0.0595
     56 H23         0.7201   -3.8720    9.2680 H         1 <0>         0.0543
     57 H24         0.7855   -5.1037    8.0015 H         1 <0>         0.0688
     58 H25         4.1631   -3.5839    4.9433 H         1 <0>         0.0672
     59 H26         3.9302   -2.2417    6.0898 H         1 <0>         0.0588
     60 H27         5.0618   -5.0017    6.7929 H         1 <0>         0.0755
     61 H28         5.9952   -3.5229    6.5845 H         1 <0>         0.0520
     62 H29         3.6150   -5.9975    8.2982 H         1 <0>         0.0582
     63 H30         4.0494   -5.5953    9.9768 H         1 <0>         0.0579
     64 H31         2.3375   -5.6854    9.4977 H         1 <0>         0.0518
     65 H32         2.1229   -3.3919   10.5123 H         1 <0>         0.0557
     66 H33         3.8698   -3.3932   10.8541 H         1 <0>         0.0571
     67 H34         3.1476   -2.0648    9.9148 H         1 <0>         0.0475
     68 H35         6.6482   -3.9040    8.9733 H         1 <0>         0.3709
     69 H36         2.6560   -5.5945    5.0508 H         1 <0>         0.0577
     70 H37         3.4740   -5.8262    6.6146 H         1 <0>         0.0548
     71 H38         1.6963   -5.8499    6.5280 H         1 <0>         0.0675
     72 H39        -0.1640   -5.0289    4.4826 H         1 <0>         0.0772
     73 H40         0.1712   -5.5703    6.1448 H         1 <0>         0.0333
     74 H41        -1.4418   -4.9494    5.7192 H         1 <0>         0.0634
     75 H42         0.1016    1.1715    2.2228 H         1 <0>         0.0481
     76 H43         0.7702   -0.3153    2.9372 H         1 <0>         0.0561
     77 H44         0.2722   -0.2949    1.2285 H         1 <0>         0.0471
     78 H45        -0.6486   -1.0223    6.7413 H         1 <0>         0.0530
     79 H46         0.4759   -0.7431    5.3901 H         1 <0>         0.0476
     80 H47        -1.2475   -0.3347    5.2127 H         1 <0>         0.0547
@<TRIPOS>BOND
     1    1    2 1
     2    1   40 1
     3    1   41 1
     4    1   42 1
     5    2    3 1
     6    2   33 1
     7    2    4 1
     8    4    5 1
     9    4   43 1
    10    4   44 1
    11    5    6 1
    12    5   45 1
    13    5   46 1
    14    6   31 1
    15    6    7 1
    16    6   37 1
    17    7    8 1
    18    7   47 1
    19    7   48 1
    20    8    9 1
    21    8   49 1
    22    8   50 1
    23    9   15 1
    24    9   10 1
    25    9   36 1
    26   10   11 2
    27   10   31 1
    28   11   12 1
    29   11   51 1
    30   12   13 1
    31   12   52 1
    32   12   53 1
    33   13   14 1
    34   13   20 1
    35   13   15 1
    36   15   16 1
    37   15   30 1
    38   16   17 1
    39   16   54 1
    40   16   55 1
    41   17   18 1
    42   17   56 1
    43   17   57 1
    44   18   19 1
    45   18   25 1
    46   18   20 1
    47   20   21 1
    48   20   29 1
    49   21   22 1
    50   21   58 1
    51   21   59 1
    52   22   23 1
    53   22   60 1
    54   22   61 1
    55   23   24 1
    56   23   25 1
    57   23   28 1
    58   25   26 1
    59   25   27 1
    60   26   62 1
    61   26   63 1
    62   26   64 1
    63   27   65 1
    64   27   66 1
    65   27   67 1
    66   28   68 1
    67   29   69 1
    68   29   70 1
    69   29   71 1
    70   30   72 1
    71   30   73 1
    72   30   74 1
    73   31   32 1
    74   31   33 1
    75   33   34 1
    76   33   35 1
    77   35   75 1
    78   35   76 1
    79   35   77 1
    80   36   78 1
    81   36   79 1
    82   36   80 1
    83   37   38 2
    84   37   39 1
@<TRIPOS>MOLECULE
ZINC00457380
   37    39     0     0     0
SMALL
USER_CHARGES
methyl 6-chloro-2-(4-methoxyphenyl)-quinoline-4-carboxylate
@<TRIPOS>ATOM
      1 C1          7.1913   -4.1395   -0.7117 C.3       1 <0>         0.0243
      2 O1          5.9981   -4.9177   -0.5991 O.3       1 <0>        -0.3138
      3 C2          4.8276   -4.2386   -0.4831 C.ar      1 <0>         0.1480
      4 C3          3.6310   -4.9345   -0.3699 C.ar      1 <0>        -0.1579
      5 C4          2.4414   -4.2482   -0.2516 C.ar      1 <0>        -0.0301
      6 C5          2.4402   -2.8535   -0.2461 C.ar      1 <0>        -0.1023
      7 C6          3.6430   -2.1576   -0.3662 C.ar      1 <0>        -0.0525
      8 C7          4.8298   -2.8498   -0.4785 C.ar      1 <0>        -0.2123
      9 C8          1.1631   -2.1125   -0.1190 C.ar      1 <0>         0.2098
     10 C9          1.1915   -0.7092   -0.1164 C.ar      1 <0>        -0.0904
     11 C10         0.0021   -0.0041    0.0020 C.ar      1 <0>        -0.0638
     12 C11        -1.2311   -0.7828    0.1247 C.ar      1 <0>        -0.0595
     13 C12        -2.4788   -0.1617    0.2421 C.ar      1 <0>        -0.0959
     14 C13        -3.6046   -0.9256    0.3491 C.ar      1 <0>        -0.0248
     15 C14        -3.5265   -2.3178    0.3365 C.ar      1 <0>        -0.0931
     16 C15        -2.3290   -2.9528    0.2178 C.ar      1 <0>        -0.0730
     17 C16        -1.1464   -2.1978    0.1058 C.ar      1 <0>         0.1343
     18 N1          0.0414   -2.7934   -0.0121 N.ar      1 <0>        -0.4465
     19 Cl1        -5.1526   -0.1549    0.5023 Cl        1 <0>        -0.0557
     20 C17        -0.0180    1.4736    0.0101 C.2       1 <0>         0.5140
     21 O2         -1.0780    2.0665    0.0114 O.2       1 <0>        -0.4872
     22 O3          1.1395    2.1629    0.0106 O.3       1 <0>        -0.3503
     23 C18         1.0438    3.6117    0.0188 C.3       1 <0>         0.0357
     24 H1          7.1305   -3.5073   -1.5975 H         1 <0>         0.0584
     25 H2          7.3021   -3.5140    0.1742 H         1 <0>         0.0584
     26 H3          8.0515   -4.8034   -0.7975 H         1 <0>         0.1030
     27 H4          3.6326   -6.0145   -0.3742 H         1 <0>         0.1374
     28 H5          1.5112   -4.7899   -0.1636 H         1 <0>         0.1448
     29 H6          3.6449   -1.0776   -0.3672 H         1 <0>         0.1326
     30 H7          5.7619   -2.3115   -0.5670 H         1 <0>         0.1351
     31 H8          2.1303   -0.1829   -0.2061 H         1 <0>         0.1594
     32 H9         -2.5504    0.9159    0.2529 H         1 <0>         0.1717
     33 H10        -4.4311   -2.9015    0.4225 H         1 <0>         0.1456
     34 H11        -2.2860   -4.0320    0.2101 H         1 <0>         0.1519
     35 H12         2.0453    4.0420    0.0182 H         1 <0>         0.1082
     36 H13         0.5046    3.9453   -0.8679 H         1 <0>         0.0684
     37 H14         0.5098    3.9356    0.9121 H         1 <0>         0.0683
@<TRIPOS>BOND
     1    1    2 1
     2    1   24 1
     3    1   25 1
     4    1   26 1
     5    2    3 1
     6    3    8 ar
     7    3    4 ar
     8    4    5 ar
     9    4   27 1
    10    5    6 ar
    11    5   28 1
    12    6    7 ar
    13    6    9 1
    14    7    8 ar
    15    7   29 1
    16    8   30 1
    17    9   18 ar
    18    9   10 ar
    19   10   11 ar
    20   10   31 1
    21   11   12 ar
    22   11   20 1
    23   12   17 ar
    24   12   13 ar
    25   13   14 ar
    26   13   32 1
    27   14   15 ar
    28   14   19 1
    29   15   16 ar
    30   15   33 1
    31   16   17 ar
    32   16   34 1
    33   17   18 ar
    34   20   21 2
    35   20   22 1
    36   22   23 1
    37   23   35 1
    38   23   36 1
    39   23   37 1
@<TRIPOS>MOLECULE
ZINC01685327
   43    45     0     0     0
SMALL
USER_CHARGES
2-(1-benzyl-5-methoxy-2-methyl-indol-3-yl)acetamide
@<TRIPOS>ATOM
      1 C1         -4.3015    2.8536    1.6770 C.3       1 <0>        -0.1019
      2 C2         -3.7212    1.5459    2.1505 C.2       1 <0>         0.1140
      3 C3         -3.9078    1.0167    3.3701 C.2       1 <0>        -0.1663
      4 C4         -3.1726   -0.2500    3.4050 C.ar      1 <0>        -0.0472
      5 C5         -2.9869   -1.2364    4.3762 C.ar      1 <0>        -0.1121
      6 C6         -2.2252   -2.3492    4.0809 C.ar      1 <0>         0.1009
      7 C7         -1.6346   -2.4830    2.8268 C.ar      1 <0>        -0.1807
      8 C8         -1.8072   -1.5147    1.8634 C.ar      1 <0>        -0.0874
      9 C9         -2.5775   -0.3896    2.1386 C.ar      1 <0>         0.0745
     10 N1         -2.9267    0.7221    1.4011 N.pl3     1 <0>        -0.4724
     11 C10        -2.5137    0.9795    0.0193 C.3       1 <0>         0.1509
     12 C11        -1.2190    1.7506    0.0173 C.ar      1 <0>        -0.1137
     13 C12        -0.0126    1.0758    0.0080 C.ar      1 <0>        -0.0982
     14 C13         1.1750    1.7832    0.0004 C.ar      1 <0>        -0.1190
     15 C14         1.1563    3.1654    0.0076 C.ar      1 <0>        -0.1112
     16 C15        -0.0501    3.8402    0.0223 C.ar      1 <0>        -0.1198
     17 C16        -1.2377    3.1328    0.0299 C.ar      1 <0>        -0.1036
     18 O1         -2.0449   -3.3153    5.0209 O.3       1 <0>        -0.3200
     19 C17        -1.2393   -4.4366    4.6525 C.3       1 <0>         0.0290
     20 C18        -4.7192    1.6131    4.4912 C.3       1 <0>        -0.0629
     21 C19        -6.1433    1.1302    4.3927 C.2       1 <0>         0.5137
     22 O2         -6.4675    0.3761    3.4999 O.2       1 <0>        -0.5301
     23 N2         -7.0567    1.5365    5.2966 N.am      1 <0>        -0.8619
     24 H1         -5.2755    2.6751    1.2213 H         1 <0>         0.0806
     25 H2         -4.4153    3.5289    2.5250 H         1 <0>         0.0838
     26 H3         -3.6334    3.3027    0.9421 H         1 <0>         0.0706
     27 H4         -3.4454   -1.1344    5.3487 H         1 <0>         0.1260
     28 H5         -1.0358   -3.3548    2.6078 H         1 <0>         0.1301
     29 H6         -1.3443   -1.6284    0.8943 H         1 <0>         0.1195
     30 H7         -3.2837    1.5610   -0.4877 H         1 <0>         0.0972
     31 H8         -2.3729    0.0317   -0.5003 H         1 <0>         0.0955
     32 H9          0.0021   -0.0041    0.0020 H         1 <0>         0.1206
     33 H10         2.1175    1.2560   -0.0115 H         1 <0>         0.1244
     34 H11         2.0841    3.7181    0.0014 H         1 <0>         0.1241
     35 H12        -0.0647    4.9201    0.0276 H         1 <0>         0.1248
     36 H13        -2.1802    3.6600    0.0410 H         1 <0>         0.1232
     37 H14        -1.1768   -5.1302    5.4911 H         1 <0>         0.0981
     38 H15        -1.6880   -4.9408    3.7966 H         1 <0>         0.0534
     39 H16        -0.2387   -4.0941    4.3889 H         1 <0>         0.0532
     40 H17        -4.2970    1.3064    5.4482 H         1 <0>         0.1008
     41 H18        -4.6981    2.7003    4.4165 H         1 <0>         0.0989
     42 H19        -6.7974    2.1397    6.0106 H         1 <0>         0.4004
     43 H20        -7.9734    1.2257    5.2332 H         1 <0>         0.4001
@<TRIPOS>BOND
     1    1    2 1
     2    1   24 1
     3    1   25 1
     4    1   26 1
     5    2   10 1
     6    2    3 2
     7    3    4 1
     8    3   20 1
     9    4    9 ar
    10    4    5 ar
    11    5    6 ar
    12    5   27 1
    13    6    7 ar
    14    6   18 1
    15    7    8 ar
    16    7   28 1
    17    8    9 ar
    18    8   29 1
    19    9   10 1
    20   10   11 1
    21   11   12 1
    22   11   30 1
    23   11   31 1
    24   12   17 ar
    25   12   13 ar
    26   13   14 ar
    27   13   32 1
    28   14   15 ar
    29   14   33 1
    30   15   16 ar
    31   15   34 1
    32   16   17 ar
    33   16   35 1
    34   17   36 1
    35   18   19 1
    36   19   37 1
    37   19   38 1
    38   19   39 1
    39   20   21 1
    40   20   40 1
    41   20   41 1
    42   21   22 2
    43   21   23 am
    44   23   42 1
    45   23   43 1
@<TRIPOS>MOLECULE
ZINC49823269
  114   117     0     0     0
SMALL
USER_CHARGES

@<TRIPOS>ATOM
      1 C1         -0.0187    1.5258    0.0104 C.3       1 <0>        -0.1536
      2 C2          0.0021   -0.0041    0.0020 C.3       1 <0>        -0.1260
      3 C3         -1.4333   -0.5336    0.0129 C.3       1 <0>        -0.1212
      4 C4         -1.4126   -2.0635    0.0045 C.3       1 <0>        -0.1208
      5 C5         -2.8479   -2.5931    0.0153 C.3       1 <0>        -0.1205
      6 C6         -2.8272   -4.1229    0.0069 C.3       1 <0>        -0.1200
      7 C7         -4.2626   -4.6525    0.0178 C.3       1 <0>        -0.1200
      8 C8         -4.2418   -6.1823    0.0094 C.3       1 <0>        -0.1189
      9 C9         -5.6772   -6.7119    0.0202 C.3       1 <0>        -0.1165
     10 C10        -5.6565   -8.2417    0.0118 C.3       1 <0>        -0.1131
     11 C11        -7.0918   -8.7713    0.0227 C.3       1 <0>        -0.1338
     12 C12        -7.0714  -10.2782    0.0144 C.2       1 <0>         0.4125
     13 O1         -6.0122  -10.8706    0.0011 O.2       1 <0>        -0.5002
     14 C13        -8.3274  -11.0263    0.0224 C.ar      1 <0>        -0.3569
     15 C14        -8.3110  -12.4355    0.0205 C.ar      1 <0>         0.2555
     16 C15        -9.4991  -13.1462    0.0275 C.ar      1 <0>        -0.2826
     17 C16       -10.7139  -12.4823    0.0369 C.ar      1 <0>         0.2658
     18 C17       -10.7523  -11.0734    0.0394 C.ar      1 <0>        -0.3565
     19 C18        -9.5535  -10.3435    0.0377 C.ar      1 <0>         0.3582
     20 O2         -9.5798   -8.9910    0.0458 O.3       1 <0>        -0.6536
     21 C19       -12.0364  -10.3747    0.0493 C.2       1 <0>         0.4123
     22 O3        -13.0718  -11.0080    0.0554 O.2       1 <0>        -0.4988
     23 C20       -12.0745   -8.8682    0.0520 C.3       1 <0>        -0.1337
     24 C21       -13.5294   -8.3948    0.0627 C.3       1 <0>        -0.1129
     25 C22       -13.5680   -6.8653    0.0654 C.3       1 <0>        -0.1164
     26 C23       -15.0229   -6.3920    0.0761 C.3       1 <0>        -0.1188
     27 C24       -15.0616   -4.8625    0.0788 C.3       1 <0>        -0.1199
     28 C25       -16.5165   -4.3891    0.0895 C.3       1 <0>        -0.1200
     29 C26       -16.5552   -2.8596    0.0922 C.3       1 <0>        -0.1205
     30 C27       -18.0100   -2.3862    0.1030 C.3       1 <0>        -0.1208
     31 C28       -18.0487   -0.8567    0.1057 C.3       1 <0>        -0.1212
     32 C29       -19.5036   -0.3833    0.1164 C.3       1 <0>        -0.1260
     33 C30       -19.5423    1.1462    0.1191 C.3       1 <0>        -0.1536
     34 O4        -11.8691  -13.1888    0.0433 O.3       1 <0>        -0.4788
     35 C31        -9.4698  -14.6530    0.0244 C.3       1 <0>         0.0277
     36 H1         -8.4351  -14.9956    0.0164 H         1 <0>         0.0882
     37 C32       -10.1884  -15.1737   -1.2228 C.3       1 <0>        -0.1421
     38 C33       -10.4051  -16.6835   -1.0587 C.3       1 <0>         0.1367
     39 H2         -9.4513  -17.1718   -0.8589 H         1 <0>         0.0783
     40 O5        -11.2929  -16.8938    0.0401 O.3       1 <0>        -0.3073
     41 C34       -11.0220  -16.2525    1.2067 C.ar      1 <0>         0.1545
     42 C35       -10.1602  -15.1708    1.2609 C.ar      1 <0>        -0.1451
     43 C36        -9.9168  -14.5427    2.4712 C.ar      1 <0>        -0.0625
     44 C37       -10.5275  -14.9902    3.6255 C.ar      1 <0>        -0.1766
     45 C38       -11.3906  -16.0756    3.5760 C.ar      1 <0>         0.1298
     46 C39       -11.6355  -16.7051    2.3691 C.ar      1 <0>        -0.1798
     47 O6        -11.9921  -16.5198    4.7108 O.3       1 <0>        -0.4990
     48 C40       -11.0110  -17.2491   -2.3173 C.ar      1 <0>        -0.0868
     49 C41       -12.3666  -17.1119   -2.5528 C.ar      1 <0>        -0.0713
     50 C42       -12.9245  -17.6299   -3.7055 C.ar      1 <0>        -0.1461
     51 C43       -12.1234  -18.2877   -4.6275 C.ar      1 <0>         0.1044
     52 C44       -10.7635  -18.4237   -4.3892 C.ar      1 <0>        -0.1463
     53 C45       -10.2095  -17.8994   -3.2374 C.ar      1 <0>        -0.0898
     54 O7        -12.6700  -18.7985   -5.7621 O.3       1 <0>        -0.5015
     55 O8         -7.1292  -13.0966    0.0113 O.3       1 <0>        -0.4847
     56 H3          1.0039    1.9031    0.0027 H         1 <0>         0.0520
     57 H4         -0.5459    1.8868   -0.8726 H         1 <0>         0.0530
     58 H5         -0.5289    1.8773    0.9072 H         1 <0>         0.0530
     59 H6          0.5123   -0.3556   -0.8948 H         1 <0>         0.0599
     60 H7          0.5293   -0.3651    0.8851 H         1 <0>         0.0599
     61 H8         -1.9435   -0.1821    0.9097 H         1 <0>         0.0603
     62 H9         -1.9605   -0.1726   -0.8702 H         1 <0>         0.0604
     63 H10        -0.9024   -2.4150   -0.8923 H         1 <0>         0.0600
     64 H11        -0.8854   -2.4246    0.8875 H         1 <0>         0.0599
     65 H12        -3.3581   -2.2415    0.9121 H         1 <0>         0.0601
     66 H13        -3.3751   -2.2320   -0.8677 H         1 <0>         0.0601
     67 H14        -2.3170   -4.4744   -0.8899 H         1 <0>         0.0594
     68 H15        -2.3000   -4.4840    0.8900 H         1 <0>         0.0594
     69 H16        -4.7728   -4.3010    0.9146 H         1 <0>         0.0598
     70 H17        -4.7898   -4.2914   -0.8653 H         1 <0>         0.0599
     71 H18        -3.7316   -6.5338   -0.8874 H         1 <0>         0.0583
     72 H19        -3.7146   -6.5434    0.8924 H         1 <0>         0.0582
     73 H20        -6.1874   -6.3604    0.9170 H         1 <0>         0.0594
     74 H21        -6.2044   -6.3508   -0.8628 H         1 <0>         0.0595
     75 H22        -5.1463   -8.5933   -0.8850 H         1 <0>         0.0561
     76 H23        -5.1293   -8.6028    0.8949 H         1 <0>         0.0556
     77 H24        -7.6020   -8.4198    0.9195 H         1 <0>         0.0965
     78 H25        -7.6190   -8.4102   -0.8604 H         1 <0>         0.0965
     79 H26       -11.5639   -8.4934    0.9391 H         1 <0>         0.0965
     80 H27       -11.5761   -8.4906   -0.8408 H         1 <0>         0.0960
     81 H28       -14.0399   -8.7696   -0.8244 H         1 <0>         0.0559
     82 H29       -14.0278   -8.7725    0.9555 H         1 <0>         0.0555
     83 H30       -13.0575   -6.4906    0.9525 H         1 <0>         0.0594
     84 H31       -13.0697   -6.4877   -0.8274 H         1 <0>         0.0594
     85 H32       -15.5335   -6.7668   -0.8110 H         1 <0>         0.0582
     86 H33       -15.5213   -6.7696    0.9689 H         1 <0>         0.0581
     87 H34       -14.5510   -4.4877    0.9659 H         1 <0>         0.0598
     88 H35       -14.5632   -4.4848   -0.8140 H         1 <0>         0.0599
     89 H36       -17.0270   -4.7639   -0.7976 H         1 <0>         0.0594
     90 H37       -17.0149   -4.7667    0.9823 H         1 <0>         0.0594
     91 H38       -16.0446   -2.4848    0.9794 H         1 <0>         0.0601
     92 H39       -16.0568   -2.4820   -0.8006 H         1 <0>         0.0601
     93 H40       -18.5206   -2.7610   -0.7842 H         1 <0>         0.0600
     94 H41       -18.5084   -2.7639    0.9958 H         1 <0>         0.0599
     95 H42       -17.5382   -0.4819    0.9928 H         1 <0>         0.0603
     96 H43       -17.5503   -0.4791   -0.7871 H         1 <0>         0.0604
     97 H44       -20.0142   -0.7581   -0.7707 H         1 <0>         0.0599
     98 H45       -20.0020   -0.7610    1.0092 H         1 <0>         0.0599
     99 H46       -20.5788    1.4834    0.1267 H         1 <0>         0.0520
    100 H47       -19.0317    1.5209    1.0062 H         1 <0>         0.0530
    101 H48       -19.0439    1.5238   -0.7737 H         1 <0>         0.0530
    102 H49       -12.1988  -13.3958    0.9285 H         1 <0>         0.3830
    103 H50       -11.1512  -14.6736   -1.3278 H         1 <0>         0.1006
    104 H51        -9.5771  -14.9841   -2.1051 H         1 <0>         0.0796
    105 H52        -9.2450  -13.6981    2.5121 H         1 <0>         0.1279
    106 H53       -10.3341  -14.4959    4.5660 H         1 <0>         0.1266
    107 H54       -12.3072  -17.5499    2.3297 H         1 <0>         0.1318
    108 H55       -12.8449  -16.1020    4.8933 H         1 <0>         0.3900
    109 H56       -12.9898  -16.5997   -1.8347 H         1 <0>         0.1335
    110 H57       -13.9835  -17.5230   -3.8886 H         1 <0>         0.1292
    111 H58       -10.1378  -18.9354   -5.1054 H         1 <0>         0.1295
    112 H59        -9.1502  -18.0011   -3.0534 H         1 <0>         0.1290
    113 H60       -12.6790  -18.1815   -6.5066 H         1 <0>         0.3901
    114 H61        -6.7797  -13.2898    0.8920 H         1 <0>         0.3864
@<TRIPOS>BOND
     1    1    2 1
     2    1   56 1
     3    1   57 1
     4    1   58 1
     5    2    3 1
     6    2   59 1
     7    2   60 1
     8    3    4 1
     9    3   61 1
    10    3   62 1
    11    4    5 1
    12    4   63 1
    13    4   64 1
    14    5    6 1
    15    5   65 1
    16    5   66 1
    17    6    7 1
    18    6   67 1
    19    6   68 1
    20    7    8 1
    21    7   69 1
    22    7   70 1
    23    8    9 1
    24    8   71 1
    25    8   72 1
    26    9   10 1
    27    9   73 1
    28    9   74 1
    29   10   11 1
    30   10   75 1
    31   10   76 1
    32   11   12 1
    33   11   77 1
    34   11   78 1
    35   12   13 2
    36   12   14 1
    37   14   19 ar
    38   14   15 ar
    39   15   16 ar
    40   15   55 1
    41   16   17 ar
    42   16   35 1
    43   17   18 ar
    44   17   34 1
    45   18   19 ar
    46   18   21 1
    47   19   20 1
    48   21   22 2
    49   21   23 1
    50   23   24 1
    51   23   79 1
    52   23   80 1
    53   24   25 1
    54   24   81 1
    55   24   82 1
    56   25   26 1
    57   25   83 1
    58   25   84 1
    59   26   27 1
    60   26   85 1
    61   26   86 1
    62   27   28 1
    63   27   87 1
    64   27   88 1
    65   28   29 1
    66   28   89 1
    67   28   90 1
    68   29   30 1
    69   29   91 1
    70   29   92 1
    71   30   31 1
    72   30   93 1
    73   30   94 1
    74   31   32 1
    75   31   95 1
    76   31   96 1
    77   32   33 1
    78   32   97 1
    79   32   98 1
    80   33   99 1
    81   33  100 1
    82   33  101 1
    83   34  102 1
    84   35   36 1
    85   35   42 1
    86   35   37 1
    87   37   38 1
    88   37  103 1
    89   37  104 1
    90   38   39 1
    91   38   40 1
    92   38   48 1
    93   40   41 1
    94   41   46 ar
    95   41   42 ar
    96   42   43 ar
    97   43   44 ar
    98   43  105 1
    99   44   45 ar
   100   44  106 1
   101   45   46 ar
   102   45   47 1
   103   46  107 1
   104   47  108 1
   105   48   53 ar
   106   48   49 ar
   107   49   50 ar
   108   49  109 1
   109   50   51 ar
   110   50  110 1
   111   51   52 ar
   112   51   54 1
   113   52   53 ar
   114   52  111 1
   115   53  112 1
   116   54  113 1
   117   55  114 1
@<TRIPOS>MOLECULE
ZINC49823269
  113   116     0     0     0
SMALL
USER_CHARGES

@<TRIPOS>ATOM
      1 C1         -0.0187    1.5258    0.0104 C.3       1 <0>        -0.1530
      2 C2          0.0021   -0.0041    0.0020 C.3       1 <0>        -0.1259
      3 C3         -1.4333   -0.5336    0.0129 C.3       1 <0>        -0.1212
      4 C4         -1.4126   -2.0635    0.0045 C.3       1 <0>        -0.1205
      5 C5         -2.8479   -2.5931    0.0153 C.3       1 <0>        -0.1205
      6 C6         -2.8272   -4.1229    0.0069 C.3       1 <0>        -0.1195
      7 C7         -4.2626   -4.6525    0.0178 C.3       1 <0>        -0.1199
      8 C8         -4.2418   -6.1823    0.0094 C.3       1 <0>        -0.1178
      9 C9         -5.6772   -6.7119    0.0202 C.3       1 <0>        -0.1162
     10 C10        -5.6565   -8.2417    0.0118 C.3       1 <0>        -0.1104
     11 C11        -7.0918   -8.7713    0.0227 C.3       1 <0>        -0.1274
     12 C12        -7.0714  -10.2782    0.0144 C.2       1 <0>         0.4085
     13 O1         -6.0122  -10.8706    0.0011 O.2       1 <0>        -0.5480
     14 C13        -8.3274  -11.0263    0.0224 C.ar      1 <0>        -0.4420
     15 C14        -8.3110  -12.4357    0.0205 C.ar      1 <0>         0.2482
     16 C15        -9.4989  -13.1463    0.0285 C.ar      1 <0>        -0.3392
     17 C16       -10.7139  -12.4823    0.0384 C.ar      1 <0>         0.3743
     18 C17       -10.7523  -11.0736    0.0400 C.ar      1 <0>        -0.4685
     19 C18        -9.5534  -10.3436    0.0377 C.ar      1 <0>         0.3765
     20 O2         -9.5796   -8.9911    0.0452 O.3       1 <0>        -0.7099
     21 C19       -12.0364  -10.3749    0.0495 C.2       1 <0>         0.4051
     22 O3        -13.0718  -11.0081    0.0561 O.2       1 <0>        -0.5209
     23 C20       -12.0745   -8.8684    0.0511 C.3       1 <0>        -0.1274
     24 C21       -13.5294   -8.3950    0.0616 C.3       1 <0>        -0.1109
     25 C22       -13.5681   -6.8655    0.0632 C.3       1 <0>        -0.1146
     26 C23       -15.0229   -6.3921    0.0738 C.3       1 <0>        -0.1185
     27 C24       -15.0616   -4.8626    0.0754 C.3       1 <0>        -0.1192
     28 C25       -16.5165   -4.3893    0.0859 C.3       1 <0>        -0.1199
     29 C26       -16.5552   -2.8598    0.0875 C.3       1 <0>        -0.1201
     30 C27       -18.0101   -2.3864    0.0981 C.3       1 <0>        -0.1207
     31 C28       -18.0488   -0.8569    0.0997 C.3       1 <0>        -0.1210
     32 C29       -19.5036   -0.3835    0.1102 C.3       1 <0>        -0.1260
     33 C30       -19.5423    1.1460    0.1118 C.3       1 <0>        -0.1528
     34 O4        -11.8691  -13.1888    0.0462 O.3       1 <0>        -0.6695
     35 C31        -9.4696  -14.6530    0.0260 C.3       1 <0>         0.0453
     36 H1         -8.4349  -14.9957    0.0175 H         1 <0>         0.0648
     37 C32       -10.1889  -15.1743   -1.2205 C.3       1 <0>        -0.1407
     38 C33       -10.4055  -16.6840   -1.0558 C.3       1 <0>         0.1325
     39 H2         -9.4516  -17.1723   -0.8563 H         1 <0>         0.0694
     40 O5        -11.2927  -16.8939    0.0437 O.3       1 <0>        -0.3127
     41 C34       -11.0210  -16.2521    1.2099 C.ar      1 <0>         0.1495
     42 C35       -10.1593  -15.1704    1.2631 C.ar      1 <0>        -0.0897
     43 C36        -9.9152  -14.5419    2.4730 C.ar      1 <0>        -0.0523
     44 C37       -10.5252  -14.9889    3.6279 C.ar      1 <0>        -0.1771
     45 C38       -11.3883  -16.0743    3.5794 C.ar      1 <0>         0.1058
     46 C39       -11.6339  -16.7043    2.3728 C.ar      1 <0>        -0.1821
     47 O6        -11.9891  -16.5181    4.7146 O.3       1 <0>        -0.5044
     48 C40       -11.0122  -17.2501   -2.3138 C.ar      1 <0>        -0.0718
     49 C41       -12.3679  -17.1130   -2.5485 C.ar      1 <0>        -0.0691
     50 C42       -12.9265  -17.6314   -3.7007 C.ar      1 <0>        -0.1455
     51 C43       -12.1259  -18.2896   -4.6229 C.ar      1 <0>         0.0924
     52 C44       -10.7659  -18.4255   -4.3853 C.ar      1 <0>        -0.1487
     53 C45       -10.2112  -17.9007   -3.2340 C.ar      1 <0>        -0.0944
     54 O7        -12.6732  -18.8009   -5.7569 O.3       1 <0>        -0.5037
     55 O8         -7.1292  -13.0968    0.0104 O.3       1 <0>        -0.4992
     56 H3          1.0039    1.9031    0.0027 H         1 <0>         0.0509
     57 H4         -0.5459    1.8868   -0.8726 H         1 <0>         0.0528
     58 H5         -0.5289    1.8773    0.9072 H         1 <0>         0.0528
     59 H6          0.5123   -0.3556   -0.8948 H         1 <0>         0.0597
     60 H7          0.5293   -0.3651    0.8851 H         1 <0>         0.0597
     61 H8         -1.9435   -0.1821    0.9097 H         1 <0>         0.0603
     62 H9         -1.9605   -0.1726   -0.8702 H         1 <0>         0.0602
     63 H10        -0.9024   -2.4150   -0.8923 H         1 <0>         0.0596
     64 H11        -0.8854   -2.4246    0.8875 H         1 <0>         0.0596
     65 H12        -3.3581   -2.2415    0.9121 H         1 <0>         0.0599
     66 H13        -3.3751   -2.2320   -0.8677 H         1 <0>         0.0599
     67 H14        -2.3170   -4.4744   -0.8899 H         1 <0>         0.0588
     68 H15        -2.3000   -4.4840    0.8900 H         1 <0>         0.0588
     69 H16        -4.7728   -4.3010    0.9146 H         1 <0>         0.0593
     70 H17        -4.7898   -4.2914   -0.8653 H         1 <0>         0.0593
     71 H18        -3.7316   -6.5338   -0.8874 H         1 <0>         0.0567
     72 H19        -3.7146   -6.5434    0.8924 H         1 <0>         0.0566
     73 H20        -6.1874   -6.3604    0.9170 H         1 <0>         0.0573
     74 H21        -6.2044   -6.3508   -0.8628 H         1 <0>         0.0574
     75 H22        -5.1463   -8.5933   -0.8850 H         1 <0>         0.0508
     76 H23        -5.1293   -8.6028    0.8949 H         1 <0>         0.0504
     77 H24        -7.6020   -8.4198    0.9195 H         1 <0>         0.0874
     78 H25        -7.6190   -8.4102   -0.8604 H         1 <0>         0.0873
     79 H26       -11.5638   -8.4930    0.9379 H         1 <0>         0.0811
     80 H27       -11.5762   -8.4914   -0.8420 H         1 <0>         0.0803
     81 H28       -14.0400   -8.7704   -0.8252 H         1 <0>         0.0500
     82 H29       -14.0277   -8.7720    0.9547 H         1 <0>         0.0501
     83 H30       -13.0574   -6.4901    0.9500 H         1 <0>         0.0558
     84 H31       -13.0698   -6.4885   -0.8299 H         1 <0>         0.0557
     85 H32       -15.5336   -6.7676   -0.8130 H         1 <0>         0.0567
     86 H33       -15.5212   -6.7691    0.9669 H         1 <0>         0.0568
     87 H34       -14.5510   -4.4872    0.9622 H         1 <0>         0.0588
     88 H35       -14.5633   -4.4856   -0.8177 H         1 <0>         0.0587
     89 H36       -17.0272   -4.7647   -0.8009 H         1 <0>         0.0589
     90 H37       -17.0148   -4.7663    0.9790 H         1 <0>         0.0589
     91 H38       -16.0445   -2.4843    0.9743 H         1 <0>         0.0597
     92 H39       -16.0569   -2.4828   -0.8056 H         1 <0>         0.0596
     93 H40       -18.5207   -2.7618   -0.7887 H         1 <0>         0.0597
     94 H41       -18.5084   -2.7634    0.9912 H         1 <0>         0.0597
     95 H42       -17.5381   -0.4815    0.9865 H         1 <0>         0.0601
     96 H43       -17.5505   -0.4799   -0.7934 H         1 <0>         0.0601
     97 H44       -20.0143   -0.7589   -0.7766 H         1 <0>         0.0597
     98 H45       -20.0019   -0.7605    1.0033 H         1 <0>         0.0598
     99 H46       -20.5788    1.4832    0.1193 H         1 <0>         0.0508
    100 H47       -19.0317    1.5214    0.9986 H         1 <0>         0.0527
    101 H48       -19.0440    1.5230   -0.7813 H         1 <0>         0.0527
    102 H49       -11.1518  -14.6743   -1.3251 H         1 <0>         0.1122
    103 H50        -9.5782  -14.9850   -2.1033 H         1 <0>         0.0640
    104 H51        -9.2433  -13.6972    2.5132 H         1 <0>         0.1244
    105 H52       -10.3311  -14.4942    4.5681 H         1 <0>         0.1168
    106 H53       -12.3056  -17.5491    2.3341 H         1 <0>         0.1207
    107 H54       -12.8418  -16.1003    4.8975 H         1 <0>         0.3813
    108 H55       -12.9907  -16.6005   -1.8302 H         1 <0>         0.1370
    109 H56       -13.9856  -17.5247   -3.8832 H         1 <0>         0.1264
    110 H57       -10.1406  -18.9375   -5.1017 H         1 <0>         0.1251
    111 H58        -9.1518  -18.0024   -3.0507 H         1 <0>         0.1275
    112 H59       -12.6827  -18.1842   -6.5017 H         1 <0>         0.3856
    113 H60        -6.7790  -13.2899    0.8909 H         1 <0>         0.3676
@<TRIPOS>BOND
     1    1    2 1
     2    1   56 1
     3    1   57 1
     4    1   58 1
     5    2    3 1
     6    2   59 1
     7    2   60 1
     8    3    4 1
     9    3   61 1
    10    3   62 1
    11    4    5 1
    12    4   63 1
    13    4   64 1
    14    5    6 1
    15    5   65 1
    16    5   66 1
    17    6    7 1
    18    6   67 1
    19    6   68 1
    20    7    8 1
    21    7   69 1
    22    7   70 1
    23    8    9 1
    24    8   71 1
    25    8   72 1
    26    9   10 1
    27    9   73 1
    28    9   74 1
    29   10   11 1
    30   10   75 1
    31   10   76 1
    32   11   12 1
    33   11   77 1
    34   11   78 1
    35   12   13 2
    36   12   14 1
    37   14   19 ar
    38   14   15 ar
    39   15   16 ar
    40   15   55 1
    41   16   17 ar
    42   16   35 1
    43   17   18 ar
    44   17   34 1
    45   18   19 ar
    46   18   21 1
    47   19   20 1
    48   21   22 2
    49   21   23 1
    50   23   24 1
    51   23   79 1
    52   23   80 1
    53   24   25 1
    54   24   81 1
    55   24   82 1
    56   25   26 1
    57   25   83 1
    58   25   84 1
    59   26   27 1
    60   26   85 1
    61   26   86 1
    62   27   28 1
    63   27   87 1
    64   27   88 1
    65   28   29 1
    66   28   89 1
    67   28   90 1
    68   29   30 1
    69   29   91 1
    70   29   92 1
    71   30   31 1
    72   30   93 1
    73   30   94 1
    74   31   32 1
    75   31   95 1
    76   31   96 1
    77   32   33 1
    78   32   97 1
    79   32   98 1
    80   33   99 1
    81   33  100 1
    82   33  101 1
    83   35   36 1
    84   35   42 1
    85   35   37 1
    86   37   38 1
    87   37  102 1
    88   37  103 1
    89   38   39 1
    90   38   40 1
    91   38   48 1
    92   40   41 1
    93   41   46 ar
    94   41   42 ar
    95   42   43 ar
    96   43   44 ar
    97   43  104 1
    98   44   45 ar
    99   44  105 1
   100   45   46 ar
   101   45   47 1
   102   46  106 1
   103   47  107 1
   104   48   53 ar
   105   48   49 ar
   106   49   50 ar
   107   49  108 1
   108   50   51 ar
   109   50  109 1
   110   51   52 ar
   111   51   54 1
   112   52   53 ar
   113   52  110 1
   114   53  111 1
   115   54  112 1
   116   55  113 1
@<TRIPOS>MOLECULE
ZINC49823269
  114   117     0     0     0
SMALL
USER_CHARGES

@<TRIPOS>ATOM
      1 C1         -0.0187    1.5258    0.0104 C.3       1 <0>        -0.1537
      2 C2          0.0021   -0.0041    0.0020 C.3       1 <0>        -0.1262
      3 C3          0.7421   -0.5109    1.2415 C.3       1 <0>        -0.1211
      4 C4          0.7628   -2.0407    1.2331 C.3       1 <0>        -0.1211
      5 C5          1.5028   -2.5476    2.4727 C.3       1 <0>        -0.1203
      6 C6          1.5236   -4.0774    2.4642 C.3       1 <0>        -0.1207
      7 C7          2.2636   -4.5842    3.7038 C.3       1 <0>        -0.1196
      8 C8          2.2843   -6.1141    3.6954 C.3       1 <0>        -0.1201
      9 C9          3.0243   -6.6209    4.9349 C.3       1 <0>        -0.1178
     10 C10         3.0450   -8.1508    4.9265 C.3       1 <0>        -0.1112
     11 C11         3.7850   -8.6576    6.1660 C.3       1 <0>        -0.1514
     12 C12         3.8055  -10.1644    6.1577 C.2       1 <0>         0.4043
     13 O1          3.2795  -10.7735    5.2491 O.2       1 <0>        -0.4849
     14 C13         4.4588  -10.8926    7.2440 C.ar      1 <0>        -0.3666
     15 C14         4.4844  -12.3019    7.2357 C.ar      1 <0>         0.2323
     16 C15         5.1028  -12.9936    8.2630 C.ar      1 <0>        -0.2581
     17 C16         5.7019  -12.3106    9.3080 C.ar      1 <0>         0.3544
     18 C17         5.6870  -10.9018    9.3355 C.ar      1 <0>        -0.3548
     19 C18         5.0676  -10.1907    8.2958 C.ar      1 <0>         0.2554
     20 O2          5.0532   -8.8381    8.3100 O.3       1 <0>        -0.4963
     21 C19         6.3194  -10.1831   10.4404 C.2       1 <0>         0.3938
     22 O3          6.8584  -10.7999   11.3360 O.2       1 <0>        -0.4516
     23 C20         6.3020   -8.6764   10.4673 C.3       1 <0>        -0.1511
     24 C21         7.0263   -8.1804   11.7204 C.3       1 <0>        -0.1121
     25 C22         7.0086   -6.6507   11.7477 C.3       1 <0>        -0.1163
     26 C23         7.7329   -6.1546   13.0008 C.3       1 <0>        -0.1207
     27 C24         7.7153   -4.6250   13.0281 C.3       1 <0>        -0.1189
     28 C25         8.4395   -4.1289   14.2812 C.3       1 <0>        -0.1210
     29 C26         8.4219   -2.5992   14.3086 C.3       1 <0>        -0.1199
     30 C27         9.1461   -2.1031   15.5617 C.3       1 <0>        -0.1213
     31 C28         9.1285   -0.5735   15.5890 C.3       1 <0>        -0.1209
     32 C29         9.8528   -0.0774   16.8421 C.3       1 <0>        -0.1263
     33 C30         9.8351    1.4523   16.8694 C.3       1 <0>        -0.1536
     34 O4          6.3036  -12.9988   10.3070 O.3       1 <0>        -0.6115
     35 C31         5.1238  -14.5003    8.2441 C.3       1 <0>         0.0321
     36 H1          4.6080  -14.8591    7.3535 H         1 <0>         0.0787
     37 C32         4.4171  -15.0351    9.4921 C.3       1 <0>        -0.1429
     38 C33         4.7059  -16.5377    9.6026 C.3       1 <0>         0.1366
     39 H2          4.4141  -17.0367    8.6785 H         1 <0>         0.0743
     40 O5          6.1064  -16.7117    9.8220 O.3       1 <0>        -0.3088
     41 C34         6.9642  -16.0511    9.0015 C.ar      1 <0>         0.1584
     42 C35         6.5525  -14.9820    8.2248 C.ar      1 <0>        -0.1113
     43 C36         7.4624  -14.3333    7.4062 C.ar      1 <0>        -0.0583
     44 C37         8.7783  -14.7476    7.3587 C.ar      1 <0>        -0.1770
     45 C38         9.1948  -15.8202    8.1342 C.ar      1 <0>         0.1208
     46 C39         8.2887  -16.4703    8.9524 C.ar      1 <0>        -0.1792
     47 O6         10.4891  -16.2318    8.0886 O.3       1 <0>        -0.5013
     48 C40         3.9340  -17.1193   10.7590 C.ar      1 <0>        -0.0820
     49 C41         4.4048  -16.9658   12.0499 C.ar      1 <0>        -0.0699
     50 C42         3.6994  -17.4984   13.1115 C.ar      1 <0>        -0.1459
     51 C43         2.5174  -18.1873   12.8816 C.ar      1 <0>         0.1006
     52 C44         2.0469  -18.3396   11.5854 C.ar      1 <0>        -0.1476
     53 C45         2.7533  -17.8006   10.5276 C.ar      1 <0>        -0.0917
     54 O7          1.8218  -18.7126   13.9243 O.3       1 <0>        -0.5017
     55 O8          3.9017  -12.9814    6.2195 O.3       1 <0>        -0.4859
     56 H3          1.0039    1.9031    0.0027 H         1 <0>         0.0531
     57 H4         -0.5459    1.8868   -0.8726 H         1 <0>         0.0524
     58 H5         -0.5289    1.8773    0.9072 H         1 <0>         0.0530
     59 H6         -1.0205   -0.3814    0.0098 H         1 <0>         0.0600
     60 H7          0.5123   -0.3556   -0.8948 H         1 <0>         0.0601
     61 H8          1.7647   -0.1336    1.2338 H         1 <0>         0.0604
     62 H9          0.2319   -0.1594    2.1383 H         1 <0>         0.0603
     63 H10        -0.2598   -2.4180    1.2409 H         1 <0>         0.0602
     64 H11         1.2730   -2.3923    0.3363 H         1 <0>         0.0602
     65 H12         2.5254   -2.1703    2.4649 H         1 <0>         0.0601
     66 H13         0.9926   -2.1961    3.3695 H         1 <0>         0.0600
     67 H14         0.5010   -4.4547    2.4720 H         1 <0>         0.0599
     68 H15         2.0337   -4.4289    1.5675 H         1 <0>         0.0600
     69 H16         3.2861   -4.2070    3.6960 H         1 <0>         0.0600
     70 H17         1.7534   -4.2327    4.6006 H         1 <0>         0.0597
     71 H18         1.2617   -6.4914    3.7031 H         1 <0>         0.0597
     72 H19         2.7945   -6.4656    2.7986 H         1 <0>         0.0599
     73 H20         4.0469   -6.2436    4.9271 H         1 <0>         0.0605
     74 H21         2.5141   -6.2694    5.8317 H         1 <0>         0.0592
     75 H22         2.0224   -8.5280    4.9342 H         1 <0>         0.0612
     76 H23         3.5552   -8.5023    4.0297 H         1 <0>         0.0620
     77 H24         4.8076   -8.2803    6.1583 H         1 <0>         0.0992
     78 H25         3.2748   -8.3061    7.0628 H         1 <0>         0.0825
     79 H26         6.8052   -8.2914    9.5804 H         1 <0>         0.0951
     80 H27         5.2703   -8.3252   10.4810 H         1 <0>         0.0780
     81 H28         6.5231   -8.5654   12.6073 H         1 <0>         0.0609
     82 H29         8.0581   -8.5316   11.7067 H         1 <0>         0.0622
     83 H30         7.5118   -6.2656   10.8608 H         1 <0>         0.0596
     84 H31         5.9769   -6.2994   11.7614 H         1 <0>         0.0581
     85 H32         7.2297   -6.5397   13.8877 H         1 <0>         0.0598
     86 H33         8.7647   -6.5059   12.9872 H         1 <0>         0.0601
     87 H34         8.2185   -4.2399   12.1412 H         1 <0>         0.0596
     88 H35         6.6835   -4.2737   13.0418 H         1 <0>         0.0593
     89 H36         7.9363   -4.5139   15.1681 H         1 <0>         0.0600
     90 H37         9.4713   -4.4801   14.2676 H         1 <0>         0.0602
     91 H38         8.9251   -2.2142   13.4217 H         1 <0>         0.0599
     92 H39         7.3901   -2.2480   14.3222 H         1 <0>         0.0598
     93 H40         8.6429   -2.4882   16.4486 H         1 <0>         0.0602
     94 H41        10.1779   -2.4544   15.5480 H         1 <0>         0.0603
     95 H42         9.6317   -0.1884   14.7021 H         1 <0>         0.0603
     96 H43         8.0967   -0.2222   15.6026 H         1 <0>         0.0602
     97 H44         9.3496   -0.4625   17.7290 H         1 <0>         0.0601
     98 H45        10.8845   -0.4287   16.8284 H         1 <0>         0.0601
     99 H46        10.3383    1.8373   15.9825 H         1 <0>         0.0530
    100 H47         8.8033    1.8035   16.8831 H         1 <0>         0.0530
    101 H48        10.3511    1.8057   17.7621 H         1 <0>         0.0523
    102 H49         4.7951  -14.5223   10.3765 H         1 <0>         0.1098
    103 H50         3.3428  -14.8730    9.4038 H         1 <0>         0.0710
    104 H51         7.1402  -13.4986    6.8013 H         1 <0>         0.1203
    105 H52         9.4830  -14.2373    6.7189 H         1 <0>         0.1212
    106 H53         8.6121  -17.3052    9.5564 H         1 <0>         0.1274
    107 H54        11.0631  -15.7972    8.7341 H         1 <0>         0.3867
    108 H55         5.3251  -16.4294   12.2284 H         1 <0>         0.1353
    109 H56         4.0679  -17.3789   14.1196 H         1 <0>         0.1283
    110 H57         1.1270  -18.8755   11.4038 H         1 <0>         0.1281
    111 H58         2.3852  -17.9150    9.5188 H         1 <0>         0.1283
    112 H59         1.1663  -18.1108   14.3027 H         1 <0>         0.3883
    113 H60         4.4938  -13.1622    5.4768 H         1 <0>         0.3835
    114 H61         4.2883   -8.4577    8.7631 H         1 <0>         0.3867
@<TRIPOS>BOND
     1    1    2 1
     2    1   56 1
     3    1   57 1
     4    1   58 1
     5    2    3 1
     6    2   59 1
     7    2   60 1
     8    3    4 1
     9    3   61 1
    10    3   62 1
    11    4    5 1
    12    4   63 1
    13    4   64 1
    14    5    6 1
    15    5   65 1
    16    5   66 1
    17    6    7 1
    18    6   67 1
    19    6   68 1
    20    7    8 1
    21    7   69 1
    22    7   70 1
    23    8    9 1
    24    8   71 1
    25    8   72 1
    26    9   10 1
    27    9   73 1
    28    9   74 1
    29   10   11 1
    30   10   75 1
    31   10   76 1
    32   11   12 1
    33   11   77 1
    34   11   78 1
    35   12   13 2
    36   12   14 1
    37   14   19 ar
    38   14   15 ar
    39   15   16 ar
    40   15   55 1
    41   16   17 ar
    42   16   35 1
    43   17   18 ar
    44   17   34 1
    45   18   19 ar
    46   18   21 1
    47   19   20 1
    48   20  114 1
    49   21   22 2
    50   21   23 1
    51   23   24 1
    52   23   79 1
    53   23   80 1
    54   24   25 1
    55   24   81 1
    56   24   82 1
    57   25   26 1
    58   25   83 1
    59   25   84 1
    60   26   27 1
    61   26   85 1
    62   26   86 1
    63   27   28 1
    64   27   87 1
    65   27   88 1
    66   28   29 1
    67   28   89 1
    68   28   90 1
    69   29   30 1
    70   29   91 1
    71   29   92 1
    72   30   31 1
    73   30   93 1
    74   30   94 1
    75   31   32 1
    76   31   95 1
    77   31   96 1
    78   32   33 1
    79   32   97 1
    80   32   98 1
    81   33   99 1
    82   33  100 1
    83   33  101 1
    84   35   36 1
    85   35   42 1
    86   35   37 1
    87   37   38 1
    88   37  102 1
    89   37  103 1
    90   38   39 1
    91   38   40 1
    92   38   48 1
    93   40   41 1
    94   41   46 ar
    95   41   42 ar
    96   42   43 ar
    97   43   44 ar
    98   43  104 1
    99   44   45 ar
   100   44  105 1
   101   45   46 ar
   102   45   47 1
   103   46  106 1
   104   47  107 1
   105   48   53 ar
   106   48   49 ar
   107   49   50 ar
   108   49  108 1
   109   50   51 ar
   110   50  109 1
   111   51   52 ar
   112   51   54 1
   113   52   53 ar
   114   52  110 1
   115   53  111 1
   116   54  112 1
   117   55  113 1
@<TRIPOS>MOLECULE
ZINC49823269
  115   118     0     0     0
SMALL
USER_CHARGES

@<TRIPOS>ATOM
      1 C1         -0.0187    1.5258    0.0104 C.3       1 <0>        -0.1543
      2 C2          0.0021   -0.0041    0.0020 C.3       1 <0>        -0.1262
      3 C3          0.7421   -0.5109    1.2415 C.3       1 <0>        -0.1211
      4 C4          0.7628   -2.0407    1.2331 C.3       1 <0>        -0.1214
      5 C5          1.5028   -2.5476    2.4727 C.3       1 <0>        -0.1203
      6 C6          1.5236   -4.0774    2.4642 C.3       1 <0>        -0.1212
      7 C7          2.2636   -4.5842    3.7038 C.3       1 <0>        -0.1196
      8 C8          2.2843   -6.1141    3.6954 C.3       1 <0>        -0.1212
      9 C9          3.0243   -6.6209    4.9349 C.3       1 <0>        -0.1180
     10 C10         3.0450   -8.1508    4.9265 C.3       1 <0>        -0.1147
     11 C11         3.7850   -8.6576    6.1660 C.3       1 <0>        -0.1542
     12 C12         3.8055  -10.1644    6.1577 C.2       1 <0>         0.3965
     13 O1          3.2795  -10.7735    5.2491 O.2       1 <0>        -0.4357
     14 C13         4.4588  -10.8926    7.2440 C.ar      1 <0>        -0.2504
     15 C14         4.4843  -12.3017    7.2357 C.ar      1 <0>         0.2352
     16 C15         5.1020  -12.9935    8.2637 C.ar      1 <0>        -0.1673
     17 C16         5.7006  -12.3106    9.3088 C.ar      1 <0>         0.2454
     18 C17         5.6866  -10.9016    9.3358 C.ar      1 <0>        -0.2510
     19 C18         5.0677  -10.1906    8.2959 C.ar      1 <0>         0.2374
     20 O2          5.0538   -8.8380    8.3099 O.3       1 <0>        -0.4792
     21 C19         6.3193  -10.1829   10.4405 C.2       1 <0>         0.3962
     22 O3          6.8578  -10.7997   11.3364 O.2       1 <0>        -0.4345
     23 C20         6.3028   -8.6763   10.4669 C.3       1 <0>        -0.1543
     24 C21         7.0272   -8.1802   11.7198 C.3       1 <0>        -0.1144
     25 C22         7.0105   -6.6505   11.7466 C.3       1 <0>        -0.1179
     26 C23         7.7349   -6.1544   12.9996 C.3       1 <0>        -0.1211
     27 C24         7.7182   -4.6247   13.0264 C.3       1 <0>        -0.1196
     28 C25         8.4426   -4.1286   14.2794 C.3       1 <0>        -0.1212
     29 C26         8.4259   -2.5990   14.3062 C.3       1 <0>        -0.1203
     30 C27         9.1504   -2.1029   15.5592 C.3       1 <0>        -0.1214
     31 C28         9.1336   -0.5732   15.5860 C.3       1 <0>        -0.1211
     32 C29         9.8581   -0.0771   16.8390 C.3       1 <0>        -0.1262
     33 C30         9.8413    1.4526   16.8657 C.3       1 <0>        -0.1543
     34 O4          6.3011  -12.9989   10.3085 O.3       1 <0>        -0.4626
     35 C31         5.1225  -14.5003    8.2451 C.3       1 <0>         0.0100
     36 H1          4.6071  -14.8591    7.3542 H         1 <0>         0.1034
     37 C32         4.4148  -15.0346    9.4928 C.3       1 <0>        -0.1452
     38 C33         4.7031  -16.5373    9.6037 C.3       1 <0>         0.1412
     39 H2          4.4117  -17.0363    8.6795 H         1 <0>         0.0833
     40 O5          6.1034  -16.7117    9.8239 O.3       1 <0>        -0.3025
     41 C34         6.9620  -16.0515    9.0038 C.ar      1 <0>         0.1651
     42 C35         6.5511  -14.9824    8.2267 C.ar      1 <0>        -0.1668
     43 C36         7.4616  -14.3342    7.4086 C.ar      1 <0>        -0.0706
     44 C37         8.7775  -14.7489    7.3619 C.ar      1 <0>        -0.1749
     45 C38         9.1931  -15.8215    8.1379 C.ar      1 <0>         0.1452
     46 C39         8.2864  -16.4711    8.9557 C.ar      1 <0>        -0.1759
     47 O6         10.4874  -16.2335    8.0931 O.3       1 <0>        -0.4954
     48 C40         3.9303  -17.1184   10.7597 C.ar      1 <0>        -0.0974
     49 C41         4.4004  -16.9648   12.0509 C.ar      1 <0>        -0.0716
     50 C42         3.6942  -17.4970   13.1122 C.ar      1 <0>        -0.1465
     51 C43         2.5121  -18.1855   12.8817 C.ar      1 <0>         0.1128
     52 C44         2.0423  -18.3379   11.5853 C.ar      1 <0>        -0.1454
     53 C45         2.7495  -17.7993   10.5278 C.ar      1 <0>        -0.0873
     54 O7          1.8157  -18.7103   13.9241 O.3       1 <0>        -0.4994
     55 O8          3.9024  -12.9812    6.2191 O.3       1 <0>        -0.4682
     56 H3          1.0039    1.9031    0.0027 H         1 <0>         0.0533
     57 H4         -0.5459    1.8868   -0.8726 H         1 <0>         0.0535
     58 H5         -0.5289    1.8773    0.9072 H         1 <0>         0.0533
     59 H6         -1.0205   -0.3814    0.0098 H         1 <0>         0.0602
     60 H7          0.5123   -0.3556   -0.8948 H         1 <0>         0.0603
     61 H8          1.7647   -0.1336    1.2338 H         1 <0>         0.0605
     62 H9          0.2319   -0.1594    2.1383 H         1 <0>         0.0604
     63 H10        -0.2598   -2.4180    1.2409 H         1 <0>         0.0605
     64 H11         1.2730   -2.3923    0.3363 H         1 <0>         0.0605
     65 H12         2.5254   -2.1703    2.4649 H         1 <0>         0.0603
     66 H13         0.9926   -2.1961    3.3695 H         1 <0>         0.0603
     67 H14         0.5010   -4.4547    2.4720 H         1 <0>         0.0605
     68 H15         2.0337   -4.4289    1.5675 H         1 <0>         0.0606
     69 H16         3.2861   -4.2070    3.6960 H         1 <0>         0.0606
     70 H17         1.7534   -4.2327    4.6006 H         1 <0>         0.0603
     71 H18         1.2617   -6.4914    3.7031 H         1 <0>         0.0612
     72 H19         2.7945   -6.4656    2.7986 H         1 <0>         0.0613
     73 H20         4.0469   -6.2436    4.9271 H         1 <0>         0.0628
     74 H21         2.5141   -6.2694    5.8317 H         1 <0>         0.0615
     75 H22         2.0224   -8.5280    4.9342 H         1 <0>         0.0662
     76 H23         3.5552   -8.5023    4.0297 H         1 <0>         0.0670
     77 H24         4.8076   -8.2803    6.1583 H         1 <0>         0.1097
     78 H25         3.2748   -8.3061    7.0628 H         1 <0>         0.0924
     79 H26         6.8063   -8.2918    9.5799 H         1 <0>         0.1096
     80 H27         5.2713   -8.3244   10.4803 H         1 <0>         0.0921
     81 H28         6.5237   -8.5646   12.6068 H         1 <0>         0.0661
     82 H29         8.0588   -8.5321   11.7064 H         1 <0>         0.0668
     83 H30         7.5140   -6.2660   10.8596 H         1 <0>         0.0628
     84 H31         5.9790   -6.2986   11.7600 H         1 <0>         0.0615
     85 H32         7.2314   -6.5388   13.8866 H         1 <0>         0.0611
     86 H33         8.7665   -6.5063   12.9862 H         1 <0>         0.0613
     87 H34         8.2217   -4.2403   12.1394 H         1 <0>         0.0606
     88 H35         6.6867   -4.2728   13.0398 H         1 <0>         0.0603
     89 H36         7.9391   -4.5131   15.1664 H         1 <0>         0.0605
     90 H37         9.4742   -4.4805   14.2660 H         1 <0>         0.0605
     91 H38         8.9295   -2.2145   13.4192 H         1 <0>         0.0604
     92 H39         7.3944   -2.2471   14.3196 H         1 <0>         0.0603
     93 H40         8.6468   -2.4873   16.4462 H         1 <0>         0.0605
     94 H41        10.1819   -2.4548   15.5458 H         1 <0>         0.0605
     95 H42         9.6372   -0.1887   14.6990 H         1 <0>         0.0605
     96 H43         8.1021   -0.2213   15.5994 H         1 <0>         0.0605
     97 H44         9.3545   -0.4616   17.7259 H         1 <0>         0.0602
     98 H45        10.8896   -0.4290   16.8255 H         1 <0>         0.0603
     99 H46        10.3449    1.8370   15.9787 H         1 <0>         0.0533
    100 H47         8.8098    1.8045   16.8792 H         1 <0>         0.0533
    101 H48        10.3574    1.8060   17.7584 H         1 <0>         0.0535
    102 H49         7.2374  -13.1829   10.1521 H         1 <0>         0.4009
    103 H50         4.7925  -14.5218   10.3773 H         1 <0>         0.1021
    104 H51         3.3407  -14.8722    9.4038 H         1 <0>         0.0867
    105 H52         7.1401  -13.4995    6.8033 H         1 <0>         0.1226
    106 H53         9.4827  -14.2390    6.7224 H         1 <0>         0.1314
    107 H54         8.6091  -17.3060    9.5600 H         1 <0>         0.1389
    108 H55        11.0611  -15.7990    8.7389 H         1 <0>         0.3956
    109 H56         5.3207  -16.4287   12.2298 H         1 <0>         0.1322
    110 H57         4.0621  -17.3774   14.1205 H         1 <0>         0.1314
    111 H58         1.1223  -18.8735   11.4032 H         1 <0>         0.1325
    112 H59         2.3820  -17.9138    9.5188 H         1 <0>         0.1296
    113 H60         1.1601  -18.1083   14.3020 H         1 <0>         0.3929
    114 H61         4.4951  -13.1621    5.4768 H         1 <0>         0.4044
    115 H62         4.2889   -8.4572    8.7627 H         1 <0>         0.4052
@<TRIPOS>BOND
     1    1    2 1
     2    1   56 1
     3    1   57 1
     4    1   58 1
     5    2    3 1
     6    2   59 1
     7    2   60 1
     8    3    4 1
     9    3   61 1
    10    3   62 1
    11    4    5 1
    12    4   63 1
    13    4   64 1
    14    5    6 1
    15    5   65 1
    16    5   66 1
    17    6    7 1
    18    6   67 1
    19    6   68 1
    20    7    8 1
    21    7   69 1
    22    7   70 1
    23    8    9 1
    24    8   71 1
    25    8   72 1
    26    9   10 1
    27    9   73 1
    28    9   74 1
    29   10   11 1
    30   10   75 1
    31   10   76 1
    32   11   12 1
    33   11   77 1
    34   11   78 1
    35   12   13 2
    36   12   14 1
    37   14   19 ar
    38   14   15 ar
    39   15   16 ar
    40   15   55 1
    41   16   17 ar
    42   16   35 1
    43   17   18 ar
    44   17   34 1
    45   18   19 ar
    46   18   21 1
    47   19   20 1
    48   20  115 1
    49   21   22 2
    50   21   23 1
    51   23   24 1
    52   23   79 1
    53   23   80 1
    54   24   25 1
    55   24   81 1
    56   24   82 1
    57   25   26 1
    58   25   83 1
    59   25   84 1
    60   26   27 1
    61   26   85 1
    62   26   86 1
    63   27   28 1
    64   27   87 1
    65   27   88 1
    66   28   29 1
    67   28   89 1
    68   28   90 1
    69   29   30 1
    70   29   91 1
    71   29   92 1
    72   30   31 1
    73   30   93 1
    74   30   94 1
    75   31   32 1
    76   31   95 1
    77   31   96 1
    78   32   33 1
    79   32   97 1
    80   32   98 1
    81   33   99 1
    82   33  100 1
    83   33  101 1
    84   34  102 1
    85   35   36 1
    86   35   42 1
    87   35   37 1
    88   37   38 1
    89   37  103 1
    90   37  104 1
    91   38   39 1
    92   38   40 1
    93   38   48 1
    94   40   41 1
    95   41   46 ar
    96   41   42 ar
    97   42   43 ar
    98   43   44 ar
    99   43  105 1
   100   44   45 ar
   101   44  106 1
   102   45   46 ar
   103   45   47 1
   104   46  107 1
   105   47  108 1
   106   48   53 ar
   107   48   49 ar
   108   49   50 ar
   109   49  109 1
   110   50   51 ar
   111   50  110 1
   112   51   52 ar
   113   51   54 1
   114   52   53 ar
   115   52  111 1
   116   53  112 1
   117   54  113 1
   118   55  114 1
@<TRIPOS>MOLECULE
ZINC49823270
  114   117     0     0     0
SMALL
USER_CHARGES

@<TRIPOS>ATOM
      1 C1         -1.3237    1.4341   -5.0232 C.3       1 <0>        -0.1536
      2 C2         -1.3329   -0.0956   -5.0493 C.3       1 <0>        -0.1260
      3 C3         -2.5457   -0.6117   -4.2722 C.3       1 <0>        -0.1212
      4 C4         -2.5549   -2.1414   -4.2982 C.3       1 <0>        -0.1208
      5 C5         -3.7676   -2.6574   -3.5211 C.3       1 <0>        -0.1205
      6 C6         -3.7768   -4.1872   -3.5471 C.3       1 <0>        -0.1200
      7 C7         -4.9895   -4.7032   -2.7700 C.3       1 <0>        -0.1201
      8 C8         -4.9987   -6.2329   -2.7960 C.3       1 <0>        -0.1188
      9 C9         -6.2115   -6.7489   -2.0189 C.3       1 <0>        -0.1166
     10 C10        -6.2207   -8.2787   -2.0450 C.3       1 <0>        -0.1129
     11 C11        -7.4334   -8.7947   -1.2679 C.3       1 <0>        -0.1339
     12 C12        -7.4425  -10.3015   -1.2935 C.2       1 <0>         0.4128
     13 O1         -6.5647  -10.9038   -1.8764 O.2       1 <0>        -0.5003
     14 C13        -8.5086  -11.0376   -0.6163 C.ar      1 <0>        -0.3564
     15 C14        -8.5162  -12.4469   -0.6338 C.ar      1 <0>         0.2577
     16 C15        -9.5250  -13.1463    0.0064 C.ar      1 <0>        -0.2856
     17 C16       -10.5352  -12.4710    0.6699 C.ar      1 <0>         0.2582
     18 C17       -10.5458  -11.0620    0.6998 C.ar      1 <0>        -0.3588
     19 C18        -9.5248  -10.3435    0.0585 C.ar      1 <0>         0.3585
     20 O2         -9.5230   -8.9910    0.0862 O.3       1 <0>        -0.6531
     21 C19       -11.6136  -10.3513    1.4011 C.2       1 <0>         0.4107
     22 O3        -12.4930  -10.9747    1.9589 O.2       1 <0>        -0.4978
     23 C20       -11.6225   -8.8446    1.4315 C.3       1 <0>        -0.1328
     24 C21       -12.8372   -8.3576    2.2240 C.3       1 <0>        -0.1133
     25 C22       -12.8462   -6.8279    2.2548 C.3       1 <0>        -0.1160
     26 C23       -14.0609   -6.3409    3.0474 C.3       1 <0>        -0.1190
     27 C24       -14.0699   -4.8113    3.0782 C.3       1 <0>        -0.1197
     28 C25       -15.2847   -4.3243    3.8707 C.3       1 <0>        -0.1202
     29 C26       -15.2937   -2.7946    3.9016 C.3       1 <0>        -0.1203
     30 C27       -16.5084   -2.3076    4.6941 C.3       1 <0>        -0.1209
     31 C28       -16.5174   -0.7779    4.7249 C.3       1 <0>        -0.1211
     32 C29       -17.7321   -0.2909    5.5175 C.3       1 <0>        -0.1261
     33 C30       -17.7411    1.2387    5.5483 C.3       1 <0>        -0.1535
     34 O4        -11.5166  -13.1666    1.2919 O.3       1 <0>        -0.4731
     35 C31        -9.5238  -14.6531   -0.0197 C.3       1 <0>         0.0220
     36 H1         -9.0297  -14.9997   -0.9273 H         1 <0>         0.0947
     37 C32        -8.7719  -15.1830    1.2037 C.3       1 <0>        -0.1358
     38 C33        -9.6389  -14.9385    2.4454 C.3       1 <0>         0.1335
     39 H2         -9.9012  -13.8823    2.5079 H         1 <0>         0.0793
     40 O5        -10.8266  -15.7229    2.3264 O.3       1 <0>        -0.3115
     41 C34       -11.5168  -15.6562    1.1582 C.ar      1 <0>         0.1660
     42 C35       -10.9451  -15.1564    0.0014 C.ar      1 <0>        -0.1139
     43 C36       -11.6844  -15.1111   -1.1690 C.ar      1 <0>        -0.0638
     44 C37       -12.9899  -15.5593   -1.1883 C.ar      1 <0>        -0.1733
     45 C38       -13.5676  -16.0585   -0.0297 C.ar      1 <0>         0.1271
     46 C39       -12.8319  -16.1065    1.1395 C.ar      1 <0>        -0.1743
     47 O6        -14.8532  -16.4989   -0.0447 O.3       1 <0>        -0.4976
     48 C40        -8.8813  -15.3475    3.6822 C.ar      1 <0>        -0.0879
     49 C41        -8.8064  -16.6820    4.0360 C.ar      1 <0>        -0.0753
     50 C42        -8.1129  -17.0595    5.1695 C.ar      1 <0>        -0.1477
     51 C43        -7.4909  -16.0983    5.9529 C.ar      1 <0>         0.1050
     52 C44        -7.5670  -14.7599    5.5956 C.ar      1 <0>        -0.1431
     53 C45        -8.2574  -14.3881    4.4582 C.ar      1 <0>        -0.0871
     54 O7         -6.8084  -16.4670    7.0688 O.3       1 <0>        -0.5006
     55 O8         -7.5337  -13.1190   -1.2794 O.3       1 <0>        -0.4841
     56 H3         -0.4597    1.8017   -5.5769 H         1 <0>         0.0520
     57 H4         -2.2372    1.8108   -5.4834 H         1 <0>         0.0530
     58 H5         -1.2677    1.7796   -3.9910 H         1 <0>         0.0530
     59 H6         -1.3890   -0.4411   -6.0815 H         1 <0>         0.0599
     60 H7         -0.4194   -0.4723   -4.5891 H         1 <0>         0.0599
     61 H8         -2.4896   -0.2662   -3.2399 H         1 <0>         0.0603
     62 H9         -3.4592   -0.2349   -4.7323 H         1 <0>         0.0604
     63 H10        -2.6109   -2.4869   -5.3305 H         1 <0>         0.0600
     64 H11        -1.6414   -2.5181   -3.8381 H         1 <0>         0.0599
     65 H12        -3.7115   -2.3119   -2.4888 H         1 <0>         0.0601
     66 H13        -4.6811   -2.2807   -3.9812 H         1 <0>         0.0602
     67 H14        -3.8329   -4.5327   -4.5794 H         1 <0>         0.0595
     68 H15        -2.8633   -4.5639   -3.0870 H         1 <0>         0.0593
     69 H16        -4.9335   -4.3577   -1.7377 H         1 <0>         0.0598
     70 H17        -5.9030   -4.3265   -3.2301 H         1 <0>         0.0600
     71 H18        -5.0548   -6.5784   -3.8283 H         1 <0>         0.0583
     72 H19        -4.0852   -6.6096   -2.3359 H         1 <0>         0.0581
     73 H20        -6.1554   -6.4034   -0.9867 H         1 <0>         0.0593
     74 H21        -7.1250   -6.3722   -2.4791 H         1 <0>         0.0596
     75 H22        -6.2767   -8.6242   -3.0772 H         1 <0>         0.0562
     76 H23        -5.3072   -8.6554   -1.5848 H         1 <0>         0.0555
     77 H24        -7.3774   -8.4492   -0.2356 H         1 <0>         0.0964
     78 H25        -8.3469   -8.4180   -1.7280 H         1 <0>         0.0966
     79 H26       -10.7101   -8.4854    1.9077 H         1 <0>         0.0964
     80 H27       -11.6758   -8.4610    0.4126 H         1 <0>         0.0960
     81 H28       -13.7495   -8.7168    1.7478 H         1 <0>         0.0563
     82 H29       -12.7839   -8.7412    3.2429 H         1 <0>         0.0555
     83 H30       -11.9339   -6.4688    2.7310 H         1 <0>         0.0591
     84 H31       -12.8995   -6.4443    1.2360 H         1 <0>         0.0594
     85 H32       -14.9733   -6.7001    2.5712 H         1 <0>         0.0584
     86 H33       -14.0076   -6.7246    4.0662 H         1 <0>         0.0581
     87 H34       -13.1576   -4.4521    3.5544 H         1 <0>         0.0597
     88 H35       -14.1232   -4.4276    2.0593 H         1 <0>         0.0598
     89 H36       -16.1970   -4.6834    3.3945 H         1 <0>         0.0596
     90 H37       -15.2314   -4.7079    4.8896 H         1 <0>         0.0594
     91 H38       -14.3813   -2.4354    4.3778 H         1 <0>         0.0600
     92 H39       -15.3470   -2.4110    2.8827 H         1 <0>         0.0601
     93 H40       -17.4207   -2.6668    4.2179 H         1 <0>         0.0600
     94 H41       -16.4551   -2.6912    5.7130 H         1 <0>         0.0600
     95 H42       -15.6051   -0.4188    5.2011 H         1 <0>         0.0603
     96 H43       -16.5707   -0.3943    3.7061 H         1 <0>         0.0604
     97 H44       -18.6445   -0.6501    5.0413 H         1 <0>         0.0600
     98 H45       -17.6788   -0.6746    6.5363 H         1 <0>         0.0599
     99 H46       -18.6065    1.5857    6.1129 H         1 <0>         0.0520
    100 H47       -16.8288    1.5979    6.0245 H         1 <0>         0.0530
    101 H48       -17.7944    1.6224    4.5294 H         1 <0>         0.0530
    102 H49       -11.3685  -13.2944    2.2389 H         1 <0>         0.3778
    103 H50        -8.5887  -16.2512    1.0881 H         1 <0>         0.0763
    104 H51        -7.8233  -14.6563    1.3085 H         1 <0>         0.0817
    105 H52       -11.2369  -14.7224   -2.0719 H         1 <0>         0.1229
    106 H53       -13.5609  -15.5219   -2.1043 H         1 <0>         0.1219
    107 H54       -13.2810  -16.4949    2.0417 H         1 <0>         0.1279
    108 H55       -14.9449  -17.4374   -0.2587 H         1 <0>         0.3841
    109 H56        -9.2909  -17.4299    3.4258 H         1 <0>         0.1312
    110 H57        -8.0554  -18.1020    5.4458 H         1 <0>         0.1285
    111 H58        -7.0836  -14.0098    6.2038 H         1 <0>         0.1308
    112 H59        -8.3133  -13.3468    4.1772 H         1 <0>         0.1306
    113 H60        -5.8738  -16.6601    6.9124 H         1 <0>         0.3894
    114 H61        -6.7690  -13.3261   -0.7250 H         1 <0>         0.3860
@<TRIPOS>BOND
     1    1    2 1
     2    1   56 1
     3    1   57 1
     4    1   58 1
     5    2    3 1
     6    2   59 1
     7    2   60 1
     8    3    4 1
     9    3   61 1
    10    3   62 1
    11    4    5 1
    12    4   63 1
    13    4   64 1
    14    5    6 1
    15    5   65 1
    16    5   66 1
    17    6    7 1
    18    6   67 1
    19    6   68 1
    20    7    8 1
    21    7   69 1
    22    7   70 1
    23    8    9 1
    24    8   71 1
    25    8   72 1
    26    9   10 1
    27    9   73 1
    28    9   74 1
    29   10   11 1
    30   10   75 1
    31   10   76 1
    32   11   12 1
    33   11   77 1
    34   11   78 1
    35   12   13 2
    36   12   14 1
    37   14   19 ar
    38   14   15 ar
    39   15   16 ar
    40   15   55 1
    41   16   17 ar
    42   16   35 1
    43   17   18 ar
    44   17   34 1
    45   18   19 ar
    46   18   21 1
    47   19   20 1
    48   21   22 2
    49   21   23 1
    50   23   24 1
    51   23   79 1
    52   23   80 1
    53   24   25 1
    54   24   81 1
    55   24   82 1
    56   25   26 1
    57   25   83 1
    58   25   84 1
    59   26   27 1
    60   26   85 1
    61   26   86 1
    62   27   28 1
    63   27   87 1
    64   27   88 1
    65   28   29 1
    66   28   89 1
    67   28   90 1
    68   29   30 1
    69   29   91 1
    70   29   92 1
    71   30   31 1
    72   30   93 1
    73   30   94 1
    74   31   32 1
    75   31   95 1
    76   31   96 1
    77   32   33 1
    78   32   97 1
    79   32   98 1
    80   33   99 1
    81   33  100 1
    82   33  101 1
    83   34  102 1
    84   35   36 1
    85   35   42 1
    86   35   37 1
    87   37   38 1
    88   37  103 1
    89   37  104 1
    90   38   39 1
    91   38   40 1
    92   38   48 1
    93   40   41 1
    94   41   46 ar
    95   41   42 ar
    96   42   43 ar
    97   43   44 ar
    98   43  105 1
    99   44   45 ar
   100   44  106 1
   101   45   46 ar
   102   45   47 1
   103   46  107 1
   104   47  108 1
   105   48   53 ar
   106   48   49 ar
   107   49   50 ar
   108   49  109 1
   109   50   51 ar
   110   50  110 1
   111   51   52 ar
   112   51   54 1
   113   52   53 ar
   114   52  111 1
   115   53  112 1
   116   54  113 1
   117   55  114 1
@<TRIPOS>MOLECULE
ZINC49823270
  115   118     0     0     0
SMALL
USER_CHARGES

@<TRIPOS>ATOM
      1 C1         -3.7225    1.3538    3.6576 C.3       1 <0>        -0.1543
      2 C2         -3.7020   -0.1758    3.6839 C.3       1 <0>        -0.1262
      3 C3         -2.4102   -0.6572    4.3475 C.3       1 <0>        -0.1211
      4 C4         -2.3897   -2.1869    4.3738 C.3       1 <0>        -0.1214
      5 C5         -1.0979   -2.6683    5.0374 C.3       1 <0>        -0.1203
      6 C6         -1.0774   -4.1979    5.0637 C.3       1 <0>        -0.1211
      7 C7          0.2144   -4.6793    5.7273 C.3       1 <0>        -0.1197
      8 C8          0.2348   -6.2090    5.7536 C.3       1 <0>        -0.1211
      9 C9          1.5267   -6.6904    6.4172 C.3       1 <0>        -0.1181
     10 C10         1.5471   -8.2200    6.4435 C.3       1 <0>        -0.1144
     11 C11         2.8389   -8.7015    7.1071 C.3       1 <0>        -0.1545
     12 C12         2.8591  -10.2081    7.1330 C.2       1 <0>         0.3970
     13 O1          1.9309  -10.8355    6.6663 O.2       1 <0>        -0.4359
     14 C13         3.9967  -10.9139    7.7203 C.ar      1 <0>        -0.2507
     15 C14         4.0206  -12.3229    7.7406 C.ar      1 <0>         0.2375
     16 C15         5.0966  -12.9936    8.2967 C.ar      1 <0>        -0.1712
     17 C16         6.1590  -12.2895    8.8374 C.ar      1 <0>         0.2386
     18 C17         6.1548  -10.8802    8.8267 C.ar      1 <0>        -0.2538
     19 C18         5.0713  -10.1907    8.2606 C.ar      1 <0>         0.2381
     20 O2          5.0605   -8.8381    8.2405 O.3       1 <0>        -0.4794
     21 C19         7.2778  -10.1390    9.3984 C.2       1 <0>         0.3945
     22 O3          8.2158  -10.7374    9.8833 O.2       1 <0>        -0.4337
     23 C20         7.2707   -8.6321    9.3856 C.3       1 <0>        -0.1534
     24 C21         8.5517   -8.1105   10.0397 C.3       1 <0>        -0.1148
     25 C22         8.5445   -6.5806   10.0267 C.3       1 <0>        -0.1175
     26 C23         9.8255   -6.0590   10.6808 C.3       1 <0>        -0.1213
     27 C24         9.8183   -4.5290   10.6679 C.3       1 <0>        -0.1194
     28 C25        11.0993   -4.0074   11.3219 C.3       1 <0>        -0.1213
     29 C26        11.0921   -2.4775   11.3090 C.3       1 <0>        -0.1201
     30 C27        12.3731   -1.9559   11.9630 C.3       1 <0>        -0.1215
     31 C28        12.3659   -0.4259   11.9501 C.3       1 <0>        -0.1211
     32 C29        13.6469    0.0957   12.6042 C.3       1 <0>        -0.1263
     33 C30        13.6397    1.6256   12.5912 C.3       1 <0>        -0.1542
     34 O4          7.2054  -12.9571    9.3788 O.3       1 <0>        -0.4572
     35 C31         5.1113  -14.5004    8.3139 C.3       1 <0>         0.0056
     36 H1          4.0873  -14.8728    8.3410 H         1 <0>         0.1118
     37 C32         5.8081  -15.0174    7.0529 C.3       1 <0>        -0.1403
     38 C33         7.3103  -14.7347    7.1822 C.3       1 <0>         0.1377
     39 H2          7.4690  -13.6735    7.3743 H         1 <0>         0.0683
     40 O5          7.8204  -15.5027    8.2730 O.3       1 <0>        -0.3057
     41 C34         7.1523  -15.4486    9.4546 C.ar      1 <0>         0.1686
     42 C35         5.8524  -14.9810    9.5360 C.ar      1 <0>        -0.1391
     43 C36         5.2074  -14.9476   10.7613 C.ar      1 <0>        -0.0624
     44 C37         5.8543  -15.3758   11.9032 C.ar      1 <0>        -0.1719
     45 C38         7.1587  -15.8426   11.8260 C.ar      1 <0>         0.1429
     46 C39         7.8046  -15.8787   10.6044 C.ar      1 <0>        -0.1724
     47 O6          7.7992  -16.2631   12.9483 O.3       1 <0>        -0.4965
     48 C40         8.0128  -15.1306    5.9091 C.ar      1 <0>        -0.1005
     49 C41         8.3152  -16.4588    5.6721 C.ar      1 <0>        -0.0716
     50 C42         8.9596  -16.8243    4.5061 C.ar      1 <0>        -0.1450
     51 C43         9.3029  -15.8574    3.5723 C.ar      1 <0>         0.1151
     52 C44         8.9980  -14.5255    3.8123 C.ar      1 <0>        -0.1436
     53 C45         8.3489  -14.1658    4.9775 C.ar      1 <0>        -0.0887
     54 O7          9.9372  -16.2144    2.4247 O.3       1 <0>        -0.4987
     55 O8          2.9876  -13.0231    7.2149 O.3       1 <0>        -0.4676
     56 H3         -2.8654    1.7190    3.0917 H         1 <0>         0.0533
     57 H4         -4.6428    1.6968    3.1849 H         1 <0>         0.0535
     58 H5         -3.6738    1.7355    4.6775 H         1 <0>         0.0533
     59 H6         -4.5591   -0.5410    4.2498 H         1 <0>         0.0602
     60 H7         -3.7507   -0.5574    2.6641 H         1 <0>         0.0602
     61 H8         -1.5531   -0.2921    3.7816 H         1 <0>         0.0605
     62 H9         -2.3615   -0.2756    5.3674 H         1 <0>         0.0605
     63 H10        -3.2468   -2.5520    4.9397 H         1 <0>         0.0605
     64 H11        -2.4384   -2.5685    3.3540 H         1 <0>         0.0605
     65 H12        -0.2408   -2.3031    4.4715 H         1 <0>         0.0603
     66 H13        -1.0492   -2.2867    6.0573 H         1 <0>         0.0603
     67 H14        -1.9345   -4.5631    5.6296 H         1 <0>         0.0605
     68 H15        -1.1261   -4.5795    4.0439 H         1 <0>         0.0605
     69 H16         1.0715   -4.3142    5.1614 H         1 <0>         0.0606
     70 H17         0.2630   -4.2977    6.7472 H         1 <0>         0.0604
     71 H18        -0.6222   -6.5741    6.3195 H         1 <0>         0.0612
     72 H19         0.1862   -6.5906    4.7338 H         1 <0>         0.0613
     73 H20         2.3837   -6.3252    5.8513 H         1 <0>         0.0628
     74 H21         1.5753   -6.3088    7.4371 H         1 <0>         0.0616
     75 H22         0.6901   -8.5852    7.0094 H         1 <0>         0.0663
     76 H23         1.4985   -8.6016    5.4237 H         1 <0>         0.0669
     77 H24         3.6960   -8.3363    6.5412 H         1 <0>         0.1096
     78 H25         2.8876   -8.3198    8.1270 H         1 <0>         0.0925
     79 H26         7.2181   -8.2777    8.3562 H         1 <0>         0.1095
     80 H27         6.4055   -8.2681    9.9398 H         1 <0>         0.0922
     81 H28         8.6043   -8.4649   11.0692 H         1 <0>         0.0665
     82 H29         9.4168   -8.4745    9.4855 H         1 <0>         0.0669
     83 H30         8.4919   -6.2262    8.9973 H         1 <0>         0.0626
     84 H31         7.6793   -6.2166   10.5810 H         1 <0>         0.0614
     85 H32         9.8781   -6.4133   11.7103 H         1 <0>         0.0613
     86 H33        10.6906   -6.4229   10.1266 H         1 <0>         0.0613
     87 H34         9.7657   -4.1747    9.6384 H         1 <0>         0.0605
     88 H35         8.9531   -4.1651   11.2221 H         1 <0>         0.0603
     89 H36        11.1519   -4.3618   12.3514 H         1 <0>         0.0606
     90 H37        11.9644   -4.3714   10.7677 H         1 <0>         0.0606
     91 H38        11.0395   -2.1231   10.2795 H         1 <0>         0.0603
     92 H39        10.2269   -2.1135   11.8632 H         1 <0>         0.0603
     93 H40        12.4257   -2.3102   12.9925 H         1 <0>         0.0605
     94 H41        13.2382   -2.3198   11.4088 H         1 <0>         0.0605
     95 H42        12.3133   -0.0716   10.9206 H         1 <0>         0.0604
     96 H43        11.5007   -0.0620   12.5043 H         1 <0>         0.0604
     97 H44        13.6995   -0.2587   13.6336 H         1 <0>         0.0603
     98 H45        14.5120   -0.2683   12.0499 H         1 <0>         0.0603
     99 H46        13.5871    1.9800   11.5617 H         1 <0>         0.0533
    100 H47        12.7745    1.9896   13.1454 H         1 <0>         0.0533
    101 H48        14.5523    1.9972   13.0572 H         1 <0>         0.0535
    102 H49         7.9546  -13.0683    8.7776 H         1 <0>         0.3946
    103 H50         5.6433  -16.0905    6.9558 H         1 <0>         0.0927
    104 H51         5.4116  -14.5036    6.1772 H         1 <0>         0.0861
    105 H52         4.1923  -14.5841   10.8238 H         1 <0>         0.1240
    106 H53         5.3457  -15.3477   12.8555 H         1 <0>         0.1276
    107 H54         8.8199  -16.2419   10.5437 H         1 <0>         0.1342
    108 H55         7.6834  -17.2042   13.1381 H         1 <0>         0.3923
    109 H56         8.0478  -17.2111    6.3993 H         1 <0>         0.1328
    110 H57         9.1962  -17.8618    4.3217 H         1 <0>         0.1327
    111 H58         9.2642  -13.7709    3.0869 H         1 <0>         0.1329
    112 H59         8.1073  -13.1296    5.1628 H         1 <0>         0.1261
    113 H60         9.3396  -16.4251    1.6942 H         1 <0>         0.3937
    114 H61         3.0906  -13.2309    6.2761 H         1 <0>         0.4039
    115 H62         4.6559   -8.4363    9.0215 H         1 <0>         0.4055
@<TRIPOS>BOND
     1    1    2 1
     2    1   56 1
     3    1   57 1
     4    1   58 1
     5    2    3 1
     6    2   59 1
     7    2   60 1
     8    3    4 1
     9    3   61 1
    10    3   62 1
    11    4    5 1
    12    4   63 1
    13    4   64 1
    14    5    6 1
    15    5   65 1
    16    5   66 1
    17    6    7 1
    18    6   67 1
    19    6   68 1
    20    7    8 1
    21    7   69 1
    22    7   70 1
    23    8    9 1
    24    8   71 1
    25    8   72 1
    26    9   10 1
    27    9   73 1
    28    9   74 1
    29   10   11 1
    30   10   75 1
    31   10   76 1
    32   11   12 1
    33   11   77 1
    34   11   78 1
    35   12   13 2
    36   12   14 1
    37   14   19 ar
    38   14   15 ar
    39   15   16 ar
    40   15   55 1
    41   16   17 ar
    42   16   35 1
    43   17   18 ar
    44   17   34 1
    45   18   19 ar
    46   18   21 1
    47   19   20 1
    48   20  115 1
    49   21   22 2
    50   21   23 1
    51   23   24 1
    52   23   79 1
    53   23   80 1
    54   24   25 1
    55   24   81 1
    56   24   82 1
    57   25   26 1
    58   25   83 1
    59   25   84 1
    60   26   27 1
    61   26   85 1
    62   26   86 1
    63   27   28 1
    64   27   87 1
    65   27   88 1
    66   28   29 1
    67   28   89 1
    68   28   90 1
    69   29   30 1
    70   29   91 1
    71   29   92 1
    72   30   31 1
    73   30   93 1
    74   30   94 1
    75   31   32 1
    76   31   95 1
    77   31   96 1
    78   32   33 1
    79   32   97 1
    80   32   98 1
    81   33   99 1
    82   33  100 1
    83   33  101 1
    84   34  102 1
    85   35   36 1
    86   35   42 1
    87   35   37 1
    88   37   38 1
    89   37  103 1
    90   37  104 1
    91   38   39 1
    92   38   40 1
    93   38   48 1
    94   40   41 1
    95   41   46 ar
    96   41   42 ar
    97   42   43 ar
    98   43   44 ar
    99   43  105 1
   100   44   45 ar
   101   44  106 1
   102   45   46 ar
   103   45   47 1
   104   46  107 1
   105   47  108 1
   106   48   53 ar
   107   48   49 ar
   108   49   50 ar
   109   49  109 1
   110   50   51 ar
   111   50  110 1
   112   51   52 ar
   113   51   54 1
   114   52   53 ar
   115   52  111 1
   116   53  112 1
   117   54  113 1
   118   55  114 1
@<TRIPOS>MOLECULE
ZINC49823270
  113   116     0     0     0
SMALL
USER_CHARGES

@<TRIPOS>ATOM
      1 C1         -2.1791    1.4940   -6.0727 C.3       1 <0>        -0.1530
      2 C2         -2.1600   -0.0358   -6.0743 C.3       1 <0>        -0.1259
      3 C3         -3.2722   -0.5607   -5.1640 C.3       1 <0>        -0.1212
      4 C4         -3.2531   -2.0905   -5.1656 C.3       1 <0>        -0.1205
      5 C5         -4.3653   -2.6154   -4.2553 C.3       1 <0>        -0.1205
      6 C6         -4.3462   -4.1452   -4.2569 C.3       1 <0>        -0.1195
      7 C7         -5.4584   -4.6701   -3.3466 C.3       1 <0>        -0.1200
      8 C8         -5.4393   -6.1999   -3.3482 C.3       1 <0>        -0.1178
      9 C9         -6.5515   -6.7248   -2.4379 C.3       1 <0>        -0.1162
     10 C10        -6.5324   -8.2546   -2.4395 C.3       1 <0>        -0.1104
     11 C11        -7.6446   -8.7794   -1.5292 C.3       1 <0>        -0.1275
     12 C12        -7.6258  -10.2863   -1.5307 C.2       1 <0>         0.4087
     13 O1         -6.8032  -10.8823   -2.1950 O.2       1 <0>        -0.5473
     14 C13        -8.5984  -11.0303   -0.7321 C.ar      1 <0>        -0.4400
     15 C14        -8.5793  -12.4397   -0.7272 C.ar      1 <0>         0.2512
     16 C15        -9.4989  -13.1463    0.0285 C.ar      1 <0>        -0.3452
     17 C16       -10.4458  -12.4783    0.7865 C.ar      1 <0>         0.3672
     18 C17       -10.4823  -11.0696    0.7951 C.ar      1 <0>        -0.4644
     19 C18        -9.5506  -10.3436    0.0367 C.ar      1 <0>         0.3758
     20 O2         -9.5736   -8.9910    0.0430 O.3       1 <0>        -0.7088
     21 C19       -11.4836  -10.3668    1.5954 C.2       1 <0>         0.4048
     22 O3        -12.2853  -10.9966    2.2540 O.2       1 <0>        -0.5160
     23 C20       -11.5204   -8.8602    1.6027 C.3       1 <0>        -0.1274
     24 C21       -12.6533   -8.3821    2.5130 C.3       1 <0>        -0.1111
     25 C22       -12.6907   -6.8526    2.5204 C.3       1 <0>        -0.1143
     26 C23       -13.8236   -6.3745    3.4308 C.3       1 <0>        -0.1187
     27 C24       -13.8609   -4.8450    3.4382 C.3       1 <0>        -0.1190
     28 C25       -14.9939   -4.3669    4.3485 C.3       1 <0>        -0.1200
     29 C26       -15.0312   -2.8373    4.3559 C.3       1 <0>        -0.1200
     30 C27       -16.1642   -2.3592    5.2663 C.3       1 <0>        -0.1208
     31 C28       -16.2015   -0.8297    5.2737 C.3       1 <0>        -0.1209
     32 C29       -17.3345   -0.3516    6.1840 C.3       1 <0>        -0.1261
     33 C30       -17.3718    1.1779    6.1914 C.3       1 <0>        -0.1528
     34 O4        -11.3400  -13.1810    1.5216 O.3       1 <0>        -0.6574
     35 C31        -9.4696  -14.6530    0.0260 C.3       1 <0>         0.0385
     36 H1         -8.9570  -15.0043   -0.8695 H         1 <0>         0.0696
     37 C32        -8.7247  -15.1500    1.2673 C.3       1 <0>        -0.1280
     38 C33        -9.6128  -14.9028    2.4934 C.3       1 <0>         0.1152
     39 H2         -9.8953  -13.8509    2.5361 H         1 <0>         0.1410
     40 O5        -10.7841  -15.7109    2.3709 O.3       1 <0>        -0.3121
     41 C34       -11.4596  -15.6750    1.1927 C.ar      1 <0>         0.2161
     42 C35       -10.8815  -15.1823    0.0360 C.ar      1 <0>        -0.0862
     43 C36       -11.6056  -15.1688   -1.1447 C.ar      1 <0>        -0.0764
     44 C37       -12.9023  -15.6415   -1.1743 C.ar      1 <0>        -0.1905
     45 C38       -13.4863  -16.1335   -0.0158 C.ar      1 <0>         0.1081
     46 C39       -12.7657  -16.1499    1.1637 C.ar      1 <0>        -0.1897
     47 O6        -14.7632  -16.5980   -0.0410 O.3       1 <0>        -0.5003
     48 C40        -8.8646  -15.2786    3.7464 C.ar      1 <0>        -0.0652
     49 C41        -8.7700  -16.6059    4.1218 C.ar      1 <0>        -0.0864
     50 C42        -8.0851  -16.9530    5.2702 C.ar      1 <0>        -0.1512
     51 C43        -7.4915  -15.9685    6.0468 C.ar      1 <0>         0.0851
     52 C44        -7.5875  -14.6374    5.6677 C.ar      1 <0>        -0.1442
     53 C45        -8.2691  -14.2960    4.5156 C.ar      1 <0>        -0.0852
     54 O7         -6.8175  -16.3073    7.1772 O.3       1 <0>        -0.5028
     55 O8         -7.6585  -13.1046   -1.4646 O.3       1 <0>        -0.4991
     56 H3         -1.3867    1.8679   -6.7212 H         1 <0>         0.0509
     57 H4         -3.1439    1.8457   -6.4381 H         1 <0>         0.0528
     58 H5         -2.0202    1.8584   -5.0578 H         1 <0>         0.0528
     59 H6         -2.3189   -0.4002   -7.0892 H         1 <0>         0.0597
     60 H7         -1.1952   -0.3875   -5.7089 H         1 <0>         0.0597
     61 H8         -3.1133   -0.1963   -4.1491 H         1 <0>         0.0602
     62 H9         -4.2370   -0.2090   -5.5294 H         1 <0>         0.0603
     63 H10        -3.4120   -2.4549   -6.1805 H         1 <0>         0.0597
     64 H11        -2.2883   -2.4422   -4.8002 H         1 <0>         0.0596
     65 H12        -4.2064   -2.2510   -3.2404 H         1 <0>         0.0599
     66 H13        -5.3301   -2.2637   -4.6207 H         1 <0>         0.0600
     67 H14        -4.5051   -4.5096   -5.2718 H         1 <0>         0.0588
     68 H15        -3.3814   -4.4969   -3.8915 H         1 <0>         0.0587
     69 H16        -5.2995   -4.3057   -2.3317 H         1 <0>         0.0593
     70 H17        -6.4232   -4.3184   -3.7120 H         1 <0>         0.0594
     71 H18        -5.5982   -6.5643   -4.3631 H         1 <0>         0.0567
     72 H19        -4.4745   -6.5516   -2.9828 H         1 <0>         0.0565
     73 H20        -6.3926   -6.3604   -1.4230 H         1 <0>         0.0573
     74 H21        -7.5163   -6.3731   -2.8033 H         1 <0>         0.0575
     75 H22        -6.6913   -8.6190   -3.4544 H         1 <0>         0.0509
     76 H23        -5.5676   -8.6063   -2.0741 H         1 <0>         0.0503
     77 H24        -7.4857   -8.4151   -0.5143 H         1 <0>         0.0875
     78 H25        -8.6095   -8.4278   -1.8946 H         1 <0>         0.0876
     79 H26       -10.5700   -8.4754    1.9727 H         1 <0>         0.0809
     80 H27       -11.6901   -8.4960    0.5895 H         1 <0>         0.0801
     81 H28       -13.6037   -8.7670    2.1431 H         1 <0>         0.0504
     82 H29       -12.4836   -8.7463    3.5263 H         1 <0>         0.0502
     83 H30       -11.7403   -6.4678    2.8904 H         1 <0>         0.0555
     84 H31       -12.8604   -6.4884    1.5072 H         1 <0>         0.0556
     85 H32       -14.7739   -6.7593    3.0608 H         1 <0>         0.0569
     86 H33       -13.6539   -6.7387    4.4440 H         1 <0>         0.0568
     87 H34       -12.9106   -4.4601    3.8082 H         1 <0>         0.0586
     88 H35       -14.0307   -4.4807    2.4250 H         1 <0>         0.0587
     89 H36       -15.9442   -4.7517    3.9785 H         1 <0>         0.0591
     90 H37       -14.8241   -4.7311    5.3617 H         1 <0>         0.0590
     91 H38       -14.0809   -2.4525    4.7259 H         1 <0>         0.0595
     92 H39       -15.2010   -2.4731    3.3427 H         1 <0>         0.0596
     93 H40       -17.1145   -2.7441    4.8963 H         1 <0>         0.0598
     94 H41       -15.9944   -2.7234    6.2795 H         1 <0>         0.0598
     95 H42       -15.2512   -0.4449    5.6436 H         1 <0>         0.0600
     96 H43       -16.3713   -0.4655    4.2604 H         1 <0>         0.0601
     97 H44       -18.2848   -0.7364    5.8140 H         1 <0>         0.0598
     98 H45       -17.1647   -0.7158    7.1972 H         1 <0>         0.0598
     99 H46       -18.1789    1.5185    6.8399 H         1 <0>         0.0508
    100 H47       -16.4215    1.5628    6.5614 H         1 <0>         0.0526
    101 H48       -17.5415    1.5422    5.1782 H         1 <0>         0.0527
    102 H49        -8.5203  -16.2164    1.1708 H         1 <0>         0.0498
    103 H50        -7.7875  -14.6042    1.3765 H         1 <0>         0.0687
    104 H51       -11.1532  -14.7857   -2.0474 H         1 <0>         0.1147
    105 H52       -13.4614  -15.6287   -2.0982 H         1 <0>         0.1102
    106 H53       -13.2198  -16.5327    2.0657 H         1 <0>         0.1157
    107 H54       -14.8348  -17.5412   -0.2416 H         1 <0>         0.3713
    108 H55        -9.2323  -17.3720    3.5170 H         1 <0>         0.1269
    109 H56        -8.0121  -17.9899    5.5634 H         1 <0>         0.1212
    110 H57        -7.1263  -13.8692    6.2705 H         1 <0>         0.1253
    111 H58        -8.3404  -13.2604    4.2177 H         1 <0>         0.1332
    112 H59        -5.8775  -16.4853    7.0363 H         1 <0>         0.3814
    113 H60        -6.8345  -13.2878   -0.9928 H         1 <0>         0.3678
@<TRIPOS>BOND
     1    1    2 1
     2    1   56 1
     3    1   57 1
     4    1   58 1
     5    2    3 1
     6    2   59 1
     7    2   60 1
     8    3    4 1
     9    3   61 1
    10    3   62 1
    11    4    5 1
    12    4   63 1
    13    4   64 1
    14    5    6 1
    15    5   65 1
    16    5   66 1
    17    6    7 1
    18    6   67 1
    19    6   68 1
    20    7    8 1
    21    7   69 1
    22    7   70 1
    23    8    9 1
    24    8   71 1
    25    8   72 1
    26    9   10 1
    27    9   73 1
    28    9   74 1
    29   10   11 1
    30   10   75 1
    31   10   76 1
    32   11   12 1
    33   11   77 1
    34   11   78 1
    35   12   13 2
    36   12   14 1
    37   14   19 ar
    38   14   15 ar
    39   15   16 ar
    40   15   55 1
    41   16   17 ar
    42   16   35 1
    43   17   18 ar
    44   17   34 1
    45   18   19 ar
    46   18   21 1
    47   19   20 1
    48   21   22 2
    49   21   23 1
    50   23   24 1
    51   23   79 1
    52   23   80 1
    53   24   25 1
    54   24   81 1
    55   24   82 1
    56   25   26 1
    57   25   83 1
    58   25   84 1
    59   26   27 1
    60   26   85 1
    61   26   86 1
    62   27   28 1
    63   27   87 1
    64   27   88 1
    65   28   29 1
    66   28   89 1
    67   28   90 1
    68   29   30 1
    69   29   91 1
    70   29   92 1
    71   30   31 1
    72   30   93 1
    73   30   94 1
    74   31   32 1
    75   31   95 1
    76   31   96 1
    77   32   33 1
    78   32   97 1
    79   32   98 1
    80   33   99 1
    81   33  100 1
    82   33  101 1
    83   35   36 1
    84   35   42 1
    85   35   37 1
    86   37   38 1
    87   37  102 1
    88   37  103 1
    89   38   39 1
    90   38   40 1
    91   38   48 1
    92   40   41 1
    93   41   46 ar
    94   41   42 ar
    95   42   43 ar
    96   43   44 ar
    97   43  104 1
    98   44   45 ar
    99   44  105 1
   100   45   46 ar
   101   45   47 1
   102   46  106 1
   103   47  107 1
   104   48   53 ar
   105   48   49 ar
   106   49   50 ar
   107   49  108 1
   108   50   51 ar
   109   50  109 1
   110   51   52 ar
   111   51   54 1
   112   52   53 ar
   113   52  110 1
   114   53  111 1
   115   54  112 1
   116   55  113 1
@<TRIPOS>MOLECULE
ZINC49823270
  114   117     0     0     0
SMALL
USER_CHARGES

@<TRIPOS>ATOM
      1 C1         -4.2052    1.4061    4.9229 C.3       1 <0>        -0.1537
      2 C2         -4.1777   -0.1236    4.9125 C.3       1 <0>        -0.1261
      3 C3         -2.8206   -0.6128    5.4224 C.3       1 <0>        -0.1211
      4 C4         -2.7930   -2.1425    5.4120 C.3       1 <0>        -0.1211
      5 C5         -1.4360   -2.6316    5.9220 C.3       1 <0>        -0.1203
      6 C6         -1.4084   -4.1613    5.9116 C.3       1 <0>        -0.1207
      7 C7         -0.0514   -4.6504    6.4215 C.3       1 <0>        -0.1196
      8 C8         -0.0238   -6.1802    6.4111 C.3       1 <0>        -0.1200
      9 C9          1.3332   -6.6693    6.9211 C.3       1 <0>        -0.1179
     10 C10         1.3608   -8.1990    6.9107 C.3       1 <0>        -0.1111
     11 C11         2.7178   -8.6881    7.4206 C.3       1 <0>        -0.1515
     12 C12         2.7449  -10.1949    7.4104 C.2       1 <0>         0.4044
     13 O1          1.7737  -10.8167    7.0321 O.2       1 <0>        -0.4844
     14 C13         3.9411  -10.9074    7.8560 C.ar      1 <0>        -0.3645
     15 C14         3.9711  -12.3166    7.8419 C.ar      1 <0>         0.2352
     16 C15         5.1028  -12.9936    8.2630 C.ar      1 <0>        -0.2638
     17 C16         6.2155  -12.2959    8.7018 C.ar      1 <0>         0.3474
     18 C17         6.2058  -10.8869    8.7242 C.ar      1 <0>        -0.3515
     19 C18         5.0654  -10.1907    8.2939 C.ar      1 <0>         0.2545
     20 O2          5.0484   -8.8381    8.3059 O.3       1 <0>        -0.4964
     21 C19         7.3815  -10.1527    9.1887 C.2       1 <0>         0.3926
     22 O3          8.3681  -10.7566    9.5560 O.2       1 <0>        -0.4473
     23 C20         7.3683   -8.6459    9.2117 C.3       1 <0>        -0.1508
     24 C21         8.7107   -8.1321    9.7361 C.3       1 <0>        -0.1122
     25 C22         8.6973   -6.6023    9.7593 C.3       1 <0>        -0.1160
     26 C23        10.0397   -6.0885   10.2837 C.3       1 <0>        -0.1209
     27 C24        10.0264   -4.5588   10.3070 C.3       1 <0>        -0.1187
     28 C25        11.3687   -4.0450   10.8314 C.3       1 <0>        -0.1211
     29 C26        11.3554   -2.5152   10.8547 C.3       1 <0>        -0.1198
     30 C27        12.6977   -2.0014   11.3791 C.3       1 <0>        -0.1214
     31 C28        12.6844   -0.4716   11.4023 C.3       1 <0>        -0.1208
     32 C29        14.0268    0.0422   11.9267 C.3       1 <0>        -0.1263
     33 C30        14.0134    1.5719   11.9500 C.3       1 <0>        -0.1535
     34 O4          7.3164  -12.9698    9.1111 O.3       1 <0>        -0.6021
     35 C31         5.1238  -14.5003    8.2441 C.3       1 <0>         0.0271
     36 H1          4.1011  -14.8774    8.2491 H         1 <0>         0.0843
     37 C32         5.8388  -14.9840    6.9801 C.3       1 <0>        -0.1331
     38 C33         7.3380  -14.6984    7.1354 C.3       1 <0>         0.1213
     39 H2          7.4897  -13.6416    7.3551 H         1 <0>         0.1278
     40 O5          7.8375  -15.4905    8.2139 O.3       1 <0>        -0.3072
     41 C34         7.1541  -15.4676    9.3878 C.ar      1 <0>         0.2142
     42 C35         5.8513  -15.0073    9.4638 C.ar      1 <0>        -0.1123
     43 C36         5.1905  -15.0060   10.6811 C.ar      1 <0>        -0.0721
     44 C37         5.8247  -15.4590   11.8205 C.ar      1 <0>        -0.1899
     45 C38         7.1320  -15.9186   11.7489 C.ar      1 <0>         0.1231
     46 C39         7.7935  -15.9226   10.5352 C.ar      1 <0>        -0.1866
     47 O6          7.7599  -16.3635   12.8689 O.3       1 <0>        -0.4996
     48 C40         8.0584  -15.0607    5.8623 C.ar      1 <0>        -0.0772
     49 C41         8.3695  -16.3816    5.5973 C.ar      1 <0>        -0.0824
     50 C42         9.0302  -16.7163    4.4312 C.ar      1 <0>        -0.1485
     51 C43         9.3812  -15.7258    3.5255 C.ar      1 <0>         0.0955
     52 C44         9.0675  -14.4012    3.7935 C.ar      1 <0>        -0.1447
     53 C45         8.4021  -14.0724    4.9586 C.ar      1 <0>        -0.0870
     54 O7         10.0316  -16.0524    2.3778 O.3       1 <0>        -0.5012
     55 O8          2.8892  -13.0104    7.4155 O.3       1 <0>        -0.4858
     56 H3         -3.4150    1.7881    4.2766 H         1 <0>         0.0531
     57 H4         -5.1720    1.7545    4.5596 H         1 <0>         0.0524
     58 H5         -4.0482    1.7654    5.9399 H         1 <0>         0.0531
     59 H6         -4.9679   -0.5057    5.5588 H         1 <0>         0.0601
     60 H7         -4.3346   -0.4829    3.8954 H         1 <0>         0.0600
     61 H8         -2.0304   -0.2307    4.7761 H         1 <0>         0.0604
     62 H9         -2.6636   -0.2535    6.4395 H         1 <0>         0.0603
     63 H10        -3.5833   -2.5245    6.0583 H         1 <0>         0.0602
     64 H11        -2.9500   -2.5018    4.3950 H         1 <0>         0.0602
     65 H12        -0.6458   -2.2496    5.2757 H         1 <0>         0.0601
     66 H13        -1.2790   -2.2723    6.9390 H         1 <0>         0.0601
     67 H14        -2.1987   -4.5434    6.5579 H         1 <0>         0.0599
     68 H15        -1.5654   -4.5206    4.8945 H         1 <0>         0.0599
     69 H16         0.7388   -4.2684    5.7752 H         1 <0>         0.0600
     70 H17         0.1056   -4.2911    7.4386 H         1 <0>         0.0598
     71 H18        -0.8141   -6.5622    7.0574 H         1 <0>         0.0597
     72 H19        -0.1808   -6.5395    5.3941 H         1 <0>         0.0598
     73 H20         2.1234   -6.2873    6.2748 H         1 <0>         0.0605
     74 H21         1.4902   -6.3100    7.9381 H         1 <0>         0.0593
     75 H22         0.5705   -8.5810    7.5570 H         1 <0>         0.0613
     76 H23         1.2038   -8.5583    5.8936 H         1 <0>         0.0619
     77 H24         3.5080   -8.3061    6.7743 H         1 <0>         0.0993
     78 H25         2.8748   -8.3288    8.4377 H         1 <0>         0.0827
     79 H26         7.2041   -8.2686    8.2023 H         1 <0>         0.0947
     80 H27         6.5667   -8.2994    9.8640 H         1 <0>         0.0776
     81 H28         8.8749   -8.5094   10.7454 H         1 <0>         0.0612
     82 H29         9.5123   -8.4786    9.0838 H         1 <0>         0.0622
     83 H30         8.5331   -6.2250    8.7500 H         1 <0>         0.0593
     84 H31         7.8958   -6.2559   10.4116 H         1 <0>         0.0580
     85 H32        10.2039   -6.4658   11.2931 H         1 <0>         0.0600
     86 H33        10.8413   -6.4350    9.6314 H         1 <0>         0.0601
     87 H34         9.8621   -4.1815    9.2977 H         1 <0>         0.0594
     88 H35         9.2248   -4.2123   10.9593 H         1 <0>         0.0592
     89 H36        11.5330   -4.4223   11.8407 H         1 <0>         0.0601
     90 H37        12.1703   -4.3915   10.1791 H         1 <0>         0.0602
     91 H38        11.1912   -2.1379    9.8453 H         1 <0>         0.0598
     92 H39        10.5538   -2.1687   11.5070 H         1 <0>         0.0598
     93 H40        12.8620   -2.3787   12.3884 H         1 <0>         0.0603
     94 H41        13.4993   -2.3479   10.7268 H         1 <0>         0.0603
     95 H42        12.5202   -0.0943   10.3930 H         1 <0>         0.0602
     96 H43        11.8828   -0.1252   12.0547 H         1 <0>         0.0602
     97 H44        14.1910   -0.3352   12.9361 H         1 <0>         0.0601
     98 H45        14.8284   -0.3043   11.2744 H         1 <0>         0.0601
     99 H46        13.8492    1.9492   10.9407 H         1 <0>         0.0529
    100 H47        13.2119    1.9184   12.6023 H         1 <0>         0.0529
    101 H48        14.9698    1.9380   12.3236 H         1 <0>         0.0523
    102 H49         5.6798  -16.0550    6.8551 H         1 <0>         0.0650
    103 H50         5.4512  -14.4507    6.1120 H         1 <0>         0.0730
    104 H51         4.1732  -14.6482   10.7393 H         1 <0>         0.1167
    105 H52         5.3038  -15.4560   12.7666 H         1 <0>         0.1162
    106 H53         8.8110  -16.2802   10.4788 H         1 <0>         0.1222
    107 H54         7.6457  -17.3093   13.0345 H         1 <0>         0.3799
    108 H55         8.0960  -17.1523    6.3028 H         1 <0>         0.1286
    109 H56         9.2736  -17.7481    4.2250 H         1 <0>         0.1255
    110 H57         9.3397  -13.6284    3.0900 H         1 <0>         0.1274
    111 H58         8.1538  -13.0419    5.1656 H         1 <0>         0.1286
    112 H59         9.4444  -16.2478    1.6348 H         1 <0>         0.3859
    113 H60         2.8906  -13.1969    6.4666 H         1 <0>         0.3837
    114 H61         4.7292   -8.4562    9.1350 H         1 <0>         0.3872
@<TRIPOS>BOND
     1    1    2 1
     2    1   56 1
     3    1   57 1
     4    1   58 1
     5    2    3 1
     6    2   59 1
     7    2   60 1
     8    3    4 1
     9    3   61 1
    10    3   62 1
    11    4    5 1
    12    4   63 1
    13    4   64 1
    14    5    6 1
    15    5   65 1
    16    5   66 1
    17    6    7 1
    18    6   67 1
    19    6   68 1
    20    7    8 1
    21    7   69 1
    22    7   70 1
    23    8    9 1
    24    8   71 1
    25    8   72 1
    26    9   10 1
    27    9   73 1
    28    9   74 1
    29   10   11 1
    30   10   75 1
    31   10   76 1
    32   11   12 1
    33   11   77 1
    34   11   78 1
    35   12   13 2
    36   12   14 1
    37   14   19 ar
    38   14   15 ar
    39   15   16 ar
    40   15   55 1
    41   16   17 ar
    42   16   35 1
    43   17   18 ar
    44   17   34 1
    45   18   19 ar
    46   18   21 1
    47   19   20 1
    48   20  114 1
    49   21   22 2
    50   21   23 1
    51   23   24 1
    52   23   79 1
    53   23   80 1
    54   24   25 1
    55   24   81 1
    56   24   82 1
    57   25   26 1
    58   25   83 1
    59   25   84 1
    60   26   27 1
    61   26   85 1
    62   26   86 1
    63   27   28 1
    64   27   87 1
    65   27   88 1
    66   28   29 1
    67   28   89 1
    68   28   90 1
    69   29   30 1
    70   29   91 1
    71   29   92 1
    72   30   31 1
    73   30   93 1
    74   30   94 1
    75   31   32 1
    76   31   95 1
    77   31   96 1
    78   32   33 1
    79   32   97 1
    80   32   98 1
    81   33   99 1
    82   33  100 1
    83   33  101 1
    84   35   36 1
    85   35   42 1
    86   35   37 1
    87   37   38 1
    88   37  102 1
    89   37  103 1
    90   38   39 1
    91   38   40 1
    92   38   48 1
    93   40   41 1
    94   41   46 ar
    95   41   42 ar
    96   42   43 ar
    97   43   44 ar
    98   43  104 1
    99   44   45 ar
   100   44  105 1
   101   45   46 ar
   102   45   47 1
   103   46  106 1
   104   47  107 1
   105   48   53 ar
   106   48   49 ar
   107   49   50 ar
   108   49  108 1
   109   50   51 ar
   110   50  109 1
   111   51   52 ar
   112   51   54 1
   113   52   53 ar
   114   52  110 1
   115   53  111 1
   116   54  112 1
   117   55  113 1
@<TRIPOS>MOLECULE
ZINC49823271
  114   117     0     0     0
SMALL
USER_CHARGES

@<TRIPOS>ATOM
      1 C1         -0.6020    1.5075    3.3827 C.3       1 <0>        -0.1536
      2 C2         -0.5789   -0.0223    3.3715 C.3       1 <0>        -0.1260
      3 C3         -1.9296   -0.5492    2.8829 C.3       1 <0>        -0.1212
      4 C4         -1.9065   -2.0790    2.8717 C.3       1 <0>        -0.1208
      5 C5         -3.2573   -2.6059    2.3830 C.3       1 <0>        -0.1204
      6 C6         -3.2341   -4.1357    2.3718 C.3       1 <0>        -0.1201
      7 C7         -4.5849   -4.6626    1.8831 C.3       1 <0>        -0.1199
      8 C8         -4.5618   -6.1924    1.8719 C.3       1 <0>        -0.1188
      9 C9         -5.9125   -6.7193    1.3833 C.3       1 <0>        -0.1163
     10 C10        -5.8894   -8.2491    1.3721 C.3       1 <0>        -0.1127
     11 C11        -7.2401   -8.7760    0.8834 C.3       1 <0>        -0.1335
     12 C12        -7.2173  -10.2828    0.8724 C.2       1 <0>         0.4115
     13 O1         -6.2183  -10.8772    1.2213 O.2       1 <0>        -0.4975
     14 C13        -8.3986  -11.0285    0.4414 C.ar      1 <0>        -0.3553
     15 C14        -8.3818  -12.4378    0.4357 C.ar      1 <0>         0.2569
     16 C15        -9.4991  -13.1462    0.0275 C.ar      1 <0>        -0.2877
     17 C16       -10.6429  -12.4800   -0.3783 C.ar      1 <0>         0.2578
     18 C17       -10.6805  -11.0712   -0.3795 C.ar      1 <0>        -0.3554
     19 C18        -9.5551  -10.3436    0.0375 C.ar      1 <0>         0.3579
     20 O2         -9.5831   -8.9911    0.0452 O.3       1 <0>        -0.6530
     21 C19       -11.8894  -10.3701   -0.8085 C.2       1 <0>         0.4125
     22 O3        -12.8631  -11.0014   -1.1644 O.2       1 <0>        -0.4995
     23 C20       -11.9268   -8.8636   -0.8089 C.3       1 <0>        -0.1337
     24 C21       -13.2963   -8.3875   -1.2976 C.3       1 <0>        -0.1132
     25 C22       -13.3343   -6.8580   -1.2979 C.3       1 <0>        -0.1165
     26 C23       -14.7037   -6.3819   -1.7866 C.3       1 <0>        -0.1189
     27 C24       -14.7417   -4.8524   -1.7869 C.3       1 <0>        -0.1200
     28 C25       -16.1112   -4.3763   -2.2756 C.3       1 <0>        -0.1201
     29 C26       -16.1491   -2.8468   -2.2760 C.3       1 <0>        -0.1205
     30 C27       -17.5186   -2.3707   -2.7647 C.3       1 <0>        -0.1209
     31 C28       -17.5566   -0.8412   -2.7650 C.3       1 <0>        -0.1212
     32 C29       -18.9260   -0.3652   -3.2537 C.3       1 <0>        -0.1260
     33 C30       -18.9640    1.1644   -3.2540 C.3       1 <0>        -0.1536
     34 O4        -11.7290  -13.1844   -0.7757 O.3       1 <0>        -0.4842
     35 C31        -9.4698  -14.6530    0.0244 C.3       1 <0>         0.0209
     36 H1        -10.1277  -15.0269   -0.7602 H         1 <0>         0.0954
     37 C32        -9.9482  -15.1745    1.3816 C.3       1 <0>        -0.1364
     38 C33        -8.8555  -14.8887    2.4198 C.3       1 <0>         0.1335
     39 H2         -8.6112  -13.8265    2.4129 H         1 <0>         0.0786
     40 O5         -7.6977  -15.6511    2.0759 O.3       1 <0>        -0.3125
     41 C34        -7.2578  -15.5928    0.7920 C.ar      1 <0>         0.1603
     42 C35        -8.0617  -15.1269   -0.2334 C.ar      1 <0>        -0.1130
     43 C36        -7.5737  -15.0890   -1.5292 C.ar      1 <0>        -0.0626
     44 C37        -6.2884  -15.5111   -1.8040 C.ar      1 <0>        -0.1718
     45 C38        -5.4782  -15.9762   -0.7780 C.ar      1 <0>         0.1268
     46 C39        -5.9629  -16.0167    0.5159 C.ar      1 <0>        -0.1718
     47 O6         -4.2118  -16.3906   -1.0447 O.3       1 <0>        -0.5017
     48 C40        -9.3396  -15.2892    3.7896 C.ar      1 <0>        -0.0882
     49 C41        -9.2046  -16.5982    4.2139 C.ar      1 <0>        -0.0756
     50 C42        -9.6479  -16.9680    5.4689 C.ar      1 <0>        -0.1473
     51 C43       -10.2286  -16.0246    6.3040 C.ar      1 <0>         0.1046
     52 C44       -10.3626  -14.7117    5.8761 C.ar      1 <0>        -0.1429
     53 C45        -9.9129  -14.3459    4.6221 C.ar      1 <0>        -0.0878
     54 O7        -10.6660  -16.3859    7.5389 O.3       1 <0>        -0.5007
     55 O8         -7.2691  -13.1011    0.8303 O.3       1 <0>        -0.4739
     56 H3          0.3603    1.8828    3.7309 H         1 <0>         0.0521
     57 H4         -0.7923    1.8753    2.3745 H         1 <0>         0.0530
     58 H5         -1.3905    1.8540    4.0508 H         1 <0>         0.0530
     59 H6          0.2095   -0.3689    2.7035 H         1 <0>         0.0599
     60 H7         -0.3886   -0.3902    4.3798 H         1 <0>         0.0599
     61 H8         -2.7181   -0.2026    3.5509 H         1 <0>         0.0603
     62 H9         -2.1199   -0.1813    1.8746 H         1 <0>         0.0604
     63 H10        -1.1181   -2.4256    2.2036 H         1 <0>         0.0600
     64 H11        -1.7162   -2.4469    3.8799 H         1 <0>         0.0599
     65 H12        -4.0457   -2.2593    3.0511 H         1 <0>         0.0601
     66 H13        -3.4476   -2.2380    1.3748 H         1 <0>         0.0602
     67 H14        -2.4457   -4.4823    1.7037 H         1 <0>         0.0595
     68 H15        -3.0438   -4.5036    3.3800 H         1 <0>         0.0593
     69 H16        -5.3733   -4.3160    2.5512 H         1 <0>         0.0598
     70 H17        -4.7752   -4.2947    0.8749 H         1 <0>         0.0599
     71 H18        -3.7733   -6.5390    1.2039 H         1 <0>         0.0583
     72 H19        -4.3715   -6.5603    2.8802 H         1 <0>         0.0580
     73 H20        -6.7009   -6.3727    2.0514 H         1 <0>         0.0592
     74 H21        -6.1028   -6.3514    0.3750 H         1 <0>         0.0595
     75 H22        -5.1009   -8.5957    0.7040 H         1 <0>         0.0560
     76 H23        -5.6991   -8.6170    2.3803 H         1 <0>         0.0553
     77 H24        -8.0286   -8.4294    1.5515 H         1 <0>         0.0961
     78 H25        -7.4304   -8.4081   -0.1248 H         1 <0>         0.0963
     79 H26       -11.7539   -8.4956    0.2025 H         1 <0>         0.0967
     80 H27       -11.1512   -8.4810   -1.4723 H         1 <0>         0.0963
     81 H28       -13.4693   -8.7555   -2.3089 H         1 <0>         0.0562
     82 H29       -14.0720   -8.7700   -0.6341 H         1 <0>         0.0556
     83 H30       -13.1613   -6.4900   -0.2866 H         1 <0>         0.0593
     84 H31       -12.5586   -6.4754   -1.9613 H         1 <0>         0.0595
     85 H32       -14.8767   -6.7499   -2.7979 H         1 <0>         0.0584
     86 H33       -15.4794   -6.7645   -1.1232 H         1 <0>         0.0582
     87 H34       -14.5688   -4.4844   -0.7756 H         1 <0>         0.0598
     88 H35       -13.9661   -4.4698   -2.4504 H         1 <0>         0.0599
     89 H36       -16.2841   -4.7443   -3.2870 H         1 <0>         0.0595
     90 H37       -16.8868   -4.7589   -1.6122 H         1 <0>         0.0594
     91 H38       -15.9762   -2.4788   -1.2646 H         1 <0>         0.0601
     92 H39       -15.3735   -2.4643   -2.9394 H         1 <0>         0.0601
     93 H40       -17.6916   -2.7387   -3.7760 H         1 <0>         0.0600
     94 H41       -18.2943   -2.7533   -2.1012 H         1 <0>         0.0599
     95 H42       -17.3836   -0.4732   -1.7537 H         1 <0>         0.0603
     96 H43       -16.7809   -0.4587   -3.4284 H         1 <0>         0.0604
     97 H44       -19.0990   -0.7331   -4.2650 H         1 <0>         0.0599
     98 H45       -19.7017   -0.7477   -2.5903 H         1 <0>         0.0599
     99 H46       -19.9396    1.5035   -3.6022 H         1 <0>         0.0520
    100 H47       -18.7911    1.5323   -2.2427 H         1 <0>         0.0530
    101 H48       -18.1884    1.5469   -3.9175 H         1 <0>         0.0530
    102 H49       -12.3437  -13.3965   -0.0600 H         1 <0>         0.3865
    103 H50       -10.8686  -14.6652    1.6672 H         1 <0>         0.0823
    104 H51       -10.1255  -16.2482    1.3209 H         1 <0>         0.0775
    105 H52        -8.2026  -14.7276   -2.3293 H         1 <0>         0.1230
    106 H53        -5.9137  -15.4789   -2.8164 H         1 <0>         0.1220
    107 H54        -5.3328  -16.3785    1.3149 H         1 <0>         0.1280
    108 H55        -3.5478  -15.6901   -0.9848 H         1 <0>         0.3889
    109 H56        -8.7524  -17.3323    3.5634 H         1 <0>         0.1326
    110 H57        -9.5428  -17.9908    5.7996 H         1 <0>         0.1286
    111 H58       -10.8144  -13.9754    6.5243 H         1 <0>         0.1309
    112 H59       -10.0130  -13.3230    4.2903 H         1 <0>         0.1307
    113 H60        -9.9985  -16.3000    8.2333 H         1 <0>         0.3896
    114 H61        -7.2449  -13.3007    1.7762 H         1 <0>         0.3758
@<TRIPOS>BOND
     1    1    2 1
     2    1   56 1
     3    1   57 1
     4    1   58 1
     5    2    3 1
     6    2   59 1
     7    2   60 1
     8    3    4 1
     9    3   61 1
    10    3   62 1
    11    4    5 1
    12    4   63 1
    13    4   64 1
    14    5    6 1
    15    5   65 1
    16    5   66 1
    17    6    7 1
    18    6   67 1
    19    6   68 1
    20    7    8 1
    21    7   69 1
    22    7   70 1
    23    8    9 1
    24    8   71 1
    25    8   72 1
    26    9   10 1
    27    9   73 1
    28    9   74 1
    29   10   11 1
    30   10   75 1
    31   10   76 1
    32   11   12 1
    33   11   77 1
    34   11   78 1
    35   12   13 2
    36   12   14 1
    37   14   19 ar
    38   14   15 ar
    39   15   16 ar
    40   15   55 1
    41   16   17 ar
    42   16   35 1
    43   17   18 ar
    44   17   34 1
    45   18   19 ar
    46   18   21 1
    47   19   20 1
    48   21   22 2
    49   21   23 1
    50   23   24 1
    51   23   79 1
    52   23   80 1
    53   24   25 1
    54   24   81 1
    55   24   82 1
    56   25   26 1
    57   25   83 1
    58   25   84 1
    59   26   27 1
    60   26   85 1
    61   26   86 1
    62   27   28 1
    63   27   87 1
    64   27   88 1
    65   28   29 1
    66   28   89 1
    67   28   90 1
    68   29   30 1
    69   29   91 1
    70   29   92 1
    71   30   31 1
    72   30   93 1
    73   30   94 1
    74   31   32 1
    75   31   95 1
    76   31   96 1
    77   32   33 1
    78   32   97 1
    79   32   98 1
    80   33   99 1
    81   33  100 1
    82   33  101 1
    83   34  102 1
    84   35   36 1
    85   35   42 1
    86   35   37 1
    87   37   38 1
    88   37  103 1
    89   37  104 1
    90   38   39 1
    91   38   40 1
    92   38   48 1
    93   40   41 1
    94   41   46 ar
    95   41   42 ar
    96   42   43 ar
    97   43   44 ar
    98   43  105 1
    99   44   45 ar
   100   44  106 1
   101   45   46 ar
   102   45   47 1
   103   46  107 1
   104   47  108 1
   105   48   53 ar
   106   48   49 ar
   107   49   50 ar
   108   49  109 1
   109   50   51 ar
   110   50  110 1
   111   51   52 ar
   112   51   54 1
   113   52   53 ar
   114   52  111 1
   115   53  112 1
   116   54  113 1
   117   55  114 1
@<TRIPOS>MOLECULE
ZINC49823271
  115   118     0     0     0
SMALL
USER_CHARGES

@<TRIPOS>ATOM
      1 C1          3.1931    1.5840   -1.1703 C.3       1 <0>        -0.1543
      2 C2          3.2103    0.0541   -1.1794 C.3       1 <0>        -0.1262
      3 C3          3.4754   -0.4614    0.2366 C.3       1 <0>        -0.1211
      4 C4          3.4925   -1.9912    0.2275 C.3       1 <0>        -0.1214
      5 C5          3.7577   -2.5067    1.6435 C.3       1 <0>        -0.1203
      6 C6          3.7748   -4.0366    1.6344 C.3       1 <0>        -0.1212
      7 C7          4.0399   -4.5520    3.0503 C.3       1 <0>        -0.1196
      8 C8          4.0571   -6.0819    3.0413 C.3       1 <0>        -0.1210
      9 C9          4.3222   -6.5974    4.4572 C.3       1 <0>        -0.1178
     10 C10         4.3394   -8.1273    4.4481 C.3       1 <0>        -0.1143
     11 C11         4.6045   -8.6427    5.8641 C.3       1 <0>        -0.1538
     12 C12         4.6214  -10.1496    5.8551 C.2       1 <0>         0.3952
     13 O1          4.4392  -10.7524    4.8176 O.2       1 <0>        -0.4334
     14 C13         4.8573  -10.8853    7.0962 C.ar      1 <0>        -0.2501
     15 C14         4.8793  -12.2945    7.0895 C.ar      1 <0>         0.2370
     16 C15         5.1020  -12.9935    8.2637 C.ar      1 <0>        -0.1730
     17 C16         5.3055  -12.3178    9.4548 C.ar      1 <0>         0.2375
     18 C17         5.2878  -10.9088    9.4830 C.ar      1 <0>        -0.2494
     19 C18         5.0682  -10.1907    8.2973 C.ar      1 <0>         0.2371
     20 O2          5.0550   -8.8380    8.3130 O.3       1 <0>        -0.4792
     21 C19         5.5030  -10.1977   10.7421 C.2       1 <0>         0.3965
     22 O3          5.6972  -10.8208   11.7654 O.2       1 <0>        -0.4351
     23 C20         5.4836   -8.6911   10.7694 C.3       1 <0>        -0.1544
     24 C21         5.7328   -8.2036   12.1980 C.3       1 <0>        -0.1146
     25 C22         5.7131   -6.6740   12.2257 C.3       1 <0>        -0.1180
     26 C23         5.9624   -6.1866   13.6544 C.3       1 <0>        -0.1212
     27 C24         5.9427   -4.6569   13.6821 C.3       1 <0>        -0.1197
     28 C25         6.1920   -4.1695   15.1108 C.3       1 <0>        -0.1212
     29 C26         6.1723   -2.6398   15.1385 C.3       1 <0>        -0.1203
     30 C27         6.4215   -2.1524   16.5672 C.3       1 <0>        -0.1214
     31 C28         6.4018   -0.6228   16.5949 C.3       1 <0>        -0.1211
     32 C29         6.6511   -0.1353   18.0236 C.3       1 <0>        -0.1262
     33 C30         6.6314    1.3943   18.0513 C.3       1 <0>        -0.1543
     34 O4          5.5219  -13.0130   10.5966 O.3       1 <0>        -0.4678
     35 C31         5.1225  -14.5003    8.2451 C.3       1 <0>         0.0044
     36 H1          4.7813  -14.8795    9.2084 H         1 <0>         0.1129
     37 C32         6.5497  -14.9870    7.9827 C.3       1 <0>        -0.1409
     38 C33         6.8955  -14.6976    6.5163 C.3       1 <0>         0.1375
     39 H2          6.7407  -13.6397    6.3045 H         1 <0>         0.0678
     40 O5          6.0383  -15.4846    5.6882 O.3       1 <0>        -0.3067
     41 C34         4.7052  -15.4589    5.9489 C.ar      1 <0>         0.1627
     42 C35         4.2075  -15.0011    7.1562 C.ar      1 <0>        -0.1380
     43 C36         2.8408  -14.9968    7.3812 C.ar      1 <0>        -0.0614
     44 C37         1.9711  -15.4442    6.4069 C.ar      1 <0>        -0.1704
     45 C38         2.4663  -15.9013    5.1940 C.ar      1 <0>         0.1424
     46 C39         3.8298  -15.9083    4.9671 C.ar      1 <0>        -0.1699
     47 O6          1.6129  -16.3407    4.2320 O.3       1 <0>        -0.4977
     48 C40         8.3334  -15.0631    6.2521 C.ar      1 <0>        -0.1008
     49 C41         8.6661  -16.3653    5.9276 C.ar      1 <0>        -0.0716
     50 C42         9.9836  -16.7030    5.6854 C.ar      1 <0>        -0.1446
     51 C43        10.9731  -15.7341    5.7676 C.ar      1 <0>         0.1148
     52 C44        10.6366  -14.4281    6.0929 C.ar      1 <0>        -0.1435
     53 C45         9.3170  -14.0944    6.3291 C.ar      1 <0>        -0.0894
     54 O7         12.2700  -16.0638    5.5302 O.3       1 <0>        -0.4991
     55 O8          4.6816  -12.9670    5.9309 O.3       1 <0>        -0.4587
     56 H3          4.1568    1.9561   -0.8227 H         1 <0>         0.0533
     57 H4          3.0042    1.9512   -2.1790 H         1 <0>         0.0535
     58 H5          2.4060    1.9345   -0.5027 H         1 <0>         0.0533
     59 H6          2.2465   -0.3180   -1.5270 H         1 <0>         0.0603
     60 H7          3.9974   -0.2965   -1.8470 H         1 <0>         0.0603
     61 H8          4.4391   -0.0893    0.5842 H         1 <0>         0.0605
     62 H9          2.6883   -0.1108    0.9042 H         1 <0>         0.0605
     63 H10         2.5288   -2.3634   -0.1201 H         1 <0>         0.0605
     64 H11         4.2796   -2.3418   -0.4401 H         1 <0>         0.0605
     65 H12         4.7214   -2.1346    1.9911 H         1 <0>         0.0603
     66 H13         2.9706   -2.1561    2.3111 H         1 <0>         0.0603
     67 H14         2.8111   -4.4087    1.2868 H         1 <0>         0.0605
     68 H15         4.5619   -4.3872    0.9668 H         1 <0>         0.0605
     69 H16         5.0037   -4.1799    3.3979 H         1 <0>         0.0606
     70 H17         3.2528   -4.2015    3.7179 H         1 <0>         0.0604
     71 H18         3.0934   -6.4540    2.6936 H         1 <0>         0.0611
     72 H19         4.8442   -6.4325    2.3737 H         1 <0>         0.0612
     73 H20         5.2860   -6.2253    4.8048 H         1 <0>         0.0627
     74 H21         3.5351   -6.2468    5.1248 H         1 <0>         0.0615
     75 H22         3.3756   -8.4994    4.1005 H         1 <0>         0.0661
     76 H23         5.1265   -8.4778    3.7805 H         1 <0>         0.0667
     77 H24         5.5682   -8.2706    6.2117 H         1 <0>         0.1093
     78 H25         3.8174   -8.2922    6.5317 H         1 <0>         0.0923
     79 H26         6.2635   -8.3057   10.1127 H         1 <0>         0.1098
     80 H27         4.5119   -8.3340   10.4280 H         1 <0>         0.0923
     81 H28         4.9529   -8.5890   12.8547 H         1 <0>         0.0663
     82 H29         6.7045   -8.5607   12.5394 H         1 <0>         0.0670
     83 H30         6.4931   -6.2887   11.5691 H         1 <0>         0.0628
     84 H31         4.7415   -6.3169   11.8843 H         1 <0>         0.0615
     85 H32         5.1824   -6.5719   14.3111 H         1 <0>         0.0613
     86 H33         6.9340   -6.5436   13.9958 H         1 <0>         0.0614
     87 H34         6.7227   -4.2716   13.0254 H         1 <0>         0.0606
     88 H35         4.9711   -4.2999   13.3407 H         1 <0>         0.0604
     89 H36         5.4120   -4.5548   15.7675 H         1 <0>         0.0605
     90 H37         7.1636   -4.5265   15.4522 H         1 <0>         0.0606
     91 H38         6.9522   -2.2545   14.4818 H         1 <0>         0.0603
     92 H39         5.2006   -2.2828   14.7971 H         1 <0>         0.0603
     93 H40         5.6416   -2.5378   17.2239 H         1 <0>         0.0605
     94 H41         7.3932   -2.5095   16.9086 H         1 <0>         0.0605
     95 H42         7.1818   -0.2374   15.9382 H         1 <0>         0.0605
     96 H43         5.4302   -0.2657   16.2535 H         1 <0>         0.0605
     97 H44         5.8711   -0.5207   18.6803 H         1 <0>         0.0603
     98 H45         7.6227   -0.4924   18.3650 H         1 <0>         0.0603
     99 H46         7.4114    1.7797   17.3946 H         1 <0>         0.0533
    100 H47         5.6598    1.7514   17.7099 H         1 <0>         0.0533
    101 H48         6.8090    1.7416   19.0691 H         1 <0>         0.0535
    102 H49         6.4540  -13.2012   10.7719 H         1 <0>         0.4045
    103 H50         7.2442  -14.4578    8.6352 H         1 <0>         0.0867
    104 H51         6.6127  -16.0589    8.1703 H         1 <0>         0.0940
    105 H52         2.4532  -14.6416    8.3246 H         1 <0>         0.1242
    106 H53         0.9065  -15.4382    6.5885 H         1 <0>         0.1279
    107 H54         4.2158  -16.2639    4.0232 H         1 <0>         0.1345
    108 H55         1.3154  -15.6495    3.6246 H         1 <0>         0.3939
    109 H56         7.8954  -17.1192    5.8638 H         1 <0>         0.1342
    110 H57        10.2431  -17.7204    5.4327 H         1 <0>         0.1328
    111 H58        11.4052  -13.6721    6.1575 H         1 <0>         0.1330
    112 H59         9.0540  -13.0770    6.5781 H         1 <0>         0.1261
    113 H60        12.5354  -15.9744    4.6047 H         1 <0>         0.3941
    114 H61         5.4934  -13.1480    5.4377 H         1 <0>         0.3931
    115 H62         4.1822   -8.4551    8.4762 H         1 <0>         0.4054
@<TRIPOS>BOND
     1    1    2 1
     2    1   56 1
     3    1   57 1
     4    1   58 1
     5    2    3 1
     6    2   59 1
     7    2   60 1
     8    3    4 1
     9    3   61 1
    10    3   62 1
    11    4    5 1
    12    4   63 1
    13    4   64 1
    14    5    6 1
    15    5   65 1
    16    5   66 1
    17    6    7 1
    18    6   67 1
    19    6   68 1
    20    7    8 1
    21    7   69 1
    22    7   70 1
    23    8    9 1
    24    8   71 1
    25    8   72 1
    26    9   10 1
    27    9   73 1
    28    9   74 1
    29   10   11 1
    30   10   75 1
    31   10   76 1
    32   11   12 1
    33   11   77 1
    34   11   78 1
    35   12   13 2
    36   12   14 1
    37   14   19 ar
    38   14   15 ar
    39   15   16 ar
    40   15   55 1
    41   16   17 ar
    42   16   35 1
    43   17   18 ar
    44   17   34 1
    45   18   19 ar
    46   18   21 1
    47   19   20 1
    48   20  115 1
    49   21   22 2
    50   21   23 1
    51   23   24 1
    52   23   79 1
    53   23   80 1
    54   24   25 1
    55   24   81 1
    56   24   82 1
    57   25   26 1
    58   25   83 1
    59   25   84 1
    60   26   27 1
    61   26   85 1
    62   26   86 1
    63   27   28 1
    64   27   87 1
    65   27   88 1
    66   28   29 1
    67   28   89 1
    68   28   90 1
    69   29   30 1
    70   29   91 1
    71   29   92 1
    72   30   31 1
    73   30   93 1
    74   30   94 1
    75   31   32 1
    76   31   95 1
    77   31   96 1
    78   32   33 1
    79   32   97 1
    80   32   98 1
    81   33   99 1
    82   33  100 1
    83   33  101 1
    84   34  102 1
    85   35   36 1
    86   35   42 1
    87   35   37 1
    88   37   38 1
    89   37  103 1
    90   37  104 1
    91   38   39 1
    92   38   40 1
    93   38   48 1
    94   40   41 1
    95   41   46 ar
    96   41   42 ar
    97   42   43 ar
    98   43   44 ar
    99   43  105 1
   100   44   45 ar
   101   44  106 1
   102   45   46 ar
   103   45   47 1
   104   46  107 1
   105   47  108 1
   106   48   53 ar
   107   48   49 ar
   108   49   50 ar
   109   49  109 1
   110   50   51 ar
   111   50  110 1
   112   51   52 ar
   113   51   54 1
   114   52   53 ar
   115   52  111 1
   116   53  112 1
   117   54  113 1
   118   55  114 1
@<TRIPOS>MOLECULE
ZINC49823271
  113   116     0     0     0
SMALL
USER_CHARGES

@<TRIPOS>ATOM
      1 C1         -1.1876    1.4951    4.6864 C.3       1 <0>        -0.1530
      2 C2         -1.1630   -0.0346    4.6744 C.3       1 <0>        -0.1259
      3 C3         -2.4279   -0.5597    3.9923 C.3       1 <0>        -0.1212
      4 C4         -2.4033   -2.0895    3.9803 C.3       1 <0>        -0.1206
      5 C5         -3.6682   -2.6146    3.2983 C.3       1 <0>        -0.1205
      6 C6         -3.6435   -4.1443    3.2863 C.3       1 <0>        -0.1196
      7 C7         -4.9085   -4.6694    2.6043 C.3       1 <0>        -0.1199
      8 C8         -4.8838   -6.1992    2.5923 C.3       1 <0>        -0.1179
      9 C9         -6.1488   -6.7243    1.9103 C.3       1 <0>        -0.1161
     10 C10        -6.1241   -8.2540    1.8982 C.3       1 <0>        -0.1106
     11 C11        -7.3890   -8.7791    1.2162 C.3       1 <0>        -0.1273
     12 C12        -7.3648  -10.2859    1.2044 C.2       1 <0>         0.4085
     13 O1         -6.4273  -10.8816    1.6937 O.2       1 <0>        -0.5466
     14 C13        -8.4704  -11.0300    0.6036 C.ar      1 <0>        -0.4403
     15 C14        -8.4529  -12.4394    0.5964 C.ar      1 <0>         0.2515
     16 C15        -9.4989  -13.1463    0.0285 C.ar      1 <0>        -0.3451
     17 C16       -10.5717  -12.4785   -0.5376 C.ar      1 <0>         0.3685
     18 C17       -10.6084  -11.0698   -0.5412 C.ar      1 <0>        -0.4646
     19 C18        -9.5555  -10.3436    0.0372 C.ar      1 <0>         0.3760
     20 O2         -9.5842   -8.9912    0.0441 O.3       1 <0>        -0.7087
     21 C19       -11.7417  -10.3672   -1.1404 C.2       1 <0>         0.4057
     22 O3        -12.6531  -10.9971   -1.6358 O.2       1 <0>        -0.5178
     23 C20       -11.7782   -8.8606   -1.1428 C.3       1 <0>        -0.1278
     24 C21       -13.0617   -8.3827   -1.8250 C.3       1 <0>        -0.1106
     25 C22       -13.0988   -6.8532   -1.8275 C.3       1 <0>        -0.1146
     26 C23       -14.3823   -6.3753   -2.5096 C.3       1 <0>        -0.1184
     27 C24       -14.4194   -4.8458   -2.5121 C.3       1 <0>        -0.1192
     28 C25       -15.7029   -4.3679   -3.1942 C.3       1 <0>        -0.1199
     29 C26       -15.7400   -2.8384   -3.1968 C.3       1 <0>        -0.1201
     30 C27       -17.0235   -2.3605   -3.8789 C.3       1 <0>        -0.1208
     31 C28       -17.0606   -0.8309   -3.8814 C.3       1 <0>        -0.1210
     32 C29       -18.3440   -0.3531   -4.5635 C.3       1 <0>        -0.1261
     33 C30       -18.3812    1.1765   -4.5660 C.3       1 <0>        -0.1529
     34 O4        -11.5888  -13.1815   -1.0900 O.3       1 <0>        -0.6595
     35 C31        -9.4696  -14.6530    0.0260 C.3       1 <0>         0.0425
     36 H1         -8.7972  -15.0040    0.8088 H         1 <0>         0.0641
     37 C32        -8.9723  -15.1505   -1.3335 C.3       1 <0>        -0.1263
     38 C33       -10.0759  -14.9035   -2.3700 C.3       1 <0>         0.1159
     39 H2        -10.3613  -13.8517   -2.3589 H         1 <0>         0.1414
     40 O5        -11.2029  -15.7116   -2.0284 O.3       1 <0>        -0.3128
     41 C34       -11.6440  -15.6753   -0.7439 C.ar      1 <0>         0.2192
     42 C35       -10.8580  -15.1823    0.2828 C.ar      1 <0>        -0.0894
     43 C36       -11.3463  -15.1683    1.5789 C.ar      1 <0>        -0.0773
     44 C37       -12.6141  -15.6410    1.8528 C.ar      1 <0>        -0.1917
     45 C38       -13.4062  -16.1334    0.8255 C.ar      1 <0>         0.1082
     46 C39       -12.9211  -16.1502   -0.4687 C.ar      1 <0>        -0.1885
     47 O6        -14.6554  -16.5978    1.0913 O.3       1 <0>        -0.5078
     48 C40        -9.5775  -15.2798   -3.7415 C.ar      1 <0>        -0.0644
     49 C41        -9.6619  -16.5915   -4.1707 C.ar      1 <0>        -0.0873
     50 C42        -9.2054  -16.9390   -5.4273 C.ar      1 <0>        -0.1507
     51 C43        -8.6623  -15.9706   -6.2591 C.ar      1 <0>         0.0839
     52 C44        -8.5792  -14.6551   -5.8264 C.ar      1 <0>        -0.1436
     53 C45        -9.0419  -14.3117   -4.5708 C.ar      1 <0>        -0.0861
     54 O7         -8.2121  -16.3101   -7.4956 O.3       1 <0>        -0.5032
     55 O8         -7.4092  -13.1042    1.1465 O.3       1 <0>        -0.4988
     56 H3         -0.2864    1.8692    5.1722 H         1 <0>         0.0509
     57 H4         -1.2288    1.8659    3.6622 H         1 <0>         0.0528
     58 H5         -2.0651    1.8401    5.2332 H         1 <0>         0.0528
     59 H6         -0.2854   -0.3796    4.1275 H         1 <0>         0.0597
     60 H7         -1.1218   -0.4054    5.6985 H         1 <0>         0.0597
     61 H8         -3.3054   -0.2147    4.5392 H         1 <0>         0.0602
     62 H9         -2.4691   -0.1889    2.9682 H         1 <0>         0.0603
     63 H10        -1.5257   -2.4344    3.4335 H         1 <0>         0.0597
     64 H11        -2.3621   -2.4602    5.0045 H         1 <0>         0.0596
     65 H12        -4.5457   -2.2696    3.8452 H         1 <0>         0.0599
     66 H13        -3.7094   -2.2438    2.2741 H         1 <0>         0.0599
     67 H14        -2.7660   -4.4893    2.7395 H         1 <0>         0.0589
     68 H15        -3.6024   -4.5151    4.3105 H         1 <0>         0.0588
     69 H16        -5.7860   -4.3244    3.1511 H         1 <0>         0.0593
     70 H17        -4.9496   -4.2986    1.5801 H         1 <0>         0.0594
     71 H18        -4.0063   -6.5441    2.0454 H         1 <0>         0.0568
     72 H19        -4.8427   -6.5699    3.6165 H         1 <0>         0.0566
     73 H20        -7.0263   -6.3793    2.4571 H         1 <0>         0.0573
     74 H21        -6.1899   -6.3535    0.8861 H         1 <0>         0.0574
     75 H22        -5.2466   -8.5990    1.3514 H         1 <0>         0.0510
     76 H23        -6.0829   -8.6248    2.9224 H         1 <0>         0.0504
     77 H24        -8.2666   -8.4341    1.7631 H         1 <0>         0.0873
     78 H25        -7.4302   -8.4083    0.1921 H         1 <0>         0.0875
     79 H26       -11.7545   -8.4949   -0.1163 H         1 <0>         0.0809
     80 H27       -10.9141   -8.4771   -1.6852 H         1 <0>         0.0803
     81 H28       -13.0854   -8.7484   -2.8515 H         1 <0>         0.0501
     82 H29       -13.9259   -8.7663   -1.2826 H         1 <0>         0.0500
     83 H30       -13.0751   -6.4875   -0.8009 H         1 <0>         0.0557
     84 H31       -12.2346   -6.4697   -2.3699 H         1 <0>         0.0557
     85 H32       -14.4060   -6.7410   -3.5361 H         1 <0>         0.0567
     86 H33       -15.2465   -6.7588   -1.9672 H         1 <0>         0.0567
     87 H34       -14.3957   -4.4801   -1.4856 H         1 <0>         0.0587
     88 H35       -13.5552   -4.4622   -3.0545 H         1 <0>         0.0587
     89 H36       -15.7266   -4.7336   -4.2208 H         1 <0>         0.0589
     90 H37       -16.5671   -4.7514   -2.6518 H         1 <0>         0.0590
     91 H38       -15.7163   -2.4726   -2.1702 H         1 <0>         0.0596
     92 H39       -14.8758   -2.4548   -3.7391 H         1 <0>         0.0596
     93 H40       -17.0472   -2.7262   -4.9054 H         1 <0>         0.0597
     94 H41       -17.8876   -2.7440   -3.3365 H         1 <0>         0.0597
     95 H42       -17.0369   -0.4652   -2.8548 H         1 <0>         0.0601
     96 H43       -16.1964   -0.4474   -4.4238 H         1 <0>         0.0601
     97 H44       -18.3678   -0.7188   -5.5901 H         1 <0>         0.0598
     98 H45       -19.2082   -0.7366   -4.0211 H         1 <0>         0.0598
     99 H46       -19.2955    1.5169   -5.0520 H         1 <0>         0.0508
    100 H47       -18.3575    1.5422   -3.5395 H         1 <0>         0.0527
    101 H48       -17.5170    1.5600   -5.1084 H         1 <0>         0.0527
    102 H49        -8.0726  -14.6047   -1.6177 H         1 <0>         0.0735
    103 H50        -8.7533  -16.2168   -1.2769 H         1 <0>         0.0489
    104 H51       -10.7314  -14.7856    2.3800 H         1 <0>         0.1123
    105 H52       -12.9890  -15.6273    2.8655 H         1 <0>         0.1097
    106 H53       -13.5373  -16.5333   -1.2688 H         1 <0>         0.1155
    107 H54       -15.3461  -15.9234    1.0344 H         1 <0>         0.3799
    108 H55       -10.0847  -17.3450   -3.5228 H         1 <0>         0.1280
    109 H56        -9.2708  -17.9638   -5.7618 H         1 <0>         0.1210
    110 H57        -8.1568  -13.8994   -6.4721 H         1 <0>         0.1252
    111 H58        -8.9815  -13.2870   -4.2351 H         1 <0>         0.1330
    112 H59        -8.8829  -16.2476   -8.1893 H         1 <0>         0.3815
    113 H60        -7.5225  -13.3064    2.0853 H         1 <0>         0.3679
@<TRIPOS>BOND
     1    1    2 1
     2    1   56 1
     3    1   57 1
     4    1   58 1
     5    2    3 1
     6    2   59 1
     7    2   60 1
     8    3    4 1
     9    3   61 1
    10    3   62 1
    11    4    5 1
    12    4   63 1
    13    4   64 1
    14    5    6 1
    15    5   65 1
    16    5   66 1
    17    6    7 1
    18    6   67 1
    19    6   68 1
    20    7    8 1
    21    7   69 1
    22    7   70 1
    23    8    9 1
    24    8   71 1
    25    8   72 1
    26    9   10 1
    27    9   73 1
    28    9   74 1
    29   10   11 1
    30   10   75 1
    31   10   76 1
    32   11   12 1
    33   11   77 1
    34   11   78 1
    35   12   13 2
    36   12   14 1
    37   14   19 ar
    38   14   15 ar
    39   15   16 ar
    40   15   55 1
    41   16   17 ar
    42   16   35 1
    43   17   18 ar
    44   17   34 1
    45   18   19 ar
    46   18   21 1
    47   19   20 1
    48   21   22 2
    49   21   23 1
    50   23   24 1
    51   23   79 1
    52   23   80 1
    53   24   25 1
    54   24   81 1
    55   24   82 1
    56   25   26 1
    57   25   83 1
    58   25   84 1
    59   26   27 1
    60   26   85 1
    61   26   86 1
    62   27   28 1
    63   27   87 1
    64   27   88 1
    65   28   29 1
    66   28   89 1
    67   28   90 1
    68   29   30 1
    69   29   91 1
    70   29   92 1
    71   30   31 1
    72   30   93 1
    73   30   94 1
    74   31   32 1
    75   31   95 1
    76   31   96 1
    77   32   33 1
    78   32   97 1
    79   32   98 1
    80   33   99 1
    81   33  100 1
    82   33  101 1
    83   35   36 1
    84   35   42 1
    85   35   37 1
    86   37   38 1
    87   37  102 1
    88   37  103 1
    89   38   39 1
    90   38   40 1
    91   38   48 1
    92   40   41 1
    93   41   46 ar
    94   41   42 ar
    95   42   43 ar
    96   43   44 ar
    97   43  104 1
    98   44   45 ar
    99   44  105 1
   100   45   46 ar
   101   45   47 1
   102   46  106 1
   103   47  107 1
   104   48   53 ar
   105   48   49 ar
   106   49   50 ar
   107   49  108 1
   108   50   51 ar
   109   50  109 1
   110   51   52 ar
   111   51   54 1
   112   52   53 ar
   113   52  110 1
   114   53  111 1
   115   54  112 1
   116   55  113 1
@<TRIPOS>MOLECULE
ZINC49823271
  114   117     0     0     0
SMALL
USER_CHARGES

@<TRIPOS>ATOM
      1 C1          4.6148    1.6068   -1.3149 C.3       1 <0>        -0.1537
      2 C2          4.6304    0.0770   -1.3249 C.3       1 <0>        -0.1261
      3 C3          4.6852   -0.4419    0.1134 C.3       1 <0>        -0.1211
      4 C4          4.7009   -1.9718    0.1035 C.3       1 <0>        -0.1212
      5 C5          4.7557   -2.4907    1.5418 C.3       1 <0>        -0.1202
      6 C6          4.7714   -4.0205    1.5318 C.3       1 <0>        -0.1207
      7 C7          4.8262   -4.5394    2.9701 C.3       1 <0>        -0.1196
      8 C8          4.8419   -6.0693    2.9601 C.3       1 <0>        -0.1201
      9 C9          4.8967   -6.5881    4.3984 C.3       1 <0>        -0.1177
     10 C10         4.9124   -8.1180    4.3884 C.3       1 <0>        -0.1113
     11 C11         4.9672   -8.6369    5.8267 C.3       1 <0>        -0.1513
     12 C12         4.9826  -10.1438    5.8169 C.2       1 <0>         0.4040
     13 O1          4.9527  -10.7441    4.7624 O.2       1 <0>        -0.4836
     14 C13         5.0336  -10.8825    7.0773 C.ar      1 <0>        -0.3637
     15 C14         5.0541  -12.2919    7.0707 C.ar      1 <0>         0.2350
     16 C15         5.1028  -12.9936    8.2630 C.ar      1 <0>        -0.2630
     17 C16         5.1320  -12.3206    9.4728 C.ar      1 <0>         0.3485
     18 C17         5.1118  -10.9118    9.5014 C.ar      1 <0>        -0.3527
     19 C18         5.0682  -10.1908    8.2979 C.ar      1 <0>         0.2546
     20 O2          5.0546   -8.8382    8.3146 O.3       1 <0>        -0.4961
     21 C19         5.1417  -10.2037   10.7800 C.2       1 <0>         0.3939
     22 O3          5.1841  -10.8292   11.8192 O.2       1 <0>        -0.4492
     23 C20         5.1201   -8.6971   10.8076 C.3       1 <0>        -0.1512
     24 C21         5.1588   -8.2131   12.2585 C.3       1 <0>        -0.1117
     25 C22         5.1368   -6.6835   12.2866 C.3       1 <0>        -0.1164
     26 C23         5.1756   -6.1994   13.7375 C.3       1 <0>        -0.1206
     27 C24         5.1536   -4.6698   13.7655 C.3       1 <0>        -0.1189
     28 C25         5.1924   -4.1858   15.2164 C.3       1 <0>        -0.1210
     29 C26         5.1704   -2.6562   15.2445 C.3       1 <0>        -0.1199
     30 C27         5.2091   -2.1721   16.6954 C.3       1 <0>        -0.1213
     31 C28         5.1871   -0.6425   16.7235 C.3       1 <0>        -0.1209
     32 C29         5.2259   -0.1585   18.1743 C.3       1 <0>        -0.1262
     33 C30         5.2039    1.3711   18.2024 C.3       1 <0>        -0.1536
     34 O4          5.1796  -13.0185   10.6323 O.3       1 <0>        -0.6044
     35 C31         5.1238  -14.5003    8.2441 C.3       1 <0>         0.0312
     36 H1          5.4743  -14.8460    7.2717 H         1 <0>         0.0788
     37 C32         3.7107  -15.0325    8.4948 C.3       1 <0>        -0.1312
     38 C33         3.3585  -14.7892    9.9680 C.3       1 <0>         0.1218
     39 H2          3.4844  -13.7330   10.2060 H         1 <0>         0.1280
     40 O5          4.2378  -15.5726   10.7761 O.3       1 <0>        -0.3079
     41 C34         5.5694  -15.5037   10.5157 C.ar      1 <0>         0.2168
     42 C35         6.0532  -15.0026    9.3201 C.ar      1 <0>        -0.1156
     43 C36         7.4191  -14.9551    9.0949 C.ar      1 <0>        -0.0728
     44 C37         8.3016  -15.4025   10.0575 C.ar      1 <0>        -0.1904
     45 C38         7.8204  -15.9029   11.2589 C.ar      1 <0>         0.1231
     46 C39         6.4578  -15.9531   11.4859 C.ar      1 <0>        -0.1852
     47 O6          8.6864  -16.3424   12.2095 O.3       1 <0>        -0.5040
     48 C40         1.9314  -15.2005   10.2234 C.ar      1 <0>        -0.0763
     49 C41         1.6350  -16.5190   10.5156 C.ar      1 <0>        -0.0829
     50 C42         0.3275  -16.8987   10.7497 C.ar      1 <0>        -0.1478
     51 C43        -0.6884  -15.9557   10.6919 C.ar      1 <0>         0.0942
     52 C44        -0.3882  -14.6333   10.3989 C.ar      1 <0>        -0.1445
     53 C45         0.9215  -14.2577   10.1707 C.ar      1 <0>        -0.0881
     54 O7         -1.9754  -16.3268   10.9213 O.3       1 <0>        -0.5018
     55 O8          5.0255  -12.9617    5.8941 O.3       1 <0>        -0.4853
     56 H3          5.5181    1.9763   -0.8295 H         1 <0>         0.0531
     57 H4          4.5757    1.9765   -2.3395 H         1 <0>         0.0524
     58 H5          3.7393    1.9577   -0.7685 H         1 <0>         0.0530
     59 H6          3.7271   -0.2925   -1.8102 H         1 <0>         0.0601
     60 H7          5.5059   -0.2739   -1.8713 H         1 <0>         0.0601
     61 H8          5.5886   -0.0724    0.5988 H         1 <0>         0.0603
     62 H9          3.8098   -0.0911    0.6598 H         1 <0>         0.0603
     63 H10         3.7976   -2.3413   -0.3819 H         1 <0>         0.0602
     64 H11         5.5764   -2.3226   -0.4429 H         1 <0>         0.0602
     65 H12         5.6591   -2.1212    2.0271 H         1 <0>         0.0601
     66 H13         3.8802   -2.1398    2.0882 H         1 <0>         0.0601
     67 H14         3.8681   -4.3900    1.0464 H         1 <0>         0.0600
     68 H15         5.6469   -4.3714    0.9854 H         1 <0>         0.0600
     69 H16         5.7295   -4.1699    3.4554 H         1 <0>         0.0600
     70 H17         3.9507   -4.1886    3.5165 H         1 <0>         0.0598
     71 H18         3.9386   -6.4387    2.4747 H         1 <0>         0.0598
     72 H19         5.7174   -6.4201    2.4137 H         1 <0>         0.0599
     73 H20         5.8000   -6.2187    4.8837 H         1 <0>         0.0605
     74 H21         4.0212   -6.2373    4.9448 H         1 <0>         0.0593
     75 H22         4.0090   -8.4875    3.9030 H         1 <0>         0.0614
     76 H23         5.7879   -8.4688    3.8420 H         1 <0>         0.0620
     77 H24         5.8705   -8.2674    6.3121 H         1 <0>         0.0992
     78 H25         4.0917   -8.2861    6.3731 H         1 <0>         0.0827
     79 H26         5.9878   -8.3114   10.2726 H         1 <0>         0.0948
     80 H27         4.2090   -8.3381   10.3290 H         1 <0>         0.0778
     81 H28         4.2911   -8.5988   12.7936 H         1 <0>         0.0609
     82 H29         6.0699   -8.5722   12.7371 H         1 <0>         0.0620
     83 H30         6.0046   -6.2978   11.7515 H         1 <0>         0.0594
     84 H31         4.2257   -6.3244   11.8080 H         1 <0>         0.0581
     85 H32         4.3078   -6.5852   14.2725 H         1 <0>         0.0598
     86 H33         6.0867   -6.5585   14.2161 H         1 <0>         0.0601
     87 H34         6.0214   -4.2841   13.2305 H         1 <0>         0.0596
     88 H35         4.2425   -4.3107   13.2870 H         1 <0>         0.0593
     89 H36         4.3246   -4.5715   15.7515 H         1 <0>         0.0600
     90 H37         6.1035   -4.5449   15.6950 H         1 <0>         0.0601
     91 H38         6.0381   -2.2704   14.7095 H         1 <0>         0.0599
     92 H39         4.2593   -2.2971   14.7659 H         1 <0>         0.0598
     93 H40         4.3414   -2.5579   17.2304 H         1 <0>         0.0603
     94 H41         6.1202   -2.5312   17.1740 H         1 <0>         0.0603
     95 H42         6.0549   -0.2568   16.1884 H         1 <0>         0.0602
     96 H43         4.2760   -0.2834   16.2449 H         1 <0>         0.0602
     97 H44         4.3581   -0.5442   18.7094 H         1 <0>         0.0601
     98 H45         6.1370   -0.5176   18.6529 H         1 <0>         0.0601
     99 H46         6.0717    1.7569   17.6674 H         1 <0>         0.0530
    100 H47         4.2928    1.7302   17.7238 H         1 <0>         0.0530
    101 H48         5.2315    1.7160   19.2361 H         1 <0>         0.0523
    102 H49         3.0013  -14.5066    7.8558 H         1 <0>         0.0778
    103 H50         3.6770  -16.1007    8.2806 H         1 <0>         0.0640
    104 H51         7.7958  -14.5662    8.1604 H         1 <0>         0.1145
    105 H52         9.3655  -15.3626    9.8759 H         1 <0>         0.1160
    106 H53         6.0826  -16.3425   12.4208 H         1 <0>         0.1221
    107 H54         8.9654  -15.6586   12.8337 H         1 <0>         0.3850
    108 H55         2.4262  -17.2528   10.5605 H         1 <0>         0.1298
    109 H56         0.0964  -17.9289   10.9772 H         1 <0>         0.1254
    110 H57        -1.1773  -13.8973   10.3533 H         1 <0>         0.1271
    111 H58         1.1562  -13.2275    9.9470 H         1 <0>         0.1279
    112 H59        -2.2424  -16.2677   11.8489 H         1 <0>         0.3862
    113 H60         5.9000  -13.1432    5.5236 H         1 <0>         0.3838
    114 H61         4.1678   -8.4542    8.3498 H         1 <0>         0.3868
@<TRIPOS>BOND
     1    1    2 1
     2    1   56 1
     3    1   57 1
     4    1   58 1
     5    2    3 1
     6    2   59 1
     7    2   60 1
     8    3    4 1
     9    3   61 1
    10    3   62 1
    11    4    5 1
    12    4   63 1
    13    4   64 1
    14    5    6 1
    15    5   65 1
    16    5   66 1
    17    6    7 1
    18    6   67 1
    19    6   68 1
    20    7    8 1
    21    7   69 1
    22    7   70 1
    23    8    9 1
    24    8   71 1
    25    8   72 1
    26    9   10 1
    27    9   73 1
    28    9   74 1
    29   10   11 1
    30   10   75 1
    31   10   76 1
    32   11   12 1
    33   11   77 1
    34   11   78 1
    35   12   13 2
    36   12   14 1
    37   14   19 ar
    38   14   15 ar
    39   15   16 ar
    40   15   55 1
    41   16   17 ar
    42   16   35 1
    43   17   18 ar
    44   17   34 1
    45   18   19 ar
    46   18   21 1
    47   19   20 1
    48   20  114 1
    49   21   22 2
    50   21   23 1
    51   23   24 1
    52   23   79 1
    53   23   80 1
    54   24   25 1
    55   24   81 1
    56   24   82 1
    57   25   26 1
    58   25   83 1
    59   25   84 1
    60   26   27 1
    61   26   85 1
    62   26   86 1
    63   27   28 1
    64   27   87 1
    65   27   88 1
    66   28   29 1
    67   28   89 1
    68   28   90 1
    69   29   30 1
    70   29   91 1
    71   29   92 1
    72   30   31 1
    73   30   93 1
    74   30   94 1
    75   31   32 1
    76   31   95 1
    77   31   96 1
    78   32   33 1
    79   32   97 1
    80   32   98 1
    81   33   99 1
    82   33  100 1
    83   33  101 1
    84   35   36 1
    85   35   42 1
    86   35   37 1
    87   37   38 1
    88   37  102 1
    89   37  103 1
    90   38   39 1
    91   38   40 1
    92   38   48 1
    93   40   41 1
    94   41   46 ar
    95   41   42 ar
    96   42   43 ar
    97   43   44 ar
    98   43  104 1
    99   44   45 ar
   100   44  105 1
   101   45   46 ar
   102   45   47 1
   103   46  106 1
   104   47  107 1
   105   48   53 ar
   106   48   49 ar
   107   49   50 ar
   108   49  108 1
   109   50   51 ar
   110   50  109 1
   111   51   52 ar
   112   51   54 1
   113   52   53 ar
   114   52  110 1
   115   53  111 1
   116   54  112 1
   117   55  113 1
@<TRIPOS>MOLECULE
ZINC49823272
  114   117     0     0     0
SMALL
USER_CHARGES

@<TRIPOS>ATOM
      1 C1         -0.0187    1.5258    0.0104 C.3       1 <0>        -0.1536
      2 C2          0.0021   -0.0041    0.0020 C.3       1 <0>        -0.1260
      3 C3         -1.4333   -0.5336    0.0129 C.3       1 <0>        -0.1212
      4 C4         -1.4126   -2.0635    0.0045 C.3       1 <0>        -0.1208
      5 C5         -2.8479   -2.5931    0.0153 C.3       1 <0>        -0.1205
      6 C6         -2.8272   -4.1229    0.0069 C.3       1 <0>        -0.1200
      7 C7         -4.2626   -4.6525    0.0178 C.3       1 <0>        -0.1200
      8 C8         -4.2418   -6.1823    0.0094 C.3       1 <0>        -0.1188
      9 C9         -5.6772   -6.7119    0.0202 C.3       1 <0>        -0.1166
     10 C10        -5.6565   -8.2417    0.0118 C.3       1 <0>        -0.1129
     11 C11        -7.0918   -8.7713    0.0227 C.3       1 <0>        -0.1340
     12 C12        -7.0714  -10.2782    0.0144 C.2       1 <0>         0.4129
     13 O1         -6.0122  -10.8706    0.0011 O.2       1 <0>        -0.5006
     14 C13        -8.3274  -11.0263    0.0224 C.ar      1 <0>        -0.3572
     15 C14        -8.3110  -12.4355    0.0205 C.ar      1 <0>         0.2557
     16 C15        -9.4991  -13.1462    0.0275 C.ar      1 <0>        -0.2853
     17 C16       -10.7139  -12.4823    0.0369 C.ar      1 <0>         0.2659
     18 C17       -10.7523  -11.0734    0.0394 C.ar      1 <0>        -0.3559
     19 C18        -9.5535  -10.3435    0.0377 C.ar      1 <0>         0.3584
     20 O2         -9.5798   -8.9910    0.0458 O.3       1 <0>        -0.6533
     21 C19       -12.0364  -10.3747    0.0493 C.2       1 <0>         0.4116
     22 O3        -13.0718  -11.0080    0.0554 O.2       1 <0>        -0.4973
     23 C20       -12.0745   -8.8682    0.0520 C.3       1 <0>        -0.1334
     24 C21       -13.5294   -8.3948    0.0627 C.3       1 <0>        -0.1132
     25 C22       -13.5680   -6.8653    0.0654 C.3       1 <0>        -0.1162
     26 C23       -15.0229   -6.3920    0.0761 C.3       1 <0>        -0.1190
     27 C24       -15.0616   -4.8625    0.0788 C.3       1 <0>        -0.1198
     28 C25       -16.5165   -4.3891    0.0895 C.3       1 <0>        -0.1201
     29 C26       -16.5552   -2.8596    0.0922 C.3       1 <0>        -0.1204
     30 C27       -18.0100   -2.3862    0.1030 C.3       1 <0>        -0.1209
     31 C28       -18.0487   -0.8567    0.1057 C.3       1 <0>        -0.1211
     32 C29       -19.5036   -0.3833    0.1164 C.3       1 <0>        -0.1260
     33 C30       -19.5423    1.1462    0.1191 C.3       1 <0>        -0.1535
     34 O4        -11.8691  -13.1888    0.0433 O.3       1 <0>        -0.4748
     35 C31        -9.4698  -14.6530    0.0244 C.3       1 <0>         0.0272
     36 C32       -10.1677  -15.1785    1.2812 C.3       1 <0>        -0.1421
     37 C33       -10.3872  -16.6877    1.1150 C.3       1 <0>         0.1371
     38 O5        -11.2930  -16.8938    0.0301 O.3       1 <0>        -0.3095
     39 C34       -11.0413  -16.2480   -1.1383 C.ar      1 <0>         0.1494
     40 C35       -10.1796  -15.1660   -1.2031 C.ar      1 <0>        -0.1276
     41 C36        -9.9552  -14.5334   -2.4147 C.ar      1 <0>        -0.0487
     42 C37       -10.5840  -14.9765   -3.5610 C.ar      1 <0>        -0.1752
     43 C38       -11.4462  -16.0620   -3.5021 C.ar      1 <0>         0.1268
     44 C39       -11.6740  -16.6962   -2.2921 C.ar      1 <0>        -0.1790
     45 O6        -12.0653  -16.5021   -4.6290 O.3       1 <0>        -0.4975
     46 C40       -10.9731  -17.2579    2.3809 C.ar      1 <0>        -0.0877
     47 C41       -12.3402  -17.2234    2.5853 C.ar      1 <0>        -0.0747
     48 C42       -12.8797  -17.7451    3.7451 C.ar      1 <0>        -0.1454
     49 C43       -12.0488  -18.3042    4.7050 C.ar      1 <0>         0.1043
     50 C44       -10.6775  -18.3380    4.4974 C.ar      1 <0>        -0.1455
     51 C45       -10.1433  -17.8197    3.3336 C.ar      1 <0>        -0.0905
     52 O7        -12.5771  -18.8177    5.8470 O.3       1 <0>        -0.5003
     53 O8         -7.1292  -13.0966    0.0113 O.3       1 <0>        -0.4846
     54 H1          1.0039    1.9031    0.0027 H         1 <0>         0.0520
     55 H2         -0.5459    1.8868   -0.8726 H         1 <0>         0.0530
     56 H3         -0.5289    1.8773    0.9072 H         1 <0>         0.0530
     57 H4          0.5123   -0.3556   -0.8948 H         1 <0>         0.0599
     58 H5          0.5293   -0.3651    0.8851 H         1 <0>         0.0599
     59 H6         -1.9435   -0.1821    0.9097 H         1 <0>         0.0603
     60 H7         -1.9605   -0.1726   -0.8702 H         1 <0>         0.0604
     61 H8         -0.9024   -2.4150   -0.8923 H         1 <0>         0.0600
     62 H9         -0.8854   -2.4246    0.8875 H         1 <0>         0.0599
     63 H10        -3.3581   -2.2415    0.9121 H         1 <0>         0.0601
     64 H11        -3.3751   -2.2320   -0.8677 H         1 <0>         0.0602
     65 H12        -2.3170   -4.4744   -0.8899 H         1 <0>         0.0595
     66 H13        -2.3000   -4.4840    0.8900 H         1 <0>         0.0593
     67 H14        -4.7728   -4.3010    0.9146 H         1 <0>         0.0598
     68 H15        -4.7898   -4.2914   -0.8653 H         1 <0>         0.0600
     69 H16        -3.7316   -6.5338   -0.8874 H         1 <0>         0.0583
     70 H17        -3.7146   -6.5434    0.8924 H         1 <0>         0.0581
     71 H18        -6.1874   -6.3604    0.9170 H         1 <0>         0.0594
     72 H19        -6.2044   -6.3508   -0.8628 H         1 <0>         0.0596
     73 H20        -5.1463   -8.5933   -0.8850 H         1 <0>         0.0561
     74 H21        -5.1293   -8.6028    0.8949 H         1 <0>         0.0555
     75 H22        -7.6020   -8.4198    0.9195 H         1 <0>         0.0964
     76 H23        -7.6190   -8.4102   -0.8604 H         1 <0>         0.0966
     77 H24       -11.5639   -8.4934    0.9391 H         1 <0>         0.0964
     78 H25       -11.5761   -8.4906   -0.8408 H         1 <0>         0.0960
     79 H26       -14.0399   -8.7696   -0.8244 H         1 <0>         0.0562
     80 H27       -14.0278   -8.7725    0.9555 H         1 <0>         0.0555
     81 H28       -13.0575   -6.4906    0.9525 H         1 <0>         0.0592
     82 H29       -13.0697   -6.4877   -0.8274 H         1 <0>         0.0595
     83 H30       -15.5335   -6.7668   -0.8110 H         1 <0>         0.0584
     84 H31       -15.5213   -6.7696    0.9689 H         1 <0>         0.0581
     85 H32       -14.5510   -4.4877    0.9659 H         1 <0>         0.0597
     86 H33       -14.5632   -4.4848   -0.8140 H         1 <0>         0.0599
     87 H34       -17.0270   -4.7639   -0.7976 H         1 <0>         0.0595
     88 H35       -17.0149   -4.7667    0.9823 H         1 <0>         0.0593
     89 H36       -16.0446   -2.4848    0.9794 H         1 <0>         0.0600
     90 H37       -16.0568   -2.4820   -0.8006 H         1 <0>         0.0601
     91 H38       -18.5206   -2.7610   -0.7842 H         1 <0>         0.0600
     92 H39       -18.5084   -2.7639    0.9958 H         1 <0>         0.0599
     93 H40       -17.5382   -0.4819    0.9928 H         1 <0>         0.0603
     94 H41       -17.5503   -0.4791   -0.7871 H         1 <0>         0.0604
     95 H42       -20.0142   -0.7581   -0.7707 H         1 <0>         0.0599
     96 H43       -20.0020   -0.7610    1.0092 H         1 <0>         0.0599
     97 H44       -19.0439    1.5238   -0.7737 H         1 <0>         0.0530
     98 H45       -20.5788    1.4834    0.1267 H         1 <0>         0.0520
     99 H46       -19.0317    1.5209    1.0062 H         1 <0>         0.0530
    100 H47       -12.1988  -13.3958    0.9285 H         1 <0>         0.3809
    101 H48        -8.4351  -14.9956    0.0148 H         1 <0>         0.0891
    102 H49        -9.5420  -14.9922    2.1540 H         1 <0>         0.0820
    103 H50       -11.1286  -14.6788    1.4040 H         1 <0>         0.0797
    104 H51        -9.4368  -17.1752    0.8976 H         1 <0>         0.0802
    105 H52        -9.2847  -13.6881   -2.4628 H         1 <0>         0.1280
    106 H53       -10.4053  -14.4785   -4.5025 H         1 <0>         0.1244
    107 H54       -12.3449  -17.5412   -2.2448 H         1 <0>         0.1292
    108 H55       -11.5681  -17.1753   -5.1135 H         1 <0>         0.3859
    109 H56       -12.9867  -16.7880    1.8377 H         1 <0>         0.1344
    110 H57       -13.9475  -17.7173    3.9046 H         1 <0>         0.1295
    111 H58       -10.0285  -18.7728    5.2432 H         1 <0>         0.1297
    112 H59        -9.0763  -17.8498    3.1695 H         1 <0>         0.1293
    113 H60       -12.8089  -19.7545    5.7866 H         1 <0>         0.3892
    114 H61        -6.7797  -13.2898    0.8920 H         1 <0>         0.3864
@<TRIPOS>BOND
     1    1    2 1
     2    1   54 1
     3    1   55 1
     4    1   56 1
     5    2    3 1
     6    2   57 1
     7    2   58 1
     8    3    4 1
     9    3   59 1
    10    3   60 1
    11    4    5 1
    12    4   61 1
    13    4   62 1
    14    5    6 1
    15    5   63 1
    16    5   64 1
    17    6    7 1
    18    6   65 1
    19    6   66 1
    20    7    8 1
    21    7   67 1
    22    7   68 1
    23    8    9 1
    24    8   69 1
    25    8   70 1
    26    9   10 1
    27    9   71 1
    28    9   72 1
    29   10   11 1
    30   10   73 1
    31   10   74 1
    32   11   12 1
    33   11   75 1
    34   11   76 1
    35   12   13 2
    36   12   14 1
    37   14   19 ar
    38   14   15 ar
    39   15   16 ar
    40   15   53 1
    41   16   17 ar
    42   16   35 1
    43   17   18 ar
    44   17   34 1
    45   18   19 ar
    46   18   21 1
    47   19   20 1
    48   21   22 2
    49   21   23 1
    50   23   24 1
    51   23   77 1
    52   23   78 1
    53   24   25 1
    54   24   79 1
    55   24   80 1
    56   25   26 1
    57   25   81 1
    58   25   82 1
    59   26   27 1
    60   26   83 1
    61   26   84 1
    62   27   28 1
    63   27   85 1
    64   27   86 1
    65   28   29 1
    66   28   87 1
    67   28   88 1
    68   29   30 1
    69   29   89 1
    70   29   90 1
    71   30   31 1
    72   30   91 1
    73   30   92 1
    74   31   32 1
    75   31   93 1
    76   31   94 1
    77   32   33 1
    78   32   95 1
    79   32   96 1
    80   33   97 1
    81   33   98 1
    82   33   99 1
    83   34  100 1
    84   35   40 1
    85   35   36 1
    86   35  101 1
    87   36   37 1
    88   36  102 1
    89   36  103 1
    90   37   38 1
    91   37   46 1
    92   37  104 1
    93   38   39 1
    94   39   44 ar
    95   39   40 ar
    96   40   41 ar
    97   41   42 ar
    98   41  105 1
    99   42   43 ar
   100   42  106 1
   101   43   44 ar
   102   43   45 1
   103   44  107 1
   104   45  108 1
   105   46   51 ar
   106   46   47 ar
   107   47   48 ar
   108   47  109 1
   109   48   49 ar
   110   48  110 1
   111   49   50 ar
   112   49   52 1
   113   50   51 ar
   114   50  111 1
   115   51  112 1
   116   52  113 1
   117   53  114 1
@<TRIPOS>MOLECULE
ZINC49823272
  113   116     0     0     0
SMALL
USER_CHARGES

@<TRIPOS>ATOM
      1 C1         -0.0187    1.5258    0.0104 C.3       1 <0>        -0.1530
      2 C2          0.0021   -0.0041    0.0020 C.3       1 <0>        -0.1259
      3 C3         -1.4333   -0.5336    0.0129 C.3       1 <0>        -0.1212
      4 C4         -1.4126   -2.0635    0.0045 C.3       1 <0>        -0.1205
      5 C5         -2.8479   -2.5931    0.0153 C.3       1 <0>        -0.1205
      6 C6         -2.8272   -4.1229    0.0069 C.3       1 <0>        -0.1195
      7 C7         -4.2626   -4.6525    0.0178 C.3       1 <0>        -0.1200
      8 C8         -4.2418   -6.1823    0.0094 C.3       1 <0>        -0.1177
      9 C9         -5.6772   -6.7119    0.0202 C.3       1 <0>        -0.1163
     10 C10        -5.6565   -8.2417    0.0118 C.3       1 <0>        -0.1102
     11 C11        -7.0918   -8.7713    0.0227 C.3       1 <0>        -0.1275
     12 C12        -7.0714  -10.2782    0.0144 C.2       1 <0>         0.4087
     13 O1         -6.0122  -10.8706    0.0011 O.2       1 <0>        -0.5486
     14 C13        -8.3274  -11.0263    0.0224 C.ar      1 <0>        -0.4418
     15 C14        -8.3110  -12.4357    0.0205 C.ar      1 <0>         0.2479
     16 C15        -9.4989  -13.1463    0.0285 C.ar      1 <0>        -0.3398
     17 C16       -10.7139  -12.4823    0.0384 C.ar      1 <0>         0.3735
     18 C17       -10.7523  -11.0736    0.0400 C.ar      1 <0>        -0.4683
     19 C18        -9.5534  -10.3436    0.0377 C.ar      1 <0>         0.3765
     20 O2         -9.5796   -8.9911    0.0452 O.3       1 <0>        -0.7100
     21 C19       -12.0364  -10.3749    0.0495 C.2       1 <0>         0.4046
     22 O3        -13.0718  -11.0081    0.0561 O.2       1 <0>        -0.5198
     23 C20       -12.0745   -8.8684    0.0511 C.3       1 <0>        -0.1271
     24 C21       -13.5294   -8.3950    0.0616 C.3       1 <0>        -0.1113
     25 C22       -13.5681   -6.8655    0.0632 C.3       1 <0>        -0.1144
     26 C23       -15.0229   -6.3921    0.0738 C.3       1 <0>        -0.1186
     27 C24       -15.0616   -4.8626    0.0754 C.3       1 <0>        -0.1191
     28 C25       -16.5165   -4.3893    0.0859 C.3       1 <0>        -0.1199
     29 C26       -16.5552   -2.8598    0.0875 C.3       1 <0>        -0.1200
     30 C27       -18.0101   -2.3864    0.0981 C.3       1 <0>        -0.1208
     31 C28       -18.0488   -0.8569    0.0997 C.3       1 <0>        -0.1209
     32 C29       -19.5036   -0.3835    0.1102 C.3       1 <0>        -0.1261
     33 C30       -19.5423    1.1460    0.1118 C.3       1 <0>        -0.1528
     34 O4        -11.8691  -13.1888    0.0462 O.3       1 <0>        -0.6679
     35 C31        -9.4696  -14.6530    0.0260 C.3       1 <0>         0.0458
     36 C32       -10.1668  -15.1781    1.2835 C.3       1 <0>        -0.1432
     37 C33       -10.3863  -16.6873    1.1180 C.3       1 <0>         0.1329
     38 O5        -11.2927  -16.8939    0.0337 O.3       1 <0>        -0.3130
     39 C34       -11.0418  -16.2486   -1.1351 C.ar      1 <0>         0.1474
     40 C35       -10.1801  -15.1666   -1.2009 C.ar      1 <0>        -0.0874
     41 C36        -9.9565  -14.5344   -2.4128 C.ar      1 <0>        -0.0484
     42 C37       -10.5860  -14.9780   -3.5586 C.ar      1 <0>        -0.1778
     43 C38       -11.4481  -16.0635   -3.4987 C.ar      1 <0>         0.1052
     44 C39       -11.6751  -16.6972   -2.2884 C.ar      1 <0>        -0.1830
     45 O6        -12.0679  -16.5040   -4.6251 O.3       1 <0>        -0.4989
     46 C40       -10.9715  -17.2571    2.3845 C.ar      1 <0>        -0.0712
     47 C41       -12.3384  -17.2225    2.5896 C.ar      1 <0>        -0.0704
     48 C42       -12.8773  -17.7437    3.7500 C.ar      1 <0>        -0.1449
     49 C43       -12.0457  -18.3025    4.7096 C.ar      1 <0>         0.0915
     50 C44       -10.6746  -18.3364    4.5012 C.ar      1 <0>        -0.1480
     51 C45       -10.1411  -17.8185    3.3368 C.ar      1 <0>        -0.0958
     52 O7        -12.5734  -18.8155    5.8521 O.3       1 <0>        -0.5010
     53 O8         -7.1292  -13.0968    0.0104 O.3       1 <0>        -0.4992
     54 H1          1.0039    1.9031    0.0027 H         1 <0>         0.0509
     55 H2         -0.5459    1.8868   -0.8726 H         1 <0>         0.0528
     56 H3         -0.5289    1.8773    0.9072 H         1 <0>         0.0528
     57 H4          0.5123   -0.3556   -0.8948 H         1 <0>         0.0597
     58 H5          0.5293   -0.3651    0.8851 H         1 <0>         0.0597
     59 H6         -1.9435   -0.1821    0.9097 H         1 <0>         0.0602
     60 H7         -1.9605   -0.1726   -0.8702 H         1 <0>         0.0603
     61 H8         -0.9024   -2.4150   -0.8923 H         1 <0>         0.0596
     62 H9         -0.8854   -2.4246    0.8875 H         1 <0>         0.0596
     63 H10        -3.3581   -2.2415    0.9121 H         1 <0>         0.0599
     64 H11        -3.3751   -2.2320   -0.8677 H         1 <0>         0.0600
     65 H12        -2.3170   -4.4744   -0.8899 H         1 <0>         0.0588
     66 H13        -2.3000   -4.4840    0.8900 H         1 <0>         0.0587
     67 H14        -4.7728   -4.3010    0.9146 H         1 <0>         0.0593
     68 H15        -4.7898   -4.2914   -0.8653 H         1 <0>         0.0594
     69 H16        -3.7316   -6.5338   -0.8874 H         1 <0>         0.0567
     70 H17        -3.7146   -6.5434    0.8924 H         1 <0>         0.0565
     71 H18        -6.1874   -6.3604    0.9170 H         1 <0>         0.0573
     72 H19        -6.2044   -6.3508   -0.8628 H         1 <0>         0.0575
     73 H20        -5.1463   -8.5933   -0.8850 H         1 <0>         0.0508
     74 H21        -5.1293   -8.6028    0.8949 H         1 <0>         0.0502
     75 H22        -7.6020   -8.4198    0.9195 H         1 <0>         0.0873
     76 H23        -7.6190   -8.4102   -0.8604 H         1 <0>         0.0875
     77 H24       -11.5638   -8.4930    0.9379 H         1 <0>         0.0810
     78 H25       -11.5762   -8.4914   -0.8420 H         1 <0>         0.0804
     79 H26       -14.0400   -8.7704   -0.8252 H         1 <0>         0.0503
     80 H27       -14.0277   -8.7720    0.9547 H         1 <0>         0.0501
     81 H28       -13.0574   -6.4901    0.9500 H         1 <0>         0.0556
     82 H29       -13.0698   -6.4885   -0.8299 H         1 <0>         0.0558
     83 H30       -15.5336   -6.7676   -0.8130 H         1 <0>         0.0569
     84 H31       -15.5212   -6.7691    0.9669 H         1 <0>         0.0567
     85 H32       -14.5510   -4.4872    0.9622 H         1 <0>         0.0586
     86 H33       -14.5633   -4.4856   -0.8177 H         1 <0>         0.0587
     87 H34       -17.0272   -4.7647   -0.8009 H         1 <0>         0.0590
     88 H35       -17.0148   -4.7663    0.9790 H         1 <0>         0.0589
     89 H36       -16.0445   -2.4843    0.9743 H         1 <0>         0.0596
     90 H37       -16.0569   -2.4828   -0.8056 H         1 <0>         0.0596
     91 H38       -18.5207   -2.7618   -0.7887 H         1 <0>         0.0598
     92 H39       -18.5084   -2.7634    0.9912 H         1 <0>         0.0597
     93 H40       -17.5381   -0.4815    0.9865 H         1 <0>         0.0600
     94 H41       -17.5505   -0.4799   -0.7934 H         1 <0>         0.0601
     95 H42       -20.0143   -0.7589   -0.7766 H         1 <0>         0.0598
     96 H43       -20.0019   -0.7605    1.0033 H         1 <0>         0.0597
     97 H44       -20.5788    1.4832    0.1193 H         1 <0>         0.0508
     98 H45       -19.0317    1.5214    0.9986 H         1 <0>         0.0526
     99 H46       -19.0440    1.5230   -0.7813 H         1 <0>         0.0527
    100 H47        -8.4349  -14.9956    0.0159 H         1 <0>         0.0644
    101 H48        -9.5405  -14.9914    2.1558 H         1 <0>         0.0625
    102 H49       -11.1276  -14.6784    1.4066 H         1 <0>         0.1127
    103 H50        -9.4361  -17.1749    0.9002 H         1 <0>         0.0696
    104 H51        -9.2860  -13.6892   -2.4616 H         1 <0>         0.1281
    105 H52       -10.4078  -14.4804   -4.5004 H         1 <0>         0.1170
    106 H53       -12.3460  -17.5422   -2.2404 H         1 <0>         0.1206
    107 H54       -11.5710  -17.1774   -5.1096 H         1 <0>         0.3749
    108 H55       -12.9853  -16.7874    1.8423 H         1 <0>         0.1373
    109 H56       -13.9450  -17.7159    3.9101 H         1 <0>         0.1264
    110 H57       -10.0251  -18.7708    5.2467 H         1 <0>         0.1252
    111 H58        -9.0742  -17.8486    3.1721 H         1 <0>         0.1275
    112 H59       -12.8052  -19.7524    5.7922 H         1 <0>         0.3825
    113 H60        -6.7790  -13.2899    0.8909 H         1 <0>         0.3674
@<TRIPOS>BOND
     1    1    2 1
     2    1   54 1
     3    1   55 1
     4    1   56 1
     5    2    3 1
     6    2   57 1
     7    2   58 1
     8    3    4 1
     9    3   59 1
    10    3   60 1
    11    4    5 1
    12    4   61 1
    13    4   62 1
    14    5    6 1
    15    5   63 1
    16    5   64 1
    17    6    7 1
    18    6   65 1
    19    6   66 1
    20    7    8 1
    21    7   67 1
    22    7   68 1
    23    8    9 1
    24    8   69 1
    25    8   70 1
    26    9   10 1
    27    9   71 1
    28    9   72 1
    29   10   11 1
    30   10   73 1
    31   10   74 1
    32   11   12 1
    33   11   75 1
    34   11   76 1
    35   12   13 2
    36   12   14 1
    37   14   19 ar
    38   14   15 ar
    39   15   16 ar
    40   15   53 1
    41   16   17 ar
    42   16   35 1
    43   17   18 ar
    44   17   34 1
    45   18   19 ar
    46   18   21 1
    47   19   20 1
    48   21   22 2
    49   21   23 1
    50   23   24 1
    51   23   77 1
    52   23   78 1
    53   24   25 1
    54   24   79 1
    55   24   80 1
    56   25   26 1
    57   25   81 1
    58   25   82 1
    59   26   27 1
    60   26   83 1
    61   26   84 1
    62   27   28 1
    63   27   85 1
    64   27   86 1
    65   28   29 1
    66   28   87 1
    67   28   88 1
    68   29   30 1
    69   29   89 1
    70   29   90 1
    71   30   31 1
    72   30   91 1
    73   30   92 1
    74   31   32 1
    75   31   93 1
    76   31   94 1
    77   32   33 1
    78   32   95 1
    79   32   96 1
    80   33   97 1
    81   33   98 1
    82   33   99 1
    83   35   40 1
    84   35   36 1
    85   35  100 1
    86   36   37 1
    87   36  101 1
    88   36  102 1
    89   37   38 1
    90   37   46 1
    91   37  103 1
    92   38   39 1
    93   39   44 ar
    94   39   40 ar
    95   40   41 ar
    96   41   42 ar
    97   41  104 1
    98   42   43 ar
    99   42  105 1
   100   43   44 ar
   101   43   45 1
   102   44  106 1
   103   45  107 1
   104   46   51 ar
   105   46   47 ar
   106   47   48 ar
   107   47  108 1
   108   48   49 ar
   109   48  109 1
   110   49   50 ar
   111   49   52 1
   112   50   51 ar
   113   50  110 1
   114   51  111 1
   115   52  112 1
   116   53  113 1
@<TRIPOS>MOLECULE
ZINC49823272
  115   118     0     0     0
SMALL
USER_CHARGES

@<TRIPOS>ATOM
      1 C1         -0.0187    1.5258    0.0104 C.3       1 <0>        -0.1543
      2 C2          0.0021   -0.0041    0.0020 C.3       1 <0>        -0.1262
      3 C3          0.7182   -0.4975   -1.2568 C.3       1 <0>        -0.1211
      4 C4          0.7390   -2.0273   -1.2652 C.3       1 <0>        -0.1214
      5 C5          1.4551   -2.5207   -2.5240 C.3       1 <0>        -0.1203
      6 C6          1.4758   -4.0506   -2.5324 C.3       1 <0>        -0.1211
      7 C7          2.1920   -4.5440   -3.7912 C.3       1 <0>        -0.1197
      8 C8          2.2127   -6.0738   -3.7996 C.3       1 <0>        -0.1211
      9 C9          2.9289   -6.5673   -5.0584 C.3       1 <0>        -0.1181
     10 C10         2.9496   -8.0971   -5.0668 C.3       1 <0>        -0.1145
     11 C11         3.6658   -8.5905   -6.3257 C.3       1 <0>        -0.1545
     12 C12         3.6862  -10.0973   -6.3339 C.2       1 <0>         0.3971
     13 O1          3.1776  -10.7162   -5.4221 O.2       1 <0>        -0.4361
     14 C13         4.3186  -10.8137   -7.4403 C.ar      1 <0>        -0.2509
     15 C14         4.3340  -12.2229   -7.4533 C.ar      1 <0>         0.2355
     16 C15         4.9327  -12.9036   -8.4998 C.ar      1 <0>        -0.1701
     17 C16         5.5213  -12.2094   -9.5430 C.ar      1 <0>         0.2461
     18 C17         5.5163  -10.8000   -9.5494 C.ar      1 <0>        -0.2508
     19 C18         4.9074  -10.1005   -8.4960 C.ar      1 <0>         0.2381
     20 O2          4.8925   -8.7478   -8.4957 O.3       1 <0>        -0.4792
     21 C19         6.1386  -10.0694  -10.6521 C.2       1 <0>         0.3953
     22 O3          6.6606  -10.6764  -11.5643 O.2       1 <0>        -0.4331
     23 C20         6.1318   -8.5624  -10.6563 C.3       1 <0>        -0.1540
     24 C21         6.8422   -8.0527  -11.9119 C.3       1 <0>        -0.1147
     25 C22         6.8354   -6.5227  -11.9161 C.3       1 <0>        -0.1177
     26 C23         7.5458   -6.0130  -13.1717 C.3       1 <0>        -0.1212
     27 C24         7.5389   -4.4830  -13.1760 C.3       1 <0>        -0.1195
     28 C25         8.2493   -3.9733  -14.4315 C.3       1 <0>        -0.1213
     29 C26         8.2425   -2.4434  -14.4358 C.3       1 <0>        -0.1202
     30 C27         8.9529   -1.9337  -15.6913 C.3       1 <0>        -0.1214
     31 C28         8.9460   -0.4037  -15.6956 C.3       1 <0>        -0.1211
     32 C29         9.6564    0.1060  -16.9512 C.3       1 <0>        -0.1262
     33 C30         9.6496    1.6360  -16.9554 C.3       1 <0>        -0.1542
     34 O4          6.1041  -12.8868  -10.5606 O.3       1 <0>        -0.4584
     35 C31         4.9442  -14.4106   -8.5030 C.3       1 <0>         0.0093
     36 C32         4.2127  -14.9228   -9.7461 C.3       1 <0>        -0.1452
     37 C33         4.4898  -16.4254   -9.8832 C.3       1 <0>         0.1417
     38 O5          5.8852  -16.6050  -10.1292 O.3       1 <0>        -0.3048
     39 C34         6.7613  -15.9616   -9.3142 C.ar      1 <0>         0.1603
     40 C35         6.3700  -14.9014   -8.5141 C.ar      1 <0>        -0.1483
     41 C36         7.2973  -14.2703   -7.7015 C.ar      1 <0>        -0.0563
     42 C37         8.6111  -14.6935   -7.6816 C.ar      1 <0>        -0.1742
     43 C38         9.0079  -15.7572   -8.4793 C.ar      1 <0>         0.1423
     44 C39         8.0837  -16.3897   -9.2941 C.ar      1 <0>        -0.1750
     45 O6         10.3000  -16.1777   -8.4607 O.3       1 <0>        -0.4959
     46 C40         3.6951  -16.9852  -11.0348 C.ar      1 <0>        -0.0988
     47 C41         4.2008  -16.9171  -12.3199 C.ar      1 <0>        -0.0746
     48 C42         3.4741  -17.4291  -13.3774 C.ar      1 <0>        -0.1457
     49 C43         2.2362  -18.0123  -13.1490 C.ar      1 <0>         0.1129
     50 C44         1.7313  -18.0798  -11.8586 C.ar      1 <0>        -0.1447
     51 C45         2.4642  -17.5710  -10.8039 C.ar      1 <0>        -0.0881
     52 O7          1.5192  -18.5163  -14.1876 O.3       1 <0>        -0.4997
     53 O8          3.7617  -12.9135   -6.4387 O.3       1 <0>        -0.4680
     54 H1          1.0039    1.9031    0.0027 H         1 <0>         0.0533
     55 H2         -0.5459    1.8868   -0.8726 H         1 <0>         0.0533
     56 H3         -0.5289    1.8773    0.9072 H         1 <0>         0.0534
     57 H4          0.5293   -0.3651    0.8851 H         1 <0>         0.0602
     58 H5         -1.0205   -0.3814    0.0098 H         1 <0>         0.0602
     59 H6          0.1910   -0.1364   -2.1398 H         1 <0>         0.0605
     60 H7          1.7408   -0.1202   -1.2645 H         1 <0>         0.0605
     61 H8          1.2661   -2.3884   -0.3821 H         1 <0>         0.0605
     62 H9         -0.2836   -2.4046   -1.2575 H         1 <0>         0.0605
     63 H10         0.9279   -2.1597   -3.4071 H         1 <0>         0.0604
     64 H11         2.4777   -2.1435   -2.5317 H         1 <0>         0.0603
     65 H12         2.0030   -4.4117   -1.6494 H         1 <0>         0.0605
     66 H13         0.4533   -4.4279   -2.5247 H         1 <0>         0.0605
     67 H14         1.6648   -4.1829   -4.6743 H         1 <0>         0.0606
     68 H15         3.2146   -4.1667   -3.7990 H         1 <0>         0.0604
     69 H16         2.7399   -6.4349   -2.9166 H         1 <0>         0.0612
     70 H17         1.1901   -6.4511   -3.7919 H         1 <0>         0.0613
     71 H18         2.4017   -6.2062   -5.9415 H         1 <0>         0.0628
     72 H19         3.9515   -6.1900   -5.0662 H         1 <0>         0.0616
     73 H20         3.4768   -8.4582   -4.1838 H         1 <0>         0.0662
     74 H21         1.9270   -8.4744   -5.0591 H         1 <0>         0.0669
     75 H22         3.1386   -8.2294   -7.2087 H         1 <0>         0.1097
     76 H23         4.6884   -8.2132   -6.3334 H         1 <0>         0.0925
     77 H24         5.1026   -8.2036  -10.6503 H         1 <0>         0.1095
     78 H25         6.6501   -8.1943   -9.7709 H         1 <0>         0.0920
     79 H26         7.8715   -8.4114  -11.9179 H         1 <0>         0.0664
     80 H27         6.3239   -8.4208  -12.7973 H         1 <0>         0.0669
     81 H28         5.8061   -6.1640  -11.9101 H         1 <0>         0.0627
     82 H29         7.3536   -6.1546  -11.0307 H         1 <0>         0.0615
     83 H30         8.5750   -6.3718  -13.1777 H         1 <0>         0.0613
     84 H31         7.0275   -6.3811  -14.0571 H         1 <0>         0.0613
     85 H32         6.5097   -4.1243  -13.1699 H         1 <0>         0.0605
     86 H33         8.0572   -4.1149  -12.2905 H         1 <0>         0.0603
     87 H34         9.2786   -4.3321  -14.4376 H         1 <0>         0.0606
     88 H35         7.7310   -4.3415  -15.3169 H         1 <0>         0.0605
     89 H36         7.2132   -2.0846  -14.4297 H         1 <0>         0.0603
     90 H37         8.7607   -2.0752  -13.5503 H         1 <0>         0.0603
     91 H38         9.9821   -2.2924  -15.6974 H         1 <0>         0.0605
     92 H39         8.4346   -2.3018  -16.5768 H         1 <0>         0.0605
     93 H40         7.9167   -0.0449  -15.6896 H         1 <0>         0.0605
     94 H41         9.4643   -0.0356  -14.8102 H         1 <0>         0.0604
     95 H42        10.6857   -0.2527  -16.9572 H         1 <0>         0.0603
     96 H43         9.1381   -0.2621  -17.8366 H         1 <0>         0.0603
     97 H44        10.1557    1.9991  -17.8499 H         1 <0>         0.0534
     98 H45         8.6203    1.9947  -16.9494 H         1 <0>         0.0533
     99 H46        10.1678    2.0041  -16.0700 H         1 <0>         0.0533
    100 H47         5.5054  -13.0884  -11.2926 H         1 <0>         0.3987
    101 H48         4.4408  -14.7790   -7.6092 H         1 <0>         0.1045
    102 H49         3.1412  -14.7553   -9.6370 H         1 <0>         0.0895
    103 H50         4.5788  -14.3996  -10.6295 H         1 <0>         0.0802
    104 H51         4.2108  -16.9359   -8.9614 H         1 <0>         0.0853
    105 H52         6.9907  -13.4420   -7.0799 H         1 <0>         0.1224
    106 H53         9.3295  -14.1969   -7.0462 H         1 <0>         0.1288
    107 H54         8.3912  -17.2178   -9.9155 H         1 <0>         0.1362
    108 H55        10.4817  -16.8614   -7.8015 H         1 <0>         0.3934
    109 H56         5.1645  -16.4630  -12.4972 H         1 <0>         0.1333
    110 H57         3.8691  -17.3751  -14.3811 H         1 <0>         0.1317
    111 H58         0.7679  -18.5333  -11.6782 H         1 <0>         0.1326
    112 H59         2.0736  -17.6272   -9.7986 H         1 <0>         0.1297
    113 H60         1.7019  -19.4468  -14.3769 H         1 <0>         0.3937
    114 H61         2.8273  -13.1184   -6.5803 H         1 <0>         0.4043
    115 H62         5.6572   -8.3461   -8.0610 H         1 <0>         0.4053
@<TRIPOS>BOND
     1    1    2 1
     2    1   54 1
     3    1   55 1
     4    1   56 1
     5    2    3 1
     6    2   57 1
     7    2   58 1
     8    3    4 1
     9    3   59 1
    10    3   60 1
    11    4    5 1
    12    4   61 1
    13    4   62 1
    14    5    6 1
    15    5   63 1
    16    5   64 1
    17    6    7 1
    18    6   65 1
    19    6   66 1
    20    7    8 1
    21    7   67 1
    22    7   68 1
    23    8    9 1
    24    8   69 1
    25    8   70 1
    26    9   10 1
    27    9   71 1
    28    9   72 1
    29   10   11 1
    30   10   73 1
    31   10   74 1
    32   11   12 1
    33   11   75 1
    34   11   76 1
    35   12   13 2
    36   12   14 1
    37   14   19 ar
    38   14   15 ar
    39   15   16 ar
    40   15   53 1
    41   16   17 ar
    42   16   35 1
    43   17   18 ar
    44   17   34 1
    45   18   19 ar
    46   18   21 1
    47   19   20 1
    48   20  115 1
    49   21   22 2
    50   21   23 1
    51   23   24 1
    52   23   77 1
    53   23   78 1
    54   24   25 1
    55   24   79 1
    56   24   80 1
    57   25   26 1
    58   25   81 1
    59   25   82 1
    60   26   27 1
    61   26   83 1
    62   26   84 1
    63   27   28 1
    64   27   85 1
    65   27   86 1
    66   28   29 1
    67   28   87 1
    68   28   88 1
    69   29   30 1
    70   29   89 1
    71   29   90 1
    72   30   31 1
    73   30   91 1
    74   30   92 1
    75   31   32 1
    76   31   93 1
    77   31   94 1
    78   32   33 1
    79   32   95 1
    80   32   96 1
    81   33   97 1
    82   33   98 1
    83   33   99 1
    84   34  100 1
    85   35   40 1
    86   35   36 1
    87   35  101 1
    88   36   37 1
    89   36  102 1
    90   36  103 1
    91   37   38 1
    92   37   46 1
    93   37  104 1
    94   38   39 1
    95   39   44 ar
    96   39   40 ar
    97   40   41 ar
    98   41   42 ar
    99   41  105 1
   100   42   43 ar
   101   42  106 1
   102   43   44 ar
   103   43   45 1
   104   44  107 1
   105   45  108 1
   106   46   51 ar
   107   46   47 ar
   108   47   48 ar
   109   47  109 1
   110   48   49 ar
   111   48  110 1
   112   49   50 ar
   113   49   52 1
   114   50   51 ar
   115   50  111 1
   116   51  112 1
   117   52  113 1
   118   53  114 1
@<TRIPOS>MOLECULE
ZINC49823272
  114   117     0     0     0
SMALL
USER_CHARGES

@<TRIPOS>ATOM
      1 C1         -0.0187    1.5258    0.0104 C.3       1 <0>        -0.1537
      2 C2          0.0021   -0.0041    0.0020 C.3       1 <0>        -0.1261
      3 C3          0.7182   -0.4975   -1.2568 C.3       1 <0>        -0.1211
      4 C4          0.7390   -2.0273   -1.2652 C.3       1 <0>        -0.1211
      5 C5          1.4551   -2.5207   -2.5240 C.3       1 <0>        -0.1203
      6 C6          1.4758   -4.0506   -2.5324 C.3       1 <0>        -0.1206
      7 C7          2.1920   -4.5440   -3.7912 C.3       1 <0>        -0.1196
      8 C8          2.2127   -6.0738   -3.7996 C.3       1 <0>        -0.1200
      9 C9          2.9289   -6.5673   -5.0584 C.3       1 <0>        -0.1179
     10 C10         2.9496   -8.0971   -5.0668 C.3       1 <0>        -0.1110
     11 C11         3.6658   -8.5905   -6.3257 C.3       1 <0>        -0.1516
     12 C12         3.6862  -10.0973   -6.3339 C.2       1 <0>         0.4047
     13 O1          3.1776  -10.7162   -5.4221 O.2       1 <0>        -0.4855
     14 C13         4.3186  -10.8137   -7.4403 C.ar      1 <0>        -0.3673
     15 C14         4.3339  -12.2231   -7.4534 C.ar      1 <0>         0.2325
     16 C15         4.9317  -12.9037   -8.5001 C.ar      1 <0>        -0.2593
     17 C16         5.5200  -12.2094   -9.5438 C.ar      1 <0>         0.3537
     18 C17         5.5159  -10.8002   -9.5496 C.ar      1 <0>        -0.3539
     19 C18         4.9073  -10.1006   -8.4959 C.ar      1 <0>         0.2555
     20 O2          4.8929   -8.7479   -8.4953 O.3       1 <0>        -0.4964
     21 C19         6.1384  -10.0695  -10.6522 C.2       1 <0>         0.3931
     22 O3          6.6600  -10.6766  -11.5646 O.2       1 <0>        -0.4504
     23 C20         6.1326   -8.5626  -10.6559 C.3       1 <0>        -0.1507
     24 C21         6.8432   -8.0529  -11.9113 C.3       1 <0>        -0.1124
     25 C22         6.8372   -6.5229  -11.9151 C.3       1 <0>        -0.1161
     26 C23         7.5478   -6.0132  -13.1705 C.3       1 <0>        -0.1208
     27 C24         7.5419   -4.4832  -13.1743 C.3       1 <0>        -0.1188
     28 C25         8.2525   -3.9735  -14.4297 C.3       1 <0>        -0.1211
     29 C26         8.2465   -2.4435  -14.4335 C.3       1 <0>        -0.1199
     30 C27         8.9571   -1.9338  -15.6889 C.3       1 <0>        -0.1214
     31 C28         8.9512   -0.4038  -15.6926 C.3       1 <0>        -0.1209
     32 C29         9.6618    0.1059  -16.9481 C.3       1 <0>        -0.1263
     33 C30         9.6559    1.6358  -16.9518 C.3       1 <0>        -0.1535
     34 O4          6.1015  -12.8868  -10.5620 O.3       1 <0>        -0.6096
     35 C31         4.9427  -14.4107   -8.5036 C.3       1 <0>         0.0327
     36 C32         4.2103  -14.9225   -9.7464 C.3       1 <0>        -0.1459
     37 C33         4.4868  -16.4251   -9.8839 C.3       1 <0>         0.1372
     38 O5          5.8820  -16.6051  -10.1308 O.3       1 <0>        -0.3091
     39 C34         6.7588  -15.9622   -9.3162 C.ar      1 <0>         0.1566
     40 C35         6.3683  -14.9019   -8.5157 C.ar      1 <0>        -0.1086
     41 C36         7.2963  -14.2713   -7.7035 C.ar      1 <0>        -0.0546
     42 C37         8.6100  -14.6949   -7.6846 C.ar      1 <0>        -0.1784
     43 C38         9.0060  -15.7587   -8.4826 C.ar      1 <0>         0.1202
     44 C39         8.0811  -16.3907   -9.2970 C.ar      1 <0>        -0.1800
     45 O6         10.2980  -16.1796   -8.4649 O.3       1 <0>        -0.4979
     46 C40         3.6913  -16.9844  -11.0352 C.ar      1 <0>        -0.0818
     47 C41         4.1961  -16.9163  -12.3206 C.ar      1 <0>        -0.0707
     48 C42         3.4686  -17.4278  -13.3777 C.ar      1 <0>        -0.1453
     49 C43         2.2307  -18.0107  -13.1486 C.ar      1 <0>         0.0999
     50 C44         1.7265  -18.0782  -11.8579 C.ar      1 <0>        -0.1472
     51 C45         2.4603  -17.5699  -10.8036 C.ar      1 <0>        -0.0932
     52 O7          1.5129  -18.5143  -14.1869 O.3       1 <0>        -0.5006
     53 O8          3.7624  -12.9136   -6.4383 O.3       1 <0>        -0.4859
     54 H1          1.0039    1.9031    0.0027 H         1 <0>         0.0531
     55 H2         -0.5459    1.8868   -0.8726 H         1 <0>         0.0531
     56 H3         -0.5289    1.8773    0.9072 H         1 <0>         0.0523
     57 H4          0.5293   -0.3651    0.8851 H         1 <0>         0.0600
     58 H5         -1.0205   -0.3814    0.0098 H         1 <0>         0.0600
     59 H6          0.1910   -0.1364   -2.1398 H         1 <0>         0.0604
     60 H7          1.7408   -0.1202   -1.2645 H         1 <0>         0.0603
     61 H8          1.2661   -2.3884   -0.3821 H         1 <0>         0.0602
     62 H9         -0.2836   -2.4046   -1.2575 H         1 <0>         0.0602
     63 H10         0.9279   -2.1597   -3.4071 H         1 <0>         0.0601
     64 H11         2.4777   -2.1435   -2.5317 H         1 <0>         0.0601
     65 H12         2.0030   -4.4117   -1.6494 H         1 <0>         0.0599
     66 H13         0.4533   -4.4279   -2.5247 H         1 <0>         0.0599
     67 H14         1.6648   -4.1829   -4.6743 H         1 <0>         0.0600
     68 H15         3.2146   -4.1667   -3.7990 H         1 <0>         0.0598
     69 H16         2.7399   -6.4349   -2.9166 H         1 <0>         0.0597
     70 H17         1.1901   -6.4511   -3.7919 H         1 <0>         0.0598
     71 H18         2.4017   -6.2062   -5.9415 H         1 <0>         0.0605
     72 H19         3.9515   -6.1900   -5.0662 H         1 <0>         0.0593
     73 H20         3.4768   -8.4582   -4.1838 H         1 <0>         0.0612
     74 H21         1.9270   -8.4744   -5.0591 H         1 <0>         0.0618
     75 H22         3.1386   -8.2294   -7.2087 H         1 <0>         0.0991
     76 H23         4.6884   -8.2132   -6.3334 H         1 <0>         0.0827
     77 H24         5.1036   -8.2032  -10.6496 H         1 <0>         0.0950
     78 H25         6.6512   -8.1951   -9.7704 H         1 <0>         0.0780
     79 H26         7.8722   -8.4122  -11.9176 H         1 <0>         0.0612
     80 H27         6.3246   -8.4204  -12.7968 H         1 <0>         0.0622
     81 H28         5.8082   -6.1635  -11.9088 H         1 <0>         0.0594
     82 H29         7.3558   -6.1554  -11.0296 H         1 <0>         0.0582
     83 H30         8.5768   -6.3726  -13.1768 H         1 <0>         0.0600
     84 H31         7.0292   -6.3807  -14.0560 H         1 <0>         0.0601
     85 H32         6.5129   -4.1238  -13.1680 H         1 <0>         0.0595
     86 H33         8.0605   -4.1157  -12.2888 H         1 <0>         0.0593
     87 H34         9.2815   -4.3329  -14.4360 H         1 <0>         0.0601
     88 H35         7.7339   -4.3410  -15.3152 H         1 <0>         0.0601
     89 H36         7.2175   -2.0841  -14.4272 H         1 <0>         0.0599
     90 H37         8.7651   -2.0760  -13.5480 H         1 <0>         0.0598
     91 H38         9.9861   -2.2932  -15.6952 H         1 <0>         0.0603
     92 H39         8.4385   -2.3013  -16.5744 H         1 <0>         0.0603
     93 H40         7.9222   -0.0445  -15.6864 H         1 <0>         0.0602
     94 H41         9.4698   -0.0363  -14.8072 H         1 <0>         0.0602
     95 H42        10.6908   -0.2535  -16.9544 H         1 <0>         0.0601
     96 H43         9.1432   -0.2616  -17.8336 H         1 <0>         0.0601
     97 H44        10.1621    1.9990  -17.8463 H         1 <0>         0.0522
     98 H45         8.6268    1.9952  -16.9456 H         1 <0>         0.0529
     99 H46        10.1745    2.0033  -16.0663 H         1 <0>         0.0529
    100 H47         4.4397  -14.7791   -7.6096 H         1 <0>         0.0783
    101 H48         3.1389  -14.7546   -9.6366 H         1 <0>         0.0697
    102 H49         4.5760  -14.3992  -10.6299 H         1 <0>         0.1105
    103 H50         4.2082  -16.9356   -8.9621 H         1 <0>         0.0745
    104 H51         6.9903  -13.4430   -7.0816 H         1 <0>         0.1238
    105 H52         9.3289  -14.1987   -7.0495 H         1 <0>         0.1210
    106 H53         8.3879  -17.2188   -9.9188 H         1 <0>         0.1272
    107 H54        10.4798  -16.8635   -7.8059 H         1 <0>         0.3826
    108 H55         5.1599  -16.4624  -12.4983 H         1 <0>         0.1358
    109 H56         3.8631  -17.3738  -14.3816 H         1 <0>         0.1284
    110 H57         0.7631  -18.5315  -11.6770 H         1 <0>         0.1281
    111 H58         2.0702  -17.6261   -9.7980 H         1 <0>         0.1280
    112 H59         1.6952  -19.4448  -14.3764 H         1 <0>         0.3870
    113 H60         2.8279  -13.1185   -6.5792 H         1 <0>         0.3834
    114 H61         5.6579   -8.3466   -8.0607 H         1 <0>         0.3867
@<TRIPOS>BOND
     1    1    2 1
     2    1   54 1
     3    1   55 1
     4    1   56 1
     5    2    3 1
     6    2   57 1
     7    2   58 1
     8    3    4 1
     9    3   59 1
    10    3   60 1
    11    4    5 1
    12    4   61 1
    13    4   62 1
    14    5    6 1
    15    5   63 1
    16    5   64 1
    17    6    7 1
    18    6   65 1
    19    6   66 1
    20    7    8 1
    21    7   67 1
    22    7   68 1
    23    8    9 1
    24    8   69 1
    25    8   70 1
    26    9   10 1
    27    9   71 1
    28    9   72 1
    29   10   11 1
    30   10   73 1
    31   10   74 1
    32   11   12 1
    33   11   75 1
    34   11   76 1
    35   12   13 2
    36   12   14 1
    37   14   19 ar
    38   14   15 ar
    39   15   16 ar
    40   15   53 1
    41   16   17 ar
    42   16   35 1
    43   17   18 ar
    44   17   34 1
    45   18   19 ar
    46   18   21 1
    47   19   20 1
    48   20  114 1
    49   21   22 2
    50   21   23 1
    51   23   24 1
    52   23   77 1
    53   23   78 1
    54   24   25 1
    55   24   79 1
    56   24   80 1
    57   25   26 1
    58   25   81 1
    59   25   82 1
    60   26   27 1
    61   26   83 1
    62   26   84 1
    63   27   28 1
    64   27   85 1
    65   27   86 1
    66   28   29 1
    67   28   87 1
    68   28   88 1
    69   29   30 1
    70   29   89 1
    71   29   90 1
    72   30   31 1
    73   30   91 1
    74   30   92 1
    75   31   32 1
    76   31   93 1
    77   31   94 1
    78   32   33 1
    79   32   95 1
    80   32   96 1
    81   33   97 1
    82   33   98 1
    83   33   99 1
    84   35   40 1
    85   35   36 1
    86   35  100 1
    87   36   37 1
    88   36  101 1
    89   36  102 1
    90   37   38 1
    91   37   46 1
    92   37  103 1
    93   38   39 1
    94   39   44 ar
    95   39   40 ar
    96   40   41 ar
    97   41   42 ar
    98   41  104 1
    99   42   43 ar
   100   42  105 1
   101   43   44 ar
   102   43   45 1
   103   44  106 1
   104   45  107 1
   105   46   51 ar
   106   46   47 ar
   107   47   48 ar
   108   47  108 1
   109   48   49 ar
   110   48  109 1
   111   49   50 ar
   112   49   52 1
   113   50   51 ar
   114   50  110 1
   115   51  111 1
   116   52  112 1
   117   53  113 1
@<TRIPOS>MOLECULE
ZINC05977595
   66    68     0     0     0
SMALL
USER_CHARGES
5-hydroxy-4-[6-hydroxy-5-[4-methyl-6-(2,6,6-trimethyl-1-cyclohexenyl)-hex-3-enyl]-3,6-dihydro-2H-pyran-2-yl]-5H-furan-2-one
@<TRIPOS>ATOM
      1 C1         -3.8369    8.6334   -8.3974 C.3       1 <0>        -0.1273
      2 C2         -3.5563    8.3509   -9.8508 C.2       1 <0>        -0.1223
      3 C3         -2.8213    7.3251  -10.1389 C.2       1 <0>        -0.1126
      4 C4         -2.4440    6.9267  -11.5356 C.3       1 <0>        -0.0219
      5 C5         -3.3748    7.6055  -12.5452 C.3       1 <0>        -0.1103
      6 C6         -3.4324    9.1026  -12.2163 C.3       1 <0>        -0.1225
      7 C7         -4.1469    9.2761  -10.8742 C.3       1 <0>        -0.0816
      8 C8         -0.9984    7.3463  -11.8097 C.3       1 <0>        -0.1384
      9 C9         -2.5643    5.4083  -11.6799 C.3       1 <0>        -0.1430
     10 C10        -2.3074    6.4820   -9.0004 C.3       1 <0>        -0.0813
     11 C11        -3.2520    5.2998   -8.7744 C.3       1 <0>        -0.0867
     12 C12        -2.7381    4.4568   -7.6359 C.2       1 <0>        -0.1222
     13 C13        -3.1921    4.6483   -6.4221 C.2       1 <0>        -0.1666
     14 C14        -2.5943    3.8893   -5.2655 C.3       1 <0>        -0.0880
     15 C15        -2.1253    4.8769   -4.1953 C.3       1 <0>        -0.0744
     16 C16        -1.5275    4.1179   -3.0387 C.2       1 <0>        -0.1432
     17 C17        -0.2400    3.9419   -3.0097 C.2       1 <0>        -0.1249
     18 C18         0.4485    3.1913   -1.9033 C.3       1 <0>        -0.1205
     19 C19        -0.4934    3.0690   -0.7022 C.3       1 <0>         0.1462
     20 H1         -0.5998    4.0398   -0.2180 H         1 <0>         0.0946
     21 O1         -1.7708    2.6219   -1.1733 O.3       1 <0>        -0.3676
     22 C20        -2.4457    3.5981   -1.9693 C.3       1 <0>         0.2953
     23 H2         -3.3206    3.1433   -2.4339 H         1 <0>         0.1113
     24 O2         -2.8614    4.6829   -1.1370 O.3       1 <0>        -0.5710
     25 C21         0.0633    2.0705    0.2797 C.2       1 <0>        -0.0733
     26 C22         0.4647    2.3201    1.5251 C.2       1 <0>        -0.1927
     27 C23         0.9401    1.0801    2.1446 C.2       1 <0>         0.5040
     28 O3          1.3712    0.9869    3.2771 O.2       1 <0>        -0.4395
     29 O4          0.8294    0.0597    1.2735 O.3       1 <0>        -0.3467
     30 C24         0.2731    0.5937    0.0394 C.3       1 <0>         0.2756
     31 H3          0.9718    0.4429   -0.7835 H         1 <0>         0.1245
     32 O5         -0.9743   -0.0394   -0.2525 O.3       1 <0>        -0.5200
     33 C25        -1.7019    3.3933   -7.8937 C.3       1 <0>        -0.1184
     34 H4         -3.0637    9.2906   -7.9992 H         1 <0>         0.0640
     35 H5         -4.8091    9.1170   -8.3023 H         1 <0>         0.0585
     36 H6         -3.8407    7.6971   -7.8394 H         1 <0>         0.0690
     37 H7         -4.3740    7.1760  -12.4740 H         1 <0>         0.0638
     38 H8         -2.9875    7.4668  -13.5546 H         1 <0>         0.0643
     39 H9         -3.9841    9.6281  -12.9957 H         1 <0>         0.0639
     40 H10        -2.4204    9.5017  -12.1469 H         1 <0>         0.0663
     41 H11        -5.2061    9.0502  -10.9970 H         1 <0>         0.0708
     42 H12        -4.0339   10.3066  -10.5376 H         1 <0>         0.0688
     43 H13        -0.3358    6.8529  -11.0986 H         1 <0>         0.0547
     44 H14        -0.7224    7.0577  -12.8240 H         1 <0>         0.0560
     45 H15        -0.9071    8.4271  -11.7019 H         1 <0>         0.0565
     46 H16        -3.5918    5.1046  -11.4793 H         1 <0>         0.0571
     47 H17        -2.2907    5.1168  -12.6939 H         1 <0>         0.0543
     48 H18        -1.8963    4.9217  -10.9692 H         1 <0>         0.0604
     49 H19        -2.2581    7.0861   -8.0944 H         1 <0>         0.0727
     50 H20        -1.3120    6.1104   -9.2439 H         1 <0>         0.0661
     51 H21        -3.3013    4.6958   -9.6804 H         1 <0>         0.0791
     52 H22        -4.2473    5.6715   -8.5309 H         1 <0>         0.0657
     53 H23        -3.9947    5.3502   -6.2503 H         1 <0>         0.1077
     54 H24        -1.7450    3.3028   -5.6159 H         1 <0>         0.0724
     55 H25        -3.3455    3.2232   -4.8411 H         1 <0>         0.0684
     56 H26        -2.9746    5.4634   -3.8449 H         1 <0>         0.0764
     57 H27        -1.3741    5.5430   -4.6198 H         1 <0>         0.0730
     58 H28         0.3582    4.3503   -3.8109 H         1 <0>         0.1233
     59 H29         1.3487    3.7290   -1.6054 H         1 <0>         0.0937
     60 H30         0.7202    2.1958   -2.2544 H         1 <0>         0.0888
     61 H31        -3.4653    4.4250   -0.4272 H         1 <0>         0.3878
     62 H32         0.4429    3.2876    2.0044 H         1 <0>         0.1766
     63 H33        -0.9062   -0.9924   -0.4018 H         1 <0>         0.3955
     64 H34        -2.0668    2.4339   -7.5268 H         1 <0>         0.0653
     65 H35        -1.5111    3.3240   -8.9647 H         1 <0>         0.0596
     66 H36        -0.7784    3.6528   -7.3762 H         1 <0>         0.0648
@<TRIPOS>BOND
     1    1    2 1
     2    1   34 1
     3    1   35 1
     4    1   36 1
     5    2    7 1
     6    2    3 2
     7    3    4 1
     8    3   10 1
     9    4    5 1
    10    4    8 1
    11    4    9 1
    12    5    6 1
    13    5   37 1
    14    5   38 1
    15    6    7 1
    16    6   39 1
    17    6   40 1
    18    7   41 1
    19    7   42 1
    20    8   43 1
    21    8   44 1
    22    8   45 1
    23    9   46 1
    24    9   47 1
    25    9   48 1
    26   10   11 1
    27   10   49 1
    28   10   50 1
    29   11   12 1
    30   11   51 1
    31   11   52 1
    32   12   13 2
    33   12   33 1
    34   13   14 1
    35   13   53 1
    36   14   15 1
    37   14   54 1
    38   14   55 1
    39   15   16 1
    40   15   56 1
    41   15   57 1
    42   16   22 1
    43   16   17 2
    44   17   18 1
    45   17   58 1
    46   18   19 1
    47   18   59 1
    48   18   60 1
    49   19   20 1
    50   19   21 1
    51   19   25 1
    52   21   22 1
    53   22   23 1
    54   22   24 1
    55   24   61 1
    56   25   30 1
    57   25   26 2
    58   26   27 1
    59   26   62 1
    60   27   28 2
    61   27   29 1
    62   29   30 1
    63   30   31 1
    64   30   32 1
    65   32   63 1
    66   33   64 1
    67   33   65 1
    68   33   66 1
@<TRIPOS>MOLECULE
ZINC11945831
   33    34     0     0     0
SMALL
USER_CHARGES
2-(4-phenoxyphenoxy)ethanamine
@<TRIPOS>ATOM
      1 C1         -0.0063    1.0769   -0.0636 C.ar      1 <0>        -0.1155
      2 C2          0.3403    1.7465    1.0954 C.ar      1 <0>        -0.1004
      3 C3          0.3256    3.1274    1.1274 C.ar      1 <0>        -0.1193
      4 C4         -0.0482    3.8424   -0.0016 C.ar      1 <0>         0.0768
      5 C5         -0.4006    3.1678   -1.1618 C.ar      1 <0>        -0.1413
      6 C6         -0.3786    1.7869   -1.1902 C.ar      1 <0>        -0.1034
      7 O1         -0.0685    5.2007    0.0288 O.3       1 <0>        -0.2517
      8 C7         -1.2739    5.8232   -0.0614 C.ar      1 <0>         0.1078
      9 C8         -2.4426    5.0757   -0.0580 C.ar      1 <0>        -0.1558
     10 C9         -3.6673    5.7086   -0.1439 C.ar      1 <0>        -0.1614
     11 C10        -3.7282    7.0906   -0.2450 C.ar      1 <0>         0.0766
     12 C11        -2.5595    7.8377   -0.2542 C.ar      1 <0>        -0.1005
     13 C12        -1.3350    7.2054   -0.1626 C.ar      1 <0>        -0.1048
     14 O2         -4.9337    7.7132   -0.3357 O.3       1 <0>        -0.3295
     15 C13        -6.0959    6.8819   -0.3202 C.3       1 <0>         0.0207
     16 C14        -7.3482    7.7539   -0.4305 C.3       1 <0>         0.0074
     17 H1          0.0096   -0.0027   -0.0877 H         1 <0>         0.1322
     18 H2          0.6265    1.1895    1.9753 H         1 <0>         0.1357
     19 H3          0.6000    3.6501    2.0318 H         1 <0>         0.1347
     20 H4         -0.6922    3.7219   -2.0418 H         1 <0>         0.1287
     21 H5         -0.6529    1.2614   -2.0930 H         1 <0>         0.1322
     22 H6         -2.3950    3.9994    0.0163 H         1 <0>         0.1382
     23 H7         -4.5773    5.1271   -0.1364 H         1 <0>         0.1310
     24 H8         -2.6071    8.9137   -0.3333 H         1 <0>         0.1428
     25 H9         -0.4250    7.7871   -0.1694 H         1 <0>         0.1476
     26 H10        -6.0593    6.1905   -1.1620 H         1 <0>         0.0867
     27 H11        -6.1269    6.3179    0.6121 H         1 <0>         0.1084
     28 H12        -8.2359    7.1295   -0.3296 H         1 <0>         0.1541
     29 H13        -7.3397    8.5038    0.3605 H         1 <0>         0.1434
     30 H14        -7.3091    7.7500   -2.4889 H         1 <0>         0.4369
     31 H15        -8.1840    9.0047   -1.8361 H         1 <0>         0.4421
     32 N1         -7.3447    8.4360   -1.7367 N.4       1 <0>        -0.6470
     33 H16        -6.5192    9.0435   -1.7980 H         1 <0>         0.4466
@<TRIPOS>BOND
     1    1    6 ar
     2    1    2 ar
     3    1   17 1
     4    2    3 ar
     5    2   18 1
     6    3    4 ar
     7    3   19 1
     8    4    5 ar
     9    4    7 1
    10    5    6 ar
    11    5   20 1
    12    6   21 1
    13    7    8 1
    14    8   13 ar
    15    8    9 ar
    16    9   10 ar
    17    9   22 1
    18   10   11 ar
    19   10   23 1
    20   11   12 ar
    21   11   14 1
    22   12   13 ar
    23   12   24 1
    24   13   25 1
    25   14   15 1
    26   15   16 1
    27   15   26 1
    28   15   27 1
    29   16   28 1
    30   16   29 1
    31   16   32 1
    32   30   32 1
    33   31   32 1
    34   32   33 1
