@<TRIPOS>MOLECULE
ZINC02465914
   54    57     0     0     0
SMALL
USER_CHARGES

@<TRIPOS>ATOM
      1 C1         -0.0187    1.5258    0.0104 C.3       1 <0>        -0.1491
      2 C2          0.0021   -0.0041    0.0020 C.3       1 <0>        -0.0609
      3 C3          0.7421   -0.5109    1.2415 C.3       1 <0>        -0.1467
      4 C4         -1.4333   -0.5336    0.0129 C.3       1 <0>        -0.1457
      5 C5          0.7182   -0.4975   -1.2568 C.3       1 <0>        -0.0802
      6 H1          0.7330   -1.5874   -1.2629 H         1 <0>         0.0761
      7 C6         -0.0221    0.0099   -2.4974 C.3       1 <0>        -0.1204
      8 C7          0.5377   -0.6829   -3.7455 C.3       1 <0>        -0.0503
      9 C8          2.0423   -0.5684   -3.7205 C.2       1 <0>         0.0747
     10 C9          2.7589   -0.2493   -2.6220 C.2       1 <0>        -0.2079
     11 C10         4.1237   -0.2357   -2.9771 C.2       1 <0>         0.0772
     12 N1          4.2072   -0.5400   -4.2517 N.2       1 <0>        -0.2939
     13 O1          2.8918   -0.7544   -4.7352 O.3       1 <0>        -0.0519
     14 C11         5.2599    0.0681   -2.0738 C.2       1 <0>         0.5962
     15 O2          5.0533    0.3376   -0.9069 O.2       1 <0>        -0.4946
     16 N2          6.5217    0.0454   -2.5469 N.am      1 <0>        -0.6236
     17 C12         7.5995    0.3336   -1.6901 C.2       1 <0>        -0.0056
     18 C13         7.5089    0.6531   -0.3272 C.2       1 <0>         0.0545
     19 N3          8.7181    0.8555    0.1293 N.2       1 <0>        -0.2718
     20 N4          9.6238    0.6730   -0.9235 N.pl3     1 <0>        -0.3653
     21 C14         8.9131    0.3462   -2.0337 C.2       1 <0>         0.0294
     22 C15        11.0805    0.8050   -0.8402 C.3       1 <0>         0.1825
     23 C16        11.4311    2.1635   -0.2901 C.ar      1 <0>        -0.1261
     24 C17        11.6095    3.2316   -1.1495 C.ar      1 <0>        -0.0688
     25 C18        11.9307    4.4780   -0.6462 C.ar      1 <0>        -0.1584
     26 C19        12.0737    4.6567    0.7193 C.ar      1 <0>         0.1116
     27 C20        11.8948    3.5863    1.5790 C.ar      1 <0>        -0.1564
     28 C21        11.5685    2.3420    1.0738 C.ar      1 <0>        -0.0518
     29 F1         12.3881    5.8746    1.2124 F         1 <0>        -0.1367
     30 C22         2.1568    0.0335   -1.2679 C.3       1 <0>        -0.0453
     31 H2          1.0039    1.9031    0.0027 H         1 <0>         0.0601
     32 H3         -0.5459    1.8868   -0.8726 H         1 <0>         0.0570
     33 H4         -0.5289    1.8773    0.9072 H         1 <0>         0.0551
     34 H5          0.2319   -0.1594    2.1383 H         1 <0>         0.0552
     35 H6          0.7568   -1.6008    1.2356 H         1 <0>         0.0543
     36 H7          1.7647   -0.1336    1.2338 H         1 <0>         0.0612
     37 H8         -1.9605   -0.1726   -0.8702 H         1 <0>         0.0585
     38 H9         -1.4185   -1.6235    0.0069 H         1 <0>         0.0551
     39 H10        -1.9435   -0.1821    0.9097 H         1 <0>         0.0559
     40 H11        -1.0847   -0.2140   -2.4033 H         1 <0>         0.0890
     41 H12         0.1156    1.0874   -2.5873 H         1 <0>         0.0753
     42 H13         0.2501   -1.7342   -3.7411 H         1 <0>         0.1022
     43 H14         0.1481   -0.1970   -4.6401 H         1 <0>         0.0991
     44 H15         6.6867   -0.1697   -3.4783 H         1 <0>         0.4175
     45 H16         6.5968    0.7205    0.2471 H         1 <0>         0.2060
     46 H17         9.3187    0.1372   -3.0125 H         1 <0>         0.1797
     47 H18        11.4783    0.0327   -0.1818 H         1 <0>         0.0984
     48 H19        11.5129    0.6929   -1.8344 H         1 <0>         0.1087
     49 H20        11.4983    3.0919   -2.2147 H         1 <0>         0.1323
     50 H21        12.0703    5.3122   -1.3178 H         1 <0>         0.1380
     51 H22        12.0064    3.7245    2.6443 H         1 <0>         0.1392
     52 H23        11.4245    1.5079    1.7446 H         1 <0>         0.1366
     53 H24         2.1528    1.1081   -1.0853 H         1 <0>         0.0850
     54 H25         2.7392   -0.4683   -0.4952 H         1 <0>         0.0897
@<TRIPOS>BOND
     1    1    2 1
     2    1   31 1
     3    1   32 1
     4    1   33 1
     5    2    3 1
     6    2    4 1
     7    2    5 1
     8    3   34 1
     9    3   35 1
    10    3   36 1
    11    4   37 1
    12    4   38 1
    13    4   39 1
    14    5    6 1
    15    5   30 1
    16    5    7 1
    17    7    8 1
    18    7   40 1
    19    7   41 1
    20    8    9 1
    21    8   42 1
    22    8   43 1
    23    9   13 1
    24    9   10 2
    25   10   11 1
    26   10   30 1
    27   11   12 2
    28   11   14 1
    29   12   13 1
    30   14   15 2
    31   14   16 am
    32   16   17 1
    33   16   44 1
    34   17   21 2
    35   17   18 1
    36   18   19 2
    37   18   45 1
    38   19   20 1
    39   20   21 1
    40   20   22 1
    41   21   46 1
    42   22   23 1
    43   22   47 1
    44   22   48 1
    45   23   28 ar
    46   23   24 ar
    47   24   25 ar
    48   24   49 1
    49   25   26 ar
    50   25   50 1
    51   26   27 ar
    52   26   29 1
    53   27   28 ar
    54   27   51 1
    55   28   52 1
    56   30   53 1
    57   30   54 1
@<TRIPOS>MOLECULE
ZINC02465917
   54    57     0     0     0
SMALL
USER_CHARGES

@<TRIPOS>ATOM
      1 C1         -0.0187    1.5258    0.0104 C.3       1 <0>        -0.1467
      2 C2          0.0021   -0.0041    0.0020 C.3       1 <0>        -0.0609
      3 C3          0.7421   -0.5109    1.2415 C.3       1 <0>        -0.1490
      4 C4         -1.4333   -0.5336    0.0129 C.3       1 <0>        -0.1457
      5 C5          0.7182   -0.4975   -1.2568 C.3       1 <0>        -0.0803
      6 H1          0.1911   -0.1364   -2.1399 H         1 <0>         0.0760
      7 C6          0.7393   -2.0285   -1.2652 C.3       1 <0>        -0.1203
      8 C7          1.2259   -2.5254   -2.6318 C.3       1 <0>        -0.0504
      9 C8          2.5008   -1.7960   -2.9784 C.2       1 <0>         0.0746
     10 C9          2.9134   -0.6628   -2.3720 C.2       1 <0>        -0.2078
     11 C10         4.1385   -0.2751   -2.9533 C.2       1 <0>         0.0771
     12 N1          4.4378   -1.1575   -3.8785 N.2       1 <0>        -0.2939
     13 O1          3.4050   -2.1283   -3.9048 O.3       1 <0>        -0.0519
     14 C11         4.9432    0.9153   -2.5863 C.2       1 <0>         0.5962
     15 O2          4.5580    1.6620   -1.7083 O.2       1 <0>        -0.4946
     16 N2          6.1018    1.1690   -3.2264 N.am      1 <0>        -0.6236
     17 C12         6.8651    2.2981   -2.8783 C.2       1 <0>        -0.0056
     18 C13         6.5463    3.2369   -1.8860 C.2       1 <0>         0.0545
     19 N3          7.4923    4.1400   -1.8549 N.2       1 <0>        -0.2719
     20 N4          8.4483    3.8118   -2.8245 N.pl3     1 <0>        -0.3652
     21 C14         8.0445    2.6700   -3.4391 C.2       1 <0>         0.0293
     22 C15         9.6707    4.5636   -3.1192 C.3       1 <0>         0.1825
     23 C16         9.3176    5.9960   -3.4269 C.ar      1 <0>        -0.1261
     24 C17         9.0404    6.3750   -4.7272 C.ar      1 <0>        -0.0688
     25 C18         8.7161    7.6881   -5.0105 C.ar      1 <0>        -0.1583
     26 C19         8.6688    8.6243   -3.9915 C.ar      1 <0>         0.1116
     27 C20         8.9466    8.2435   -2.6896 C.ar      1 <0>        -0.1564
     28 C21         9.2656    6.9287   -2.4079 C.ar      1 <0>        -0.0518
     29 F1          8.3523    9.9084   -4.2673 F         1 <0>        -0.1367
     30 C22         2.1570    0.0330   -1.2676 C.3       1 <0>        -0.0453
     31 H2          1.0039    1.9031    0.0027 H         1 <0>         0.0612
     32 H3         -0.5459    1.8868   -0.8726 H         1 <0>         0.0542
     33 H4         -0.5289    1.8773    0.9072 H         1 <0>         0.0552
     34 H5          0.2319   -0.1594    2.1383 H         1 <0>         0.0550
     35 H6          0.7568   -1.6008    1.2356 H         1 <0>         0.0570
     36 H7          1.7647   -0.1336    1.2338 H         1 <0>         0.0601
     37 H8         -1.9605   -0.1726   -0.8702 H         1 <0>         0.0551
     38 H9         -1.4185   -1.6235    0.0069 H         1 <0>         0.0585
     39 H10        -1.9435   -0.1821    0.9097 H         1 <0>         0.0559
     40 H11         1.4134   -2.3869   -0.4872 H         1 <0>         0.0754
     41 H12        -0.2657   -2.4068   -1.0778 H         1 <0>         0.0890
     42 H13         1.4182   -3.5973   -2.5847 H         1 <0>         0.0991
     43 H14         0.4684   -2.3187   -3.3878 H         1 <0>         0.1021
     44 H15         6.4092    0.5729   -3.9272 H         1 <0>         0.4175
     45 H16         5.6698    3.2175   -1.2554 H         1 <0>         0.2060
     46 H17         8.5653    2.1533   -4.2316 H         1 <0>         0.1797
     47 H18        10.3347    4.5306   -2.2554 H         1 <0>         0.0984
     48 H19        10.1716    4.1199   -3.9797 H         1 <0>         0.1088
     49 H20         9.0777    5.6446   -5.5219 H         1 <0>         0.1323
     50 H21         8.4999    7.9841   -6.0264 H         1 <0>         0.1380
     51 H22         8.9103    8.9730   -1.8940 H         1 <0>         0.1392
     52 H23         9.4779    6.6305   -1.3918 H         1 <0>         0.1366
     53 H24         2.1504    1.1080   -1.4480 H         1 <0>         0.0897
     54 H25         2.6324   -0.1758   -0.3092 H         1 <0>         0.0851
@<TRIPOS>BOND
     1    1    2 1
     2    1   31 1
     3    1   32 1
     4    1   33 1
     5    2    3 1
     6    2    4 1
     7    2    5 1
     8    3   34 1
     9    3   35 1
    10    3   36 1
    11    4   37 1
    12    4   38 1
    13    4   39 1
    14    5    6 1
    15    5   30 1
    16    5    7 1
    17    7    8 1
    18    7   40 1
    19    7   41 1
    20    8    9 1
    21    8   42 1
    22    8   43 1
    23    9   13 1
    24    9   10 2
    25   10   11 1
    26   10   30 1
    27   11   12 2
    28   11   14 1
    29   12   13 1
    30   14   15 2
    31   14   16 am
    32   16   17 1
    33   16   44 1
    34   17   21 2
    35   17   18 1
    36   18   19 2
    37   18   45 1
    38   19   20 1
    39   20   21 1
    40   20   22 1
    41   21   46 1
    42   22   23 1
    43   22   47 1
    44   22   48 1
    45   23   28 ar
    46   23   24 ar
    47   24   25 ar
    48   24   49 1
    49   25   26 ar
    50   25   50 1
    51   26   27 ar
    52   26   29 1
    53   27   28 ar
    54   27   51 1
    55   28   52 1
    56   30   53 1
    57   30   54 1
@<TRIPOS>MOLECULE
ZINC02465908
   57    60     0     0     0
SMALL
USER_CHARGES

@<TRIPOS>ATOM
      1 C1         -0.0184    1.5028    0.0103 C.3       1 <0>        -0.1266
      2 C2          0.0021   -0.0041    0.0020 C.ar      1 <0>        -0.0434
      3 C3          0.0057   -0.6888   -1.1991 C.ar      1 <0>        -0.1263
      4 C4          0.0245   -2.0707   -1.2067 C.ar      1 <0>        -0.1028
      5 C5          0.0400   -2.7685   -0.0132 C.ar      1 <0>        -0.1320
      6 C6          0.0373   -2.0840    1.1875 C.ar      1 <0>        -0.0952
      7 C7          0.0229   -0.7015    1.1951 C.ar      1 <0>        -0.1194
      8 C8          0.0252    0.0449    2.5043 C.3       1 <0>         0.1799
      9 N1         -1.3518    0.3727    2.8820 N.pl3     1 <0>        -0.3619
     10 C9         -1.9546    0.0579    4.0576 C.2       1 <0>         0.0297
     11 C10        -3.2229    0.5404    4.0096 C.2       1 <0>        -0.0068
     12 C11        -3.3972    1.1678    2.7672 C.2       1 <0>         0.0529
     13 N2         -2.2777    1.0715    2.0970 N.2       1 <0>        -0.2699
     14 N3         -4.1902    0.4302    5.0251 N.am      1 <0>        -0.6232
     15 C12        -5.4177    0.9572    4.8465 C.2       1 <0>         0.5959
     16 O1         -5.6889    1.5276    3.8082 O.2       1 <0>        -0.4950
     17 C13        -6.4374    0.8411    5.9170 C.2       1 <0>         0.0773
     18 C14        -7.7569    1.3366    5.8667 C.2       1 <0>        -0.2078
     19 C15        -8.3651    1.0310    7.0323 C.2       1 <0>         0.0743
     20 O2         -7.4920    0.3716    7.7999 O.3       1 <0>        -0.0522
     21 N4         -6.2762    0.2534    7.0801 N.2       1 <0>        -0.2939
     22 C16        -9.7912    1.3966    7.3641 C.3       1 <0>        -0.0503
     23 C17       -10.2535    2.4830    6.3858 C.3       1 <0>        -0.1203
     24 C18        -9.9359    2.0478    4.9525 C.3       1 <0>        -0.0803
     25 H1        -10.3044    1.0350    4.7901 H         1 <0>         0.0760
     26 C19        -8.4184    2.0811    4.7335 C.3       1 <0>        -0.0451
     27 C20       -10.6146    3.0017    3.9674 C.3       1 <0>        -0.0609
     28 C21       -10.0969    4.4233    4.1953 C.3       1 <0>        -0.1490
     29 C22       -10.2971    2.5667    2.5353 C.3       1 <0>        -0.1467
     30 C23       -12.1284    2.9690    4.1867 C.3       1 <0>        -0.1456
     31 H2          1.0042    1.8801    0.0026 H         1 <0>         0.0677
     32 H3         -0.5455    1.8639   -0.8728 H         1 <0>         0.0681
     33 H4         -0.5286    1.8543    0.9071 H         1 <0>         0.0849
     34 H5         -0.0064   -0.1437   -2.1314 H         1 <0>         0.1243
     35 H6          0.0266   -2.6056   -2.1449 H         1 <0>         0.1236
     36 H7          0.0540   -3.8484   -0.0191 H         1 <0>         0.1234
     37 H8          0.0491   -2.6290    2.1199 H         1 <0>         0.1210
     38 H9          0.4754   -0.5783    3.2770 H         1 <0>         0.1051
     39 H10         0.6013    0.9641    2.3974 H         1 <0>         0.0969
     40 H11        -1.5067   -0.4790    4.8807 H         1 <0>         0.1787
     41 H12        -4.3000    1.6511    2.4240 H         1 <0>         0.2054
     42 H13        -3.9737   -0.0250    5.8538 H         1 <0>         0.4172
     43 H14       -10.4277    0.5176    7.2630 H         1 <0>         0.1020
     44 H15        -9.8443    1.7758    8.3846 H         1 <0>         0.0990
     45 H16       -11.3280    2.6327    6.4903 H         1 <0>         0.0889
     46 H17        -9.7336    3.4154    6.6060 H         1 <0>         0.0753
     47 H18        -8.0718    3.1144    4.7215 H         1 <0>         0.0851
     48 H19        -8.1737    1.6004    3.7863 H         1 <0>         0.0895
     49 H20        -9.0184    4.4466    4.0391 H         1 <0>         0.0602
     50 H21       -10.5804    5.1029    3.4935 H         1 <0>         0.0550
     51 H22       -10.3230    4.7332    5.2155 H         1 <0>         0.0570
     52 H23       -10.6660    1.5540    2.3730 H         1 <0>         0.0542
     53 H24       -10.7807    3.2463    1.8336 H         1 <0>         0.0552
     54 H25        -9.2186    2.5901    2.3791 H         1 <0>         0.0612
     55 H26       -12.3546    3.2789    5.2069 H         1 <0>         0.0586
     56 H27       -12.6120    3.6486    3.4849 H         1 <0>         0.0559
     57 H28       -12.4972    1.9562    4.0244 H         1 <0>         0.0551
@<TRIPOS>BOND
     1    1    2 1
     2    1   31 1
     3    1   32 1
     4    1   33 1
     5    2    7 ar
     6    2    3 ar
     7    3    4 ar
     8    3   34 1
     9    4    5 ar
    10    4   35 1
    11    5    6 ar
    12    5   36 1
    13    6    7 ar
    14    6   37 1
    15    7    8 1
    16    8    9 1
    17    8   38 1
    18    8   39 1
    19    9   13 1
    20    9   10 1
    21   10   11 2
    22   10   40 1
    23   11   12 1
    24   11   14 1
    25   12   13 2
    26   12   41 1
    27   14   15 am
    28   14   42 1
    29   15   16 2
    30   15   17 1
    31   17   21 2
    32   17   18 1
    33   18   26 1
    34   18   19 2
    35   19   20 1
    36   19   22 1
    37   20   21 1
    38   22   23 1
    39   22   43 1
    40   22   44 1
    41   23   24 1
    42   23   45 1
    43   23   46 1
    44   24   25 1
    45   24   26 1
    46   24   27 1
    47   26   47 1
    48   26   48 1
    49   27   28 1
    50   27   29 1
    51   27   30 1
    52   28   49 1
    53   28   50 1
    54   28   51 1
    55   29   52 1
    56   29   53 1
    57   29   54 1
    58   30   55 1
    59   30   56 1
    60   30   57 1
@<TRIPOS>MOLECULE
ZINC02465911
   57    60     0     0     0
SMALL
USER_CHARGES

@<TRIPOS>ATOM
      1 C1         -0.0184    1.5028    0.0103 C.3       1 <0>        -0.1266
      2 C2          0.0021   -0.0041    0.0020 C.ar      1 <0>        -0.0435
      3 C3          0.0057   -0.6888   -1.1991 C.ar      1 <0>        -0.1263
      4 C4          0.0245   -2.0707   -1.2067 C.ar      1 <0>        -0.1028
      5 C5          0.0400   -2.7685   -0.0132 C.ar      1 <0>        -0.1320
      6 C6          0.0373   -2.0840    1.1875 C.ar      1 <0>        -0.0952
      7 C7          0.0229   -0.7015    1.1951 C.ar      1 <0>        -0.1193
      8 C8          0.0252    0.0449    2.5043 C.3       1 <0>         0.1799
      9 N1         -1.3518    0.3727    2.8820 N.pl3     1 <0>        -0.3619
     10 C9         -1.9546    0.0579    4.0576 C.2       1 <0>         0.0297
     11 C10        -3.2229    0.5404    4.0096 C.2       1 <0>        -0.0068
     12 C11        -3.3972    1.1678    2.7672 C.2       1 <0>         0.0529
     13 N2         -2.2777    1.0715    2.0970 N.2       1 <0>        -0.2699
     14 N3         -4.1902    0.4302    5.0251 N.am      1 <0>        -0.6232
     15 C12        -5.4177    0.9572    4.8465 C.2       1 <0>         0.5959
     16 O1         -5.6889    1.5276    3.8082 O.2       1 <0>        -0.4950
     17 C13        -6.4374    0.8411    5.9170 C.2       1 <0>         0.0773
     18 C14        -7.7569    1.3366    5.8667 C.2       1 <0>        -0.2078
     19 C15        -8.3657    1.0293    7.0316 C.2       1 <0>         0.0743
     20 O2         -7.4920    0.3715    7.7998 O.3       1 <0>        -0.0522
     21 N4         -6.2762    0.2534    7.0801 N.2       1 <0>        -0.2939
     22 C16        -9.7938    1.3892    7.3608 C.3       1 <0>        -0.0503
     23 C17       -10.5148    1.7538    6.0575 C.3       1 <0>        -0.1203
     24 C18        -9.6767    2.7709    5.2779 C.3       1 <0>        -0.0802
     25 H1         -9.3894    3.5882    5.9393 H         1 <0>         0.0761
     26 C19        -8.4170    2.0850    4.7353 C.3       1 <0>        -0.0452
     27 C20       -10.4994    3.3231    4.1121 C.3       1 <0>        -0.0609
     28 C21       -11.7566    4.0065    4.6537 C.3       1 <0>        -0.1456
     29 C22        -9.6618    4.3394    3.3332 C.3       1 <0>        -0.1466
     30 C23       -10.9023    2.1758    3.1836 C.3       1 <0>        -0.1491
     31 H2          1.0042    1.8801    0.0026 H         1 <0>         0.0677
     32 H3         -0.5455    1.8639   -0.8728 H         1 <0>         0.0681
     33 H4         -0.5286    1.8543    0.9071 H         1 <0>         0.0849
     34 H5         -0.0064   -0.1437   -2.1314 H         1 <0>         0.1243
     35 H6          0.0266   -2.6056   -2.1449 H         1 <0>         0.1236
     36 H7          0.0540   -3.8484   -0.0191 H         1 <0>         0.1234
     37 H8          0.0491   -2.6290    2.1199 H         1 <0>         0.1210
     38 H9          0.4754   -0.5783    3.2770 H         1 <0>         0.1051
     39 H10         0.6013    0.9641    2.3974 H         1 <0>         0.0969
     40 H11        -1.5067   -0.4790    4.8807 H         1 <0>         0.1787
     41 H12        -4.3000    1.6511    2.4240 H         1 <0>         0.2054
     42 H13        -3.9737   -0.0250    5.8538 H         1 <0>         0.4172
     43 H14       -10.2883    0.5370    7.8270 H         1 <0>         0.0990
     44 H15        -9.8097    2.2421    8.0393 H         1 <0>         0.1021
     45 H16       -10.6507    0.8563    5.4541 H         1 <0>         0.0752
     46 H17       -11.4880    2.1865    6.2895 H         1 <0>         0.0889
     47 H18        -7.7311    2.8355    4.3423 H         1 <0>         0.0898
     48 H19        -8.6908    1.3872    3.9440 H         1 <0>         0.0849
     49 H20       -11.4695    4.8239    5.3152 H         1 <0>         0.0551
     50 H21       -12.3427    4.4000    3.8231 H         1 <0>         0.0559
     51 H22       -12.3533    3.2825    5.2086 H         1 <0>         0.0585
     52 H23        -8.7662    3.8525    2.9474 H         1 <0>         0.0612
     53 H24       -10.2479    4.7329    2.5027 H         1 <0>         0.0551
     54 H25        -9.3748    5.1568    3.9947 H         1 <0>         0.0543
     55 H26       -11.4990    1.4518    3.7385 H         1 <0>         0.0570
     56 H27       -11.4884    2.5693    2.3531 H         1 <0>         0.0550
     57 H28       -10.0067    1.6889    2.7978 H         1 <0>         0.0601
@<TRIPOS>BOND
     1    1    2 1
     2    1   31 1
     3    1   32 1
     4    1   33 1
     5    2    7 ar
     6    2    3 ar
     7    3    4 ar
     8    3   34 1
     9    4    5 ar
    10    4   35 1
    11    5    6 ar
    12    5   36 1
    13    6    7 ar
    14    6   37 1
    15    7    8 1
    16    8    9 1
    17    8   38 1
    18    8   39 1
    19    9   13 1
    20    9   10 1
    21   10   11 2
    22   10   40 1
    23   11   12 1
    24   11   14 1
    25   12   13 2
    26   12   41 1
    27   14   15 am
    28   14   42 1
    29   15   16 2
    30   15   17 1
    31   17   21 2
    32   17   18 1
    33   18   26 1
    34   18   19 2
    35   19   20 1
    36   19   22 1
    37   20   21 1
    38   22   23 1
    39   22   43 1
    40   22   44 1
    41   23   24 1
    42   23   45 1
    43   23   46 1
    44   24   25 1
    45   24   26 1
    46   24   27 1
    47   26   47 1
    48   26   48 1
    49   27   28 1
    50   27   29 1
    51   27   30 1
    52   28   49 1
    53   28   50 1
    54   28   51 1
    55   29   52 1
    56   29   53 1
    57   29   54 1
    58   30   55 1
    59   30   56 1
    60   30   57 1
