@<TRIPOS>MOLECULE
ZINC04098976
   69    68     0     0     0
SMALL
USER_CHARGES
1-[8-(8-guanidinooctylamino)octyl]guanidine
@<TRIPOS>ATOM
      1 C1          6.9240   -5.8749   -0.0956 C.3       1 <0>        -0.1220
      2 C2          5.5888   -5.1280   -0.0788 C.3       1 <0>        -0.1226
      3 C3          4.4395   -6.1380   -0.0733 C.3       1 <0>        -0.1190
      4 C4          3.1043   -5.3911   -0.0565 C.3       1 <0>        -0.1344
      5 C5          1.9551   -6.4011   -0.0509 C.3       1 <0>         0.0927
      6 N1          0.6765   -5.6859   -0.0348 N.pl3     1 <0>        -0.7014
      7 C6         -0.5045   -6.3895   -0.0273 C.cat     1 <0>         0.7395
      8 N2         -1.7044   -5.7183   -0.0180 N.pl3     1 <0>        -0.8045
      9 C7          8.0733   -4.8650   -0.1011 C.3       1 <0>        -0.1195
     10 C8          9.4085   -5.6118   -0.1179 C.3       1 <0>        -0.1509
     11 C9         10.5578   -4.6019   -0.1234 C.3       1 <0>        -0.0064
     12 C10        12.9687   -4.3790   -0.1454 C.3       1 <0>        -0.0064
     13 C11        14.2835   -5.1612   -0.1621 C.3       1 <0>        -0.1510
     14 C12        15.4593   -4.1823   -0.1681 C.3       1 <0>        -0.1195
     15 C13        16.7741   -4.9645   -0.1848 C.3       1 <0>        -0.1220
     16 C14        17.9499   -3.9856   -0.1908 C.3       1 <0>        -0.1225
     17 C15        19.2647   -4.7678   -0.2076 C.3       1 <0>        -0.1189
     18 C16        20.4406   -3.7889   -0.2136 C.3       1 <0>        -0.1345
     19 C17        21.7554   -4.5711   -0.2304 C.3       1 <0>         0.0927
     20 N3         22.8812   -3.6337   -0.2361 N.pl3     1 <0>        -0.7014
     21 C18        24.1712   -4.1089   -0.2510 C.cat     1 <0>         0.7395
     22 N4         25.2278   -3.2292   -0.2563 N.pl3     1 <0>        -0.8045
     23 H1          6.9988   -6.5055    0.7904 H         1 <0>         0.0681
     24 H2          6.9817   -6.4959   -0.9895 H         1 <0>         0.0681
     25 H3          5.5141   -4.4975   -0.9648 H         1 <0>         0.0680
     26 H4          5.5311   -4.5070    0.8151 H         1 <0>         0.0680
     27 H5          4.5144   -6.7686    0.8127 H         1 <0>         0.0716
     28 H6          4.4973   -6.7590   -0.9672 H         1 <0>         0.0716
     29 H7          3.0296   -4.7605   -0.9424 H         1 <0>         0.0821
     30 H8          3.0467   -4.7701    0.8374 H         1 <0>         0.0820
     31 H9          2.0299   -7.0317    0.8351 H         1 <0>         0.0916
     32 H10         2.0128   -7.0221   -0.9448 H         1 <0>         0.0916
     33 H11         0.6634   -4.7160   -0.0295 H         1 <0>         0.4336
     34 H12        -1.2672   -8.2782   -0.0302 H         1 <0>         0.4534
     35 H13        -2.5377   -6.2148   -0.0167 H         1 <0>         0.4407
     36 H14        -1.7176   -4.7484   -0.0126 H         1 <0>         0.4408
     37 H15         7.9986   -4.2344   -0.9871 H         1 <0>         0.0749
     38 H16         8.0156   -4.2439    0.7928 H         1 <0>         0.0749
     39 H17         9.4833   -6.2424    0.7680 H         1 <0>         0.0875
     40 H18         9.4662   -6.2329   -1.0118 H         1 <0>         0.0875
     41 H19        10.4831   -3.9713   -1.0094 H         1 <0>         0.1309
     42 H20        10.5001   -3.9808    0.7705 H         1 <0>         0.1310
     43 H21        12.9107   -3.7468   -1.0315 H         1 <0>         0.1310
     44 H22        12.9277   -3.7564    0.7484 H         1 <0>         0.1309
     45 H23        14.3416   -5.7933    0.7240 H         1 <0>         0.0875
     46 H24        14.3245   -5.7838   -1.0559 H         1 <0>         0.0875
     47 H25        15.4013   -3.5501   -1.0542 H         1 <0>         0.0749
     48 H26        15.4183   -3.5597    0.7257 H         1 <0>         0.0749
     49 H27        16.8322   -5.5966    0.7012 H         1 <0>         0.0681
     50 H28        16.8151   -5.5871   -1.0786 H         1 <0>         0.0681
     51 H29        17.8919   -3.3534   -1.0769 H         1 <0>         0.0680
     52 H30        17.9089   -3.3630    0.7030 H         1 <0>         0.0680
     53 H31        19.3229   -5.3999    0.6785 H         1 <0>         0.0716
     54 H32        19.3058   -5.3904   -1.1013 H         1 <0>         0.0716
     55 H33        20.3825   -3.1567   -1.0997 H         1 <0>         0.0820
     56 H34        20.3995   -3.1663    0.6801 H         1 <0>         0.0820
     57 H35        21.8135   -5.2032    0.6557 H         1 <0>         0.0915
     58 H36        21.7964   -5.1937   -1.1242 H         1 <0>         0.0916
     59 H37        22.7165   -2.6778   -0.2294 H         1 <0>         0.4336
     60 H38        25.2669   -5.8257   -0.2707 H         1 <0>         0.4534
     61 H39        25.0631   -2.2734   -0.2496 H         1 <0>         0.4408
     62 H40        26.1380   -3.5644   -0.2668 H         1 <0>         0.4408
     63 N5         -0.4187   -7.7119   -0.0353 N.pl3     1 <0>        -0.7957
     64 H41         0.5019   -8.1665   -0.0465 H         1 <0>         0.4540
     65 N6         11.8408   -5.3296   -0.1396 N.4       1 <0>        -0.5207
     66 H42        11.8873   -5.9154   -0.9816 H         1 <0>         0.4326
     67 H43        11.9034   -5.9244    0.6950 H         1 <0>         0.4326
     68 N7         24.3291   -5.4246   -0.2596 N.pl3     1 <0>        -0.7957
     69 H44        23.5074   -6.0402   -0.2550 H         1 <0>         0.4540
@<TRIPOS>BOND
     1    1    2 1
     2    1    9 1
     3    1   23 1
     4    1   24 1
     5    2    3 1
     6    2   25 1
     7    2   26 1
     8    3    4 1
     9    3   27 1
    10    3   28 1
    11    4    5 1
    12    4   29 1
    13    4   30 1
    14    5    6 1
    15    5   31 1
    16    5   32 1
    17    6    7 1
    18    6   33 1
    19    7    8 1
    20    7   63 2
    21    8   35 1
    22    8   36 1
    23    9   10 1
    24    9   37 1
    25    9   38 1
    26   10   11 1
    27   10   39 1
    28   10   40 1
    29   11   41 1
    30   11   42 1
    31   11   65 1
    32   12   13 1
    33   12   43 1
    34   12   44 1
    35   12   65 1
    36   13   14 1
    37   13   45 1
    38   13   46 1
    39   14   15 1
    40   14   47 1
    41   14   48 1
    42   15   16 1
    43   15   49 1
    44   15   50 1
    45   16   17 1
    46   16   51 1
    47   16   52 1
    48   17   18 1
    49   17   53 1
    50   17   54 1
    51   18   19 1
    52   18   55 1
    53   18   56 1
    54   19   20 1
    55   19   57 1
    56   19   58 1
    57   20   21 1
    58   20   59 1
    59   21   22 1
    60   21   68 2
    61   22   61 1
    62   22   62 1
    63   34   63 1
    64   60   68 1
    65   63   64 1
    66   65   66 1
    67   65   67 1
    68   68   69 1
@<TRIPOS>MOLECULE
ZINC01677582
   32    31     0     0     0
SMALL
USER_CHARGES
octane-1,8-diamine
@<TRIPOS>ATOM
      1 C1         -5.2512    1.4367   -3.3798 C.3       1 <0>        -0.1231
      2 C2         -4.4348    0.8930   -2.2056 C.3       1 <0>        -0.1231
      3 C3         -3.0234    1.4818   -2.2498 C.3       1 <0>        -0.1204
      4 C4         -2.2069    0.9381   -1.0756 C.3       1 <0>        -0.1543
      5 C5         -0.7955    1.5269   -1.1198 C.3       1 <0>        -0.0055
      6 C6         -6.6627    0.8479   -3.3356 C.3       1 <0>        -0.1205
      7 C7         -7.4791    1.3916   -4.5098 C.3       1 <0>        -0.1543
      8 C8         -8.8906    0.8028   -4.4656 C.3       1 <0>        -0.0055
      9 H1         -5.3084    2.5230   -3.3104 H         1 <0>         0.0688
     10 H2         -4.7702    1.1573   -4.3171 H         1 <0>         0.0689
     11 H3         -4.3777   -0.1933   -2.2750 H         1 <0>         0.0689
     12 H4         -4.9159    1.1724   -1.2683 H         1 <0>         0.0688
     13 H5         -3.0805    2.5681   -2.1804 H         1 <0>         0.0753
     14 H6         -2.5423    1.2024   -3.1871 H         1 <0>         0.0754
     15 H7         -2.1498   -0.1482   -1.1450 H         1 <0>         0.0882
     16 H8         -2.6880    1.2175   -0.1383 H         1 <0>         0.0879
     17 H9         -0.8526    2.6132   -1.0504 H         1 <0>         0.1317
     18 H10        -0.3144    1.2475   -2.0571 H         1 <0>         0.1345
     19 H11         0.0021   -0.0041    0.0020 H         1 <0>         0.4379
     20 H12         0.9253    1.3792    0.0006 H         1 <0>         0.4428
     21 H13        -6.6055   -0.2384   -3.4050 H         1 <0>         0.0754
     22 H14        -7.1438    1.1273   -2.3983 H         1 <0>         0.0753
     23 H15        -7.5363    2.4779   -4.4404 H         1 <0>         0.0879
     24 H16        -6.9981    1.1122   -5.4471 H         1 <0>         0.0882
     25 H17        -8.8334   -0.2835   -4.5350 H         1 <0>         0.1345
     26 H18        -9.3717    1.0822   -3.5283 H         1 <0>         0.1317
     27 H19        -9.2156    1.1347   -6.4713 H         1 <0>         0.4379
     28 H20       -10.6114    0.9505   -5.5861 H         1 <0>         0.4428
     29 N1         -0.0252    1.0139    0.0269 N.4       1 <0>        -0.6482
     30 H21        -0.4761    1.3157    0.8986 H         1 <0>         0.4402
     31 N2         -9.6742    1.3495   -5.5874 N.4       1 <0>        -0.6481
     32 H22        -9.7439    2.3688   -5.4853 H         1 <0>         0.4402
@<TRIPOS>BOND
     1    1    2 1
     2    1    6 1
     3    1    9 1
     4    1   10 1
     5    2    3 1
     6    2   11 1
     7    2   12 1
     8    3    4 1
     9    3   13 1
    10    3   14 1
    11    4    5 1
    12    4   15 1
    13    4   16 1
    14    5   17 1
    15    5   18 1
    16    5   29 1
    17    6    7 1
    18    6   21 1
    19    6   22 1
    20    7    8 1
    21    7   23 1
    22    7   24 1
    23    8   25 1
    24    8   26 1
    25    8   31 1
    26   19   29 1
    27   20   29 1
    28   27   31 1
    29   28   31 1
    30   29   30 1
    31   31   32 1
@<TRIPOS>MOLECULE
ZINC01532560
   25    24     0     0     0
SMALL
USER_CHARGES

@<TRIPOS>ATOM
      1 C1         -0.0187    1.5258    0.0104 C.3       1 <0>        -0.1516
      2 C2          0.0021   -0.0041    0.0020 C.3       1 <0>        -0.1337
      3 C3         -1.4333   -0.5336    0.0129 C.3       1 <0>         0.0950
      4 N1         -1.4134   -1.9985    0.0048 N.pl3     1 <0>        -0.7023
      5 C4         -2.5886   -2.6985    0.0123 C.cat     1 <0>         0.7454
      6 N2         -2.5706   -4.0303    0.0050 N.pl3     1 <0>        -0.7881
      7 N3         -3.7510   -2.0483    0.0269 N.pl3     1 <0>        -0.7914
      8 C5          1.4167    2.0553   -0.0004 C.3       1 <0>        -0.0085
      9 N4          1.3968    3.5242    0.0076 N.4       1 <0>        -0.6390
     10 H1         -0.5459    1.8868   -0.8726 H         1 <0>         0.0967
     11 H2         -0.5289    1.8773    0.9072 H         1 <0>         0.0966
     12 H3          0.5123   -0.3556   -0.8948 H         1 <0>         0.0941
     13 H4          0.5293   -0.3651    0.8851 H         1 <0>         0.0941
     14 H5         -1.9435   -0.1821    0.9097 H         1 <0>         0.0947
     15 H6         -1.9605   -0.1726   -0.8702 H         1 <0>         0.0947
     16 H7         -0.5669   -2.4720   -0.0058 H         1 <0>         0.4375
     17 H8         -1.7240   -4.5038   -0.0057 H         1 <0>         0.4431
     18 H9         -3.7641   -1.0784    0.0322 H         1 <0>         0.4381
     19 H10        -4.5843   -2.5447    0.0322 H         1 <0>         0.4447
     20 H11         1.9439    1.6943    0.8826 H         1 <0>         0.1372
     21 H12         1.9269    1.7038   -0.8972 H         1 <0>         0.1372
     22 H13         0.9088    3.8584   -0.8098 H         1 <0>         0.4377
     23 H14         0.9245    3.8496    0.8378 H         1 <0>         0.4377
     24 H15        -3.4039   -4.5267    0.0102 H         1 <0>         0.4452
     25 H16         2.3434    3.8734    0.0005 H         1 <0>         0.4449
@<TRIPOS>BOND
     1    1    2 1
     2    1    8 1
     3    1   10 1
     4    1   11 1
     5    2    3 1
     6    2   12 1
     7    2   13 1
     8    3    4 1
     9    3   14 1
    10    3   15 1
    11    4    5 1
    12    4   16 1
    13    5    6 2
    14    5    7 1
    15    6   17 1
    16    6   24 1
    17    7   18 1
    18    7   19 1
    19    8    9 1
    20    8   20 1
    21    8   21 1
    22    9   22 1
    23    9   23 1
    24    9   25 1
