@<TRIPOS>MOLECULE
ZINC03874176
   36    35     0     0     0
SMALL
USER_CHARGES
N,N'-dibuta-2,3-dienylbutane-1,4-diamine
@<TRIPOS>ATOM
      1 C1          0.0198   -1.3109   -0.0052 C.2       1 <0>        -0.0910
      2 C2          0.0021   -0.0041    0.0020 C.1       1 <0>        -0.1418
      3 C3         -0.0156    1.3028    0.0092 C.2       1 <0>        -0.2062
      4 C4         -1.3308    2.0385    0.0194 C.3       1 <0>         0.0527
      5 C5         -2.6354    3.7010    1.2013 C.3       1 <0>        -0.0061
      6 C6         -2.6335    4.6532    2.3989 C.3       1 <0>        -0.1494
      7 C7         -3.9567    5.4201    2.4427 C.3       1 <0>        -0.1491
      8 C8         -3.9548    6.3723    3.6403 C.3       1 <0>        -0.0103
      9 C9         -5.2594    8.0348    4.8222 C.3       1 <0>         0.0941
     10 C10        -6.5746    8.7705    4.8324 C.2       1 <0>        -0.3546
     11 C11        -7.3288    8.7459    5.8995 C.1       1 <0>         0.0510
     12 C12        -8.0831    8.7213    6.9666 C.2       1 <0>        -0.2215
     13 H1          0.0182   -1.8458   -0.9434 H         1 <0>         0.1518
     14 H2          0.0361   -1.8559    0.9271 H         1 <0>         0.1514
     15 H3          0.9122    1.8555    0.0033 H         1 <0>         0.1509
     16 H4         -1.4403    2.5999   -0.9084 H         1 <0>         0.1388
     17 H5         -2.1473    1.3219    0.1090 H         1 <0>         0.1303
     18 H6         -2.7539    4.2740    0.2817 H         1 <0>         0.1351
     19 H7         -3.4609    2.9959    1.2991 H         1 <0>         0.1336
     20 H8         -2.5150    4.0802    3.3185 H         1 <0>         0.0982
     21 H9         -1.8080    5.3583    2.3011 H         1 <0>         0.0993
     22 H10        -4.0752    5.9931    1.5231 H         1 <0>         0.0989
     23 H11        -4.7822    4.7151    2.5405 H         1 <0>         0.0978
     24 H12        -3.8363    5.7994    4.5599 H         1 <0>         0.1316
     25 H13        -3.1293    7.0774    3.5425 H         1 <0>         0.1337
     26 H14        -5.1499    7.4734    5.7500 H         1 <0>         0.1208
     27 H15        -4.4429    8.7514    4.7326 H         1 <0>         0.1445
     28 H16        -6.8938    9.3181    3.9580 H         1 <0>         0.1672
     29 H17        -8.8253    7.9458    7.0855 H         1 <0>         0.1824
     30 H18        -7.9641    9.4764    7.7295 H         1 <0>         0.1773
     31 N1         -1.3570    2.9658    1.1663 N.4       1 <0>        -0.5187
     32 H19        -0.5836    3.6354    1.0782 H         1 <0>         0.4349
     33 H20        -1.2497    2.4314    2.0364 H         1 <0>         0.4343
     34 N2         -5.2332    7.1075    3.6753 N.4       1 <0>        -0.5283
     35 H21        -6.0066    6.4379    3.7634 H         1 <0>         0.4326
     36 H22        -5.3405    7.6419    2.8052 H         1 <0>         0.4335
@<TRIPOS>BOND
     1    1    2 2
     2    1   13 1
     3    1   14 1
     4    2    3 2
     5    3    4 1
     6    3   15 1
     7    4   16 1
     8    4   17 1
     9    4   31 1
    10    5    6 1
    11    5   18 1
    12    5   19 1
    13    5   31 1
    14    6    7 1
    15    6   20 1
    16    6   21 1
    17    7    8 1
    18    7   22 1
    19    7   23 1
    20    8   24 1
    21    8   25 1
    22    8   34 1
    23    9   10 1
    24    9   26 1
    25    9   27 1
    26    9   34 1
    27   10   11 2
    28   10   28 1
    29   11   12 2
    30   12   29 1
    31   12   30 1
    32   31   32 1
    33   31   33 1
    34   34   35 1
    35   34   36 1
