@<TRIPOS>MOLECULE
ZINC01812333
   74    77     0     0     0
SMALL
USER_CHARGES
2-[2-amino-3-(p-tolylmethyl)benzimidazol-3-ium-1-yl]-1-(3,5-ditert-butyl-4-hydroxy-phenyl)ethanone
@<TRIPOS>ATOM
      1 C1          6.6842   -0.0751   -5.5096 C.3       1 <0>        -0.1298
      2 C2          6.2082   -0.1951   -4.0848 C.ar      1 <0>        -0.0525
      3 C3          5.7222    0.9166   -3.4225 C.ar      1 <0>        -0.1163
      4 C4          5.2852    0.8064   -2.1156 C.ar      1 <0>        -0.0824
      5 C5          5.3338   -0.4156   -1.4713 C.ar      1 <0>        -0.1521
      6 C6          5.8247   -1.5262   -2.1319 C.ar      1 <0>        -0.0928
      7 C7          6.2581   -1.4169   -3.4400 C.ar      1 <0>        -0.1178
      8 C8          4.8574   -0.5358   -0.0467 C.3       1 <0>         0.1394
      9 N1          3.4294   -0.8627   -0.0353 N.pl3     1 <0>        -0.4339
     10 C9          2.4181    0.0451   -0.0207 C.ar      1 <0>         0.0681
     11 C10         2.3819    1.4417   -0.0129 C.ar      1 <0>        -0.0805
     12 C11         1.1696    2.0942    0.0021 C.ar      1 <0>        -0.0859
     13 C12        -0.0166    1.3754    0.0096 C.ar      1 <0>        -0.0771
     14 C13         0.0021   -0.0041    0.0020 C.ar      1 <0>        -0.0885
     15 C14         1.2139   -0.6778   -0.0131 C.ar      1 <0>         0.0915
     16 N2          1.5684   -2.0169   -0.0237 N.pl3     1 <0>        -0.4671
     17 C15         2.9325   -2.0745   -0.0370 C.cat     1 <0>         0.6538
     18 N3          3.6763   -3.2357   -0.0504 N.pl3     1 <0>        -0.8271
     19 C16         0.6505   -3.1587   -0.0207 C.3       1 <0>         0.0569
     20 C17         0.3217   -3.5427   -1.4404 C.2       1 <0>         0.3839
     21 O1          0.8064   -2.9235   -2.3639 O.2       1 <0>        -0.4350
     22 C18        -0.5856   -4.6666   -1.7057 C.ar      1 <0>        -0.2286
     23 C19        -1.1420   -5.3868   -0.6413 C.ar      1 <0>        -0.0423
     24 C20        -1.9924   -6.4322   -0.8944 C.ar      1 <0>        -0.1183
     25 C21        -2.2942   -6.7846   -2.2056 C.ar      1 <0>         0.2286
     26 C22        -1.7401   -6.0760   -3.2663 C.ar      1 <0>        -0.1765
     27 C23        -0.8928   -5.0255   -3.0240 C.ar      1 <0>        -0.0112
     28 C24        -2.0712   -6.4636   -4.6845 C.3       1 <0>        -0.0308
     29 C25        -1.3370   -5.5333   -5.6521 C.3       1 <0>        -0.1459
     30 C26        -1.6325   -7.9080   -4.9340 C.3       1 <0>        -0.1570
     31 C27        -3.5801   -6.3432   -4.9071 C.3       1 <0>        -0.1576
     32 O2         -3.1323   -7.8228   -2.4507 O.3       1 <0>        -0.4965
     33 C28        -2.5968   -7.2042    0.2500 C.3       1 <0>        -0.0155
     34 C29        -2.1069   -6.6181    1.5757 C.3       1 <0>        -0.1502
     35 C30        -4.1222   -7.1065    0.1819 C.3       1 <0>        -0.1459
     36 C31        -2.1750   -8.6718    0.1544 C.3       1 <0>        -0.1452
     37 H1          6.5677    0.9648   -5.8487 H         1 <0>         0.0729
     38 H2          6.0881   -0.7394   -6.1525 H         1 <0>         0.0777
     39 H3          7.7443   -0.3631   -5.5675 H         1 <0>         0.0797
     40 H4          5.6836    1.8712   -3.9261 H         1 <0>         0.1329
     41 H5          4.9055    1.6750   -1.5982 H         1 <0>         0.1266
     42 H6          5.8668   -2.4800   -1.6271 H         1 <0>         0.1170
     43 H7          6.6382   -2.2854   -3.9574 H         1 <0>         0.1312
     44 H8          5.4200   -1.3324    0.4621 H         1 <0>         0.1159
     45 H9          5.0193    0.4185    0.4758 H         1 <0>         0.1311
     46 H10         3.3018    2.0075   -0.0184 H         1 <0>         0.1441
     47 H11         1.1421    3.1738    0.0082 H         1 <0>         0.1518
     48 H12        -0.9612    1.8991    0.0169 H         1 <0>         0.1517
     49 H13        -0.9251   -0.5580    0.0075 H         1 <0>         0.1427
     50 H14         3.1708   -4.2127   -0.0508 H         1 <0>         0.4635
     51 H15         4.7751   -3.1850   -0.0607 H         1 <0>         0.4628
     52 H16         1.1258   -4.0099    0.4887 H         1 <0>         0.1382
     53 H17        -0.2741   -2.8845    0.5085 H         1 <0>         0.1521
     54 H18        -0.9051   -5.1166    0.3771 H         1 <0>         0.1363
     55 H19        -0.4633   -4.4756   -3.8484 H         1 <0>         0.1400
     56 H20        -1.5787   -5.8162   -6.6872 H         1 <0>         0.0678
     57 H21        -0.2522   -5.6200   -5.4920 H         1 <0>         0.0606
     58 H22        -1.6523   -4.4948   -5.4727 H         1 <0>         0.0615
     59 H23        -1.8741   -8.1910   -5.9691 H         1 <0>         0.0741
     60 H24        -2.1603   -8.5769   -4.2383 H         1 <0>         0.0591
     61 H25        -0.5477   -7.9945   -4.7739 H         1 <0>         0.0667
     62 H26        -3.8217   -6.6261   -5.9423 H         1 <0>         0.0742
     63 H27        -3.8955   -5.3048   -4.7276 H         1 <0>         0.0676
     64 H28        -4.1079   -7.0121   -4.2114 H         1 <0>         0.0591
     65 H29        -3.3723   -8.1031   -3.4870 H         1 <0>         0.4327
     66 H30        -2.5481   -7.1816    2.4110 H         1 <0>         0.0662
     67 H31        -2.4102   -5.5630    1.6445 H         1 <0>         0.0571
     68 H32        -1.0102   -6.6883    1.6247 H         1 <0>         0.0558
     69 H33        -4.5633   -7.6700    1.0173 H         1 <0>         0.0602
     70 H34        -4.4744   -7.5279   -0.7712 H         1 <0>         0.0725
     71 H35        -4.4255   -6.0514    0.2507 H         1 <0>         0.0515
     72 H36        -2.6162   -9.2353    0.9898 H         1 <0>         0.0601
     73 H37        -1.0783   -8.7420    0.2034 H         1 <0>         0.0505
     74 H38        -2.5272   -9.0932   -0.7987 H         1 <0>         0.0724
@<TRIPOS>BOND
     1    1    2 1
     2    1   37 1
     3    1   38 1
     4    1   39 1
     5    2    7 ar
     6    2    3 ar
     7    3    4 ar
     8    3   40 1
     9    4    5 ar
    10    4   41 1
    11    5    6 ar
    12    5    8 1
    13    6    7 ar
    14    6   42 1
    15    7   43 1
    16    8    9 1
    17    8   44 1
    18    8   45 1
    19    9   17 2
    20    9   10 1
    21   10   15 ar
    22   10   11 ar
    23   11   12 ar
    24   11   46 1
    25   12   13 ar
    26   12   47 1
    27   13   14 ar
    28   13   48 1
    29   14   15 ar
    30   14   49 1
    31   15   16 1
    32   16   17 1
    33   16   19 1
    34   17   18 1
    35   18   50 1
    36   18   51 1
    37   19   20 1
    38   19   52 1
    39   19   53 1
    40   20   21 2
    41   20   22 1
    42   22   27 ar
    43   22   23 ar
    44   23   24 ar
    45   23   54 1
    46   24   25 ar
    47   24   33 1
    48   25   26 ar
    49   25   32 1
    50   26   27 ar
    51   26   28 1
    52   27   55 1
    53   28   29 1
    54   28   30 1
    55   28   31 1
    56   29   56 1
    57   29   57 1
    58   29   58 1
    59   30   59 1
    60   30   60 1
    61   30   61 1
    62   31   62 1
    63   31   63 1
    64   31   64 1
    65   32   65 1
    66   33   34 1
    67   33   35 1
    68   33   36 1
    69   34   66 1
    70   34   67 1
    71   34   68 1
    72   35   69 1
    73   35   70 1
    74   35   71 1
    75   36   72 1
    76   36   73 1
    77   36   74 1
@<TRIPOS>MOLECULE
ZINC29221575
  112   112     0     0     0
SMALL
USER_CHARGES

@<TRIPOS>ATOM
      1 C1         -0.1298   -2.4734    0.7101 C.3       1 <0>        -0.1534
      2 C2          1.1801   -1.7165    0.9388 C.3       1 <0>        -0.1071
      3 C3          2.1035   -1.9201   -0.2641 C.3       1 <0>        -0.1441
      4 C4          0.8844   -0.2249    1.1079 C.3       1 <0>        -0.1198
      5 C5          0.0510   -0.0104    2.3730 C.3       1 <0>         0.1244
      6 H1         -0.8414   -0.6349    2.3303 H         1 <0>         0.1220
      7 C6          0.8685   -0.3844    3.5825 C.2       1 <0>         0.5200
      8 O1          1.3732    0.4820    4.2648 O.2       1 <0>        -0.5242
      9 N1          1.0387   -1.6816    3.9059 N.am      1 <0>        -0.7054
     10 C7          1.7382   -2.0427    5.1415 C.3       1 <0>         0.1285
     11 H2          2.5332   -1.3220    5.3329 H         1 <0>         0.1206
     12 C8          0.7492   -2.0333    6.3088 C.3       1 <0>        -0.1226
     13 C9          0.2395   -0.6083    6.5339 C.3       1 <0>        -0.0890
     14 C10        -0.8410   -0.6183    7.6171 C.3       1 <0>        -0.1498
     15 C11         1.3999    0.2840    6.9792 C.3       1 <0>        -0.1430
     16 C12         2.3328   -3.4200    4.9980 C.2       1 <0>         0.5187
     17 O2          2.1866   -4.0390    3.9653 O.2       1 <0>        -0.5168
     18 N2          3.0269   -3.9639    6.0172 N.am      1 <0>        -0.7056
     19 C13         3.6049   -5.3029    5.8777 C.3       1 <0>         0.1357
     20 H3          3.9359   -5.4504    4.8497 H         1 <0>         0.1211
     21 C14         4.7993   -5.4438    6.8233 C.3       1 <0>        -0.1218
     22 C15         5.9061   -4.4784    6.3943 C.3       1 <0>        -0.1337
     23 C16         7.1006   -4.6194    7.3400 C.3       1 <0>         0.0921
     24 N3          8.1604   -3.6950    6.9292 N.pl3     1 <0>        -0.6953
     25 C17         9.3331   -3.6435    7.6315 C.cat     1 <0>         0.7419
     26 N4         10.2966   -2.8031    7.2580 N.pl3     1 <0>        -0.7944
     27 N5          9.5115   -4.4337    8.6887 N.pl3     1 <0>        -0.7923
     28 C18         2.5652   -6.3374    6.2240 C.2       1 <0>         0.5172
     29 O3          1.4512   -5.9904    6.5548 O.2       1 <0>        -0.5171
     30 N6          2.8734   -7.6481    6.1661 N.am      1 <0>        -0.6960
     31 C19         1.8627   -8.6538    6.5028 C.3       1 <0>         0.1457
     32 H4          0.8823   -8.3071    6.1762 H         1 <0>         0.1261
     33 C20         2.1988   -9.9701    5.7989 C.3       1 <0>        -0.1533
     34 C21         2.0937   -9.7831    4.3072 C.2       1 <0>         0.5133
     35 O4          1.7809   -8.7034    3.8519 O.2       1 <0>        -0.5248
     36 N7          2.3474  -10.8158    3.4791 N.am      1 <0>        -0.8528
     37 C22         1.8476   -8.8712    7.9939 C.2       1 <0>         0.5106
     38 O5          2.6063   -8.2475    8.7054 O.2       1 <0>        -0.5333
     39 N8          0.9909   -9.7588    8.5369 N.am      1 <0>        -0.8497
     40 N9         -0.3424    1.3977    2.4657 N.am      1 <0>        -0.7021
     41 C23        -1.4901    1.8157    1.8961 C.2       1 <0>         0.5166
     42 O6         -2.2416    1.0122    1.3858 O.2       1 <0>        -0.5258
     43 C24        -1.8396    3.2816    1.8933 C.3       1 <0>         0.1370
     44 H5         -1.0656    3.8387    1.3655 H         1 <0>         0.1287
     45 C25        -1.9375    3.7854    3.3347 C.3       1 <0>        -0.0943
     46 C26        -2.1654    5.2750    3.3319 C.ar      1 <0>        -0.0702
     47 C27        -1.0866    6.1393    3.3419 C.ar      1 <0>        -0.0963
     48 C28        -1.2956    7.5057    3.3393 C.ar      1 <0>        -0.1040
     49 C29        -2.5835    8.0079    3.3262 C.ar      1 <0>        -0.1121
     50 C30        -3.6623    7.1436    3.3153 C.ar      1 <0>        -0.1339
     51 C31        -3.4532    5.7772    3.3135 C.ar      1 <0>        -0.1292
     52 N10        -3.1261    3.4756    1.2199 N.am      1 <0>        -0.6851
     53 C32        -3.4159    4.6617    0.6491 C.2       1 <0>         0.5067
     54 O7         -2.6116    5.5684    0.6930 O.2       1 <0>        -0.4945
     55 C33        -4.7392    4.8612   -0.0437 C.3       1 <0>         0.0137
     56 H6         -5.5278    4.3778    0.5330 H         1 <0>         0.1714
     57 C34        -4.6803    4.2454   -1.4431 C.3       1 <0>         0.0582
     58 O8         -5.9684    4.3310   -2.0558 O.3       1 <0>        -0.5741
     59 N11        -5.0231    6.2984   -0.1527 N.4       1 <0>        -0.6177
     60 H7         -0.6606   -2.0339   -0.1345 H         1 <0>         0.0608
     61 H8          0.0877   -3.5201    0.4976 H         1 <0>         0.0645
     62 H9         -0.7496   -2.4052    1.6041 H         1 <0>         0.0510
     63 H10         1.6661   -2.0948    1.8381 H         1 <0>         0.0809
     64 H11         1.6175   -1.5418   -1.1634 H         1 <0>         0.0566
     65 H12         3.0366   -1.3809   -0.1011 H         1 <0>         0.0536
     66 H13         2.3141   -2.9828   -0.3846 H         1 <0>         0.0613
     67 H14         1.8222    0.3241    1.1932 H         1 <0>         0.0743
     68 H15         0.3296    0.1360    0.2418 H         1 <0>         0.0822
     69 H16         0.6982   -2.3761    3.3207 H         1 <0>         0.4151
     70 H17        -0.0914   -2.6876    6.0781 H         1 <0>         0.0762
     71 H18         1.2484   -2.3873    7.2108 H         1 <0>         0.0792
     72 H19        -0.1804   -0.2217    5.6053 H         1 <0>         0.0704
     73 H20        -0.4210   -1.0049    8.5457 H         1 <0>         0.0557
     74 H21        -1.2041    0.3969    7.7775 H         1 <0>         0.0553
     75 H22        -1.6676   -1.2540    7.2999 H         1 <0>         0.0528
     76 H23         1.8199   -0.1026    7.9078 H         1 <0>         0.0444
     77 H24         2.1697    0.2911    6.2075 H         1 <0>         0.0704
     78 H25         1.0368    1.2991    7.1396 H         1 <0>         0.0517
     79 H26         3.1438   -3.4689    6.8431 H         1 <0>         0.4060
     80 H27         4.4868   -5.2092    7.8409 H         1 <0>         0.0903
     81 H28         5.1743   -6.4665    6.7851 H         1 <0>         0.0951
     82 H29         6.2186   -4.7131    5.3768 H         1 <0>         0.0878
     83 H30         5.5312   -3.4557    6.4325 H         1 <0>         0.0858
     84 H31         6.7881   -4.3848    8.3575 H         1 <0>         0.0952
     85 H32         7.4756   -5.6421    7.3017 H         1 <0>         0.0953
     86 H33         8.0304   -3.1196    6.1592 H         1 <0>         0.4356
     87 H34        10.1667   -2.2276    6.4880 H         1 <0>         0.4409
     88 H35         8.8098   -5.0457    8.9607 H         1 <0>         0.4401
     89 H36        10.3431   -4.3972    9.1867 H         1 <0>         0.4415
     90 H37         3.7644   -7.9256    5.9015 H         1 <0>         0.4000
     91 H38         3.2142  -10.2711    6.0567 H         1 <0>         0.1094
     92 H39         1.4987  -10.7420    6.1185 H         1 <0>         0.1179
     93 H40         2.5976  -11.6793    3.8432 H         1 <0>         0.4041
     94 H41         2.2798  -10.6954    2.5190 H         1 <0>         0.4071
     95 H42         0.3841  -10.2576    7.9678 H         1 <0>         0.4035
     96 H43         0.9812   -9.8987    9.4967 H         1 <0>         0.4078
     97 H44         0.2232    2.0292    2.9371 H         1 <0>         0.4145
     98 H45        -2.7696    3.2915    3.8365 H         1 <0>         0.0888
     99 H46        -1.0103    3.5606    3.8619 H         1 <0>         0.0979
    100 H47        -0.0804    5.7469    3.3522 H         1 <0>         0.1220
    101 H48        -0.4528    8.1810    3.3479 H         1 <0>         0.1247
    102 H49        -2.7468    9.0755    3.3249 H         1 <0>         0.1234
    103 H50        -4.6684    7.5360    3.3054 H         1 <0>         0.1187
    104 H51        -4.2960    5.1020    3.3012 H         1 <0>         0.1119
    105 H52        -3.7694    2.7504    1.1847 H         1 <0>         0.4198
    106 H53        -3.9534    4.7874   -2.0482 H         1 <0>         0.0834
    107 H54        -4.3826    3.1996   -1.3676 H         1 <0>         0.1018
    108 H55        -6.0053    3.9587   -2.9475 H         1 <0>         0.4169
    109 H56        -5.0620    6.7045    0.7702 H         1 <0>         0.4379
    110 H57        -4.2931    6.7459   -0.6866 H         1 <0>         0.4413
    111 H58        11.1282   -2.7666    7.7560 H         1 <0>         0.4419
    112 H59        -5.9091    6.4320   -0.6165 H         1 <0>         0.4499
@<TRIPOS>BOND
     1    1    2 1
     2    1   60 1
     3    1   61 1
     4    1   62 1
     5    2    3 1
     6    2    4 1
     7    2   63 1
     8    3   64 1
     9    3   65 1
    10    3   66 1
    11    4    5 1
    12    4   67 1
    13    4   68 1
    14    5    6 1
    15    5    7 1
    16    5   40 1
    17    7    8 2
    18    7    9 am
    19    9   10 1
    20    9   69 1
    21   10   11 1
    22   10   12 1
    23   10   16 1
    24   12   13 1
    25   12   70 1
    26   12   71 1
    27   13   14 1
    28   13   15 1
    29   13   72 1
    30   14   73 1
    31   14   74 1
    32   14   75 1
    33   15   76 1
    34   15   77 1
    35   15   78 1
    36   16   17 2
    37   16   18 am
    38   18   19 1
    39   18   79 1
    40   19   20 1
    41   19   21 1
    42   19   28 1
    43   21   22 1
    44   21   80 1
    45   21   81 1
    46   22   23 1
    47   22   82 1
    48   22   83 1
    49   23   24 1
    50   23   84 1
    51   23   85 1
    52   24   25 1
    53   24   86 1
    54   25   26 2
    55   25   27 1
    56   26   87 1
    57   26  111 1
    58   27   88 1
    59   27   89 1
    60   28   29 2
    61   28   30 am
    62   30   31 1
    63   30   90 1
    64   31   32 1
    65   31   33 1
    66   31   37 1
    67   33   34 1
    68   33   91 1
    69   33   92 1
    70   34   35 2
    71   34   36 am
    72   36   93 1
    73   36   94 1
    74   37   38 2
    75   37   39 am
    76   39   95 1
    77   39   96 1
    78   40   41 am
    79   40   97 1
    80   41   42 2
    81   41   43 1
    82   43   44 1
    83   43   45 1
    84   43   52 1
    85   45   46 1
    86   45   98 1
    87   45   99 1
    88   46   51 ar
    89   46   47 ar
    90   47   48 ar
    91   47  100 1
    92   48   49 ar
    93   48  101 1
    94   49   50 ar
    95   49  102 1
    96   50   51 ar
    97   50  103 1
    98   51  104 1
    99   52   53 am
   100   52  105 1
   101   53   54 2
   102   53   55 1
   103   55   56 1
   104   55   57 1
   105   55   59 1
   106   57   58 1
   107   57  106 1
   108   57  107 1
   109   58  108 1
   110   59  109 1
   111   59  110 1
   112   59  112 1
@<TRIPOS>MOLECULE
ZINC29221575
  111   111     0     0     0
SMALL
USER_CHARGES

@<TRIPOS>ATOM
      1 C1         -0.8570   -2.0852    0.7096 C.3       1 <0>        -0.1536
      2 C2         -1.9020   -1.1058    1.2478 C.3       1 <0>        -0.1060
      3 C3         -1.7063   -0.9283    2.7548 C.3       1 <0>        -0.1442
      4 C4         -1.7410    0.2462    0.5499 C.3       1 <0>        -0.1201
      5 C5         -2.0892    0.0995   -0.9327 C.3       1 <0>         0.1303
      6 H1         -1.4873   -0.6970   -1.3702 H         1 <0>         0.1173
      7 C6         -3.5507   -0.2396   -1.0744 C.2       1 <0>         0.5191
      8 O1         -4.3529    0.6318   -1.3349 O.2       1 <0>        -0.5263
      9 N1         -3.9662   -1.5114   -0.9116 N.am      1 <0>        -0.7111
     10 C7         -5.3695   -1.8594   -1.1476 C.3       1 <0>         0.1244
     11 H2         -6.0026   -1.0099   -0.8910 H         1 <0>         0.1205
     12 C8         -5.5659   -2.2145   -2.6228 C.3       1 <0>        -0.1239
     13 C9         -7.0423   -2.5213   -2.8814 C.3       1 <0>        -0.1120
     14 C10        -7.8666   -1.2440   -2.7081 C.3       1 <0>        -0.1529
     15 C11        -7.2116   -3.0478   -4.3079 C.3       1 <0>        -0.1440
     16 C12        -5.7446   -3.0419   -0.2920 C.2       1 <0>         0.5219
     17 O2         -4.8814   -3.6800    0.2725 O.2       1 <0>        -0.5347
     18 N2         -7.0392   -3.3904   -0.1541 N.am      1 <0>        -0.7054
     19 C13        -7.3986   -4.5833    0.6166 C.3       1 <0>         0.1309
     20 H3         -6.6374   -5.3505    0.4747 H         1 <0>         0.1226
     21 C14        -7.4895   -4.2233    2.1009 C.3       1 <0>        -0.1233
     22 C15        -6.1069   -3.8128    2.6117 C.3       1 <0>        -0.1313
     23 C16        -6.1978   -3.4528    4.0959 C.3       1 <0>         0.0805
     24 N3         -4.8740   -3.0597    4.5851 N.pl3     1 <0>        -0.6532
     25 C17        -4.7169   -2.7103    5.8309 C.cat     1 <0>         0.7368
     26 N4         -5.7934   -2.7106    6.6860 N.pl3     1 <0>        -0.8125
     27 N5         -3.4746   -2.3413    6.2899 N.pl3     1 <0>        -0.8155
     28 C18        -8.7312   -5.1043    0.1435 C.2       1 <0>         0.5256
     29 O3         -9.3224   -4.5352   -0.7495 O.2       1 <0>        -0.5187
     30 N6         -9.2658   -6.2027    0.7128 N.am      1 <0>        -0.6921
     31 C19       -10.5613   -6.7093    0.2529 C.3       1 <0>         0.1447
     32 H4        -10.6532   -6.5497   -0.8214 H         1 <0>         0.1293
     33 C20       -10.6608   -8.2055    0.5566 C.3       1 <0>        -0.1532
     34 C21        -9.6311   -8.9518   -0.2520 C.2       1 <0>         0.5144
     35 O4         -8.8906   -8.3465   -0.9977 O.2       1 <0>        -0.5271
     36 N7         -9.5332  -10.2919   -0.1464 N.am      1 <0>        -0.8524
     37 C22       -11.6688   -5.9772    0.9660 C.2       1 <0>         0.5101
     38 O5        -11.4022   -5.1170    1.7784 O.2       1 <0>        -0.5314
     39 N8        -12.9555   -6.2783    0.7010 N.am      1 <0>        -0.8494
     40 N9         -1.8107    1.3593   -1.6267 N.am      1 <0>        -0.7199
     41 C23        -0.5846    1.5916   -2.1356 C.2       1 <0>         0.5044
     42 O6          0.2614    0.7233   -2.0996 O.2       1 <0>        -0.4922
     43 C24        -0.2647    2.9303   -2.7495 C.3       1 <0>         0.1479
     44 H5         -0.7158    3.7216   -2.1508 H         1 <0>         0.1122
     45 C25        -0.8240    2.9855   -4.1725 C.3       1 <0>        -0.0961
     46 C26        -0.6126    4.3646   -4.7421 C.ar      1 <0>        -0.0796
     47 C27        -1.5766    5.3398   -4.5673 C.ar      1 <0>        -0.1165
     48 C28        -1.3828    6.6049   -5.0898 C.ar      1 <0>        -0.1156
     49 C29        -0.2247    6.8948   -5.7867 C.ar      1 <0>        -0.1188
     50 C30         0.7397    5.9199   -5.9607 C.ar      1 <0>        -0.1183
     51 C31         0.5477    4.6561   -5.4345 C.ar      1 <0>        -0.1102
     52 N10         1.1881    3.1151   -2.7882 N.am      1 <0>        -0.7187
     53 C32         1.9595    2.2493   -3.4751 C.2       1 <0>         0.5324
     54 O7          1.4509    1.3172   -4.0611 O.2       1 <0>        -0.4911
     55 C33         3.4539    2.4395   -3.5149 C.3       1 <0>         0.0802
     56 H6          3.8066    2.7527   -2.5323 H         1 <0>         0.1065
     57 C34         3.8041    3.5120   -4.5483 C.3       1 <0>         0.0439
     58 O8          5.2079    3.7756   -4.5042 O.3       1 <0>        -0.5682
     59 N11         4.0989    1.1729   -3.8859 N.3       1 <0>        -0.8209
     60 H7         -0.9075   -3.0166    1.2736 H         1 <0>         0.0583
     61 H8         -1.0559   -2.2865   -0.3430 H         1 <0>         0.0568
     62 H9          0.1368   -1.6501    0.8149 H         1 <0>         0.0637
     63 H10        -2.9007   -1.4977    1.0547 H         1 <0>         0.0762
     64 H11        -0.7077   -0.5365    2.9478 H         1 <0>         0.0636
     65 H12        -2.4508   -0.2306    3.1382 H         1 <0>         0.0518
     66 H13        -1.8210   -1.8915    3.2520 H         1 <0>         0.0466
     67 H14        -2.4093    0.9743    1.0097 H         1 <0>         0.0714
     68 H15        -0.7101    0.5859    0.6492 H         1 <0>         0.0846
     69 H16        -3.3360   -2.1963   -0.6383 H         1 <0>         0.4125
     70 H17        -5.2553   -1.3739   -3.2433 H         1 <0>         0.0857
     71 H18        -4.9644   -3.0895   -2.8690 H         1 <0>         0.0744
     72 H19        -7.3864   -3.2747   -2.1728 H         1 <0>         0.0860
     73 H20        -7.5710   -0.5156   -3.4632 H         1 <0>         0.0618
     74 H21        -8.9253   -1.4765   -2.8223 H         1 <0>         0.0628
     75 H22        -7.6905   -0.8298   -1.7153 H         1 <0>         0.0495
     76 H23        -6.6243   -3.9578   -4.4314 H         1 <0>         0.0543
     77 H24        -8.2634   -3.2664   -4.4921 H         1 <0>         0.0605
     78 H25        -6.8675   -2.2944   -5.0165 H         1 <0>         0.0564
     79 H26        -7.7330   -2.8513   -0.5651 H         1 <0>         0.4188
     80 H27        -8.1859   -3.3951    2.2319 H         1 <0>         0.0851
     81 H28        -7.8427   -5.0876    2.6633 H         1 <0>         0.0871
     82 H29        -5.4105   -4.6410    2.4806 H         1 <0>         0.0944
     83 H30        -5.7537   -2.9485    2.0492 H         1 <0>         0.0892
     84 H31        -6.8943   -2.6246    4.2270 H         1 <0>         0.0990
     85 H32        -6.5511   -4.3171    4.6584 H         1 <0>         0.1004
     86 H33        -6.6700   -2.9708    6.3621 H         1 <0>         0.4373
     87 H34        -5.6765   -2.4505    7.6131 H         1 <0>         0.4379
     88 H35        -2.7150   -2.3411    5.6866 H         1 <0>         0.4374
     89 H36        -3.3576   -2.0813    7.2170 H         1 <0>         0.4386
     90 H37        -8.7929   -6.6579    1.4270 H         1 <0>         0.4029
     91 H38       -10.4806   -8.3735    1.6184 H         1 <0>         0.1100
     92 H39       -11.6568   -8.5637    0.2960 H         1 <0>         0.1190
     93 H40       -10.1255  -10.7759    0.4501 H         1 <0>         0.4040
     94 H41        -8.8704  -10.7722   -0.6668 H         1 <0>         0.4076
     95 H42       -13.1687   -6.9663    0.0513 H         1 <0>         0.4035
     96 H43       -13.6683   -5.8071    1.1600 H         1 <0>         0.4078
     97 H44        -2.5089    2.0263   -1.7199 H         1 <0>         0.4091
     98 H45        -0.3091    2.2529   -4.7940 H         1 <0>         0.1030
     99 H46        -1.8902    2.7600   -4.1528 H         1 <0>         0.0856
    100 H47        -2.4814    5.1133   -4.0228 H         1 <0>         0.1224
    101 H48        -2.1362    7.3666   -4.9538 H         1 <0>         0.1234
    102 H49        -0.0736    7.8830   -6.1955 H         1 <0>         0.1226
    103 H50         1.6443    6.1463   -6.5055 H         1 <0>         0.1206
    104 H51         1.3029    3.8954   -5.5673 H         1 <0>         0.1138
    105 H52         1.5948    3.8607   -2.3195 H         1 <0>         0.4057
    106 H53         3.5315    3.1606   -5.5434 H         1 <0>         0.0522
    107 H54         3.2555    4.4266   -4.3230 H         1 <0>         0.0558
    108 H55         5.5020    4.4474   -5.1345 H         1 <0>         0.3878
    109 H56         3.7881    0.8612   -4.7938 H         1 <0>         0.3499
    110 H57        -4.1145   -3.0595    3.9818 H         1 <0>         0.4396
    111 H58         5.1040    1.2569   -3.8570 H         1 <0>         0.3557
@<TRIPOS>BOND
     1    1    2 1
     2    1   60 1
     3    1   61 1
     4    1   62 1
     5    2    3 1
     6    2    4 1
     7    2   63 1
     8    3   64 1
     9    3   65 1
    10    3   66 1
    11    4    5 1
    12    4   67 1
    13    4   68 1
    14    5    6 1
    15    5    7 1
    16    5   40 1
    17    7    8 2
    18    7    9 am
    19    9   10 1
    20    9   69 1
    21   10   11 1
    22   10   12 1
    23   10   16 1
    24   12   13 1
    25   12   70 1
    26   12   71 1
    27   13   14 1
    28   13   15 1
    29   13   72 1
    30   14   73 1
    31   14   74 1
    32   14   75 1
    33   15   76 1
    34   15   77 1
    35   15   78 1
    36   16   17 2
    37   16   18 am
    38   18   19 1
    39   18   79 1
    40   19   20 1
    41   19   21 1
    42   19   28 1
    43   21   22 1
    44   21   80 1
    45   21   81 1
    46   22   23 1
    47   22   82 1
    48   22   83 1
    49   23   24 1
    50   23   84 1
    51   23   85 1
    52   24   25 2
    53   24  110 1
    54   25   26 1
    55   25   27 1
    56   26   86 1
    57   26   87 1
    58   27   88 1
    59   27   89 1
    60   28   29 2
    61   28   30 am
    62   30   31 1
    63   30   90 1
    64   31   32 1
    65   31   33 1
    66   31   37 1
    67   33   34 1
    68   33   91 1
    69   33   92 1
    70   34   35 2
    71   34   36 am
    72   36   93 1
    73   36   94 1
    74   37   38 2
    75   37   39 am
    76   39   95 1
    77   39   96 1
    78   40   41 am
    79   40   97 1
    80   41   42 2
    81   41   43 1
    82   43   44 1
    83   43   45 1
    84   43   52 1
    85   45   46 1
    86   45   98 1
    87   45   99 1
    88   46   51 ar
    89   46   47 ar
    90   47   48 ar
    91   47  100 1
    92   48   49 ar
    93   48  101 1
    94   49   50 ar
    95   49  102 1
    96   50   51 ar
    97   50  103 1
    98   51  104 1
    99   52   53 am
   100   52  105 1
   101   53   54 2
   102   53   55 1
   103   55   56 1
   104   55   57 1
   105   55   59 1
   106   57   58 1
   107   57  106 1
   108   57  107 1
   109   58  108 1
   110   59  109 1
   111   59  111 1
@<TRIPOS>MOLECULE
ZINC29221575
  111   111     0     0     0
SMALL
USER_CHARGES

@<TRIPOS>ATOM
      1 C1         -0.3805    1.4219   -1.8389 C.3       1 <0>        -0.1482
      2 C2         -0.1887   -0.0193   -1.3625 C.3       1 <0>        -0.0908
      3 C3          0.6549   -0.0265   -0.0861 C.3       1 <0>        -0.1429
      4 C4         -1.5539   -0.6474   -1.0750 C.3       1 <0>        -0.1211
      5 C5         -1.3711   -2.1242   -0.7190 C.3       1 <0>         0.1278
      6 H1         -0.6683   -2.2139    0.1093 H         1 <0>         0.1230
      7 C6         -2.6992   -2.7121   -0.3170 C.2       1 <0>         0.5188
      8 O1         -3.1642   -3.6424   -0.9407 O.2       1 <0>        -0.5300
      9 N1         -3.3701   -2.2040    0.7358 N.am      1 <0>        -0.7098
     10 C7         -4.7096   -2.7010    1.0597 C.3       1 <0>         0.1326
     11 H2         -5.2152   -3.0063    0.1436 H         1 <0>         0.1142
     12 C8         -4.5944   -3.9003    2.0027 C.3       1 <0>        -0.1221
     13 C9         -5.9821   -4.5010    2.2357 C.3       1 <0>        -0.1049
     14 C10        -6.5003   -5.1089    0.9307 C.3       1 <0>        -0.1529
     15 C11        -5.8930   -5.5908    3.3059 C.3       1 <0>        -0.1438
     16 C12        -5.5019   -1.6087    1.7307 C.2       1 <0>         0.5207
     17 O2         -4.9293   -0.6632    2.2298 O.2       1 <0>        -0.5145
     18 N2         -6.8469   -1.6825    1.7761 N.am      1 <0>        -0.7085
     19 C13        -7.6231   -0.5715    2.3323 C.3       1 <0>         0.1342
     20 H3         -7.1346    0.3716    2.0872 H         1 <0>         0.1197
     21 C14        -9.0325   -0.5856    1.7371 C.3       1 <0>        -0.1215
     22 C15        -8.9540   -0.3119    0.2338 C.3       1 <0>        -0.1350
     23 C16       -10.3634   -0.3260   -0.3615 C.3       1 <0>         0.0923
     24 N3        -10.2882   -0.0639   -1.8009 N.pl3     1 <0>        -0.6944
     25 C17       -11.4321   -0.0281   -2.5502 C.cat     1 <0>         0.7418
     26 N4        -11.3637    0.2102   -3.8588 N.pl3     1 <0>        -0.7947
     27 N5        -12.6142   -0.2316   -1.9711 N.pl3     1 <0>        -0.7930
     28 C18        -7.7087   -0.7186    3.8297 C.2       1 <0>         0.5166
     29 O3         -7.1740   -1.6588    4.3782 O.2       1 <0>        -0.5122
     30 N6         -8.3795    0.1948    4.5592 N.am      1 <0>        -0.6974
     31 C19        -8.4627    0.0518    6.0149 C.3       1 <0>         0.1453
     32 H4         -7.5329   -0.3742    6.3919 H         1 <0>         0.1265
     33 C20        -8.6889    1.4252    6.6501 C.3       1 <0>        -0.1523
     34 C21        -7.4849    2.2973    6.4034 C.2       1 <0>         0.5120
     35 O4         -6.5390    1.8631    5.7807 O.2       1 <0>        -0.5218
     36 N7         -7.4592    3.5597    6.8746 N.am      1 <0>        -0.8536
     37 C22        -9.6110   -0.8590    6.3653 C.2       1 <0>         0.5109
     38 O5        -10.2927   -1.3413    5.4858 O.2       1 <0>        -0.5331
     39 N8         -9.8804   -1.1377    7.6562 N.am      1 <0>        -0.8503
     40 N9         -0.8496   -2.8460   -1.8823 N.am      1 <0>        -0.7066
     41 C23         0.4768   -2.8724   -2.1199 C.2       1 <0>         0.5155
     42 O6          1.2387   -2.2987   -1.3707 O.2       1 <0>        -0.5151
     43 C24         1.0133   -3.6150   -3.3165 C.3       1 <0>         0.1372
     44 H5          0.5911   -3.1899   -4.2271 H         1 <0>         0.1155
     45 C25         0.6263   -5.0918   -3.2159 C.3       1 <0>        -0.0889
     46 C26         1.0553   -5.8100   -4.4693 C.ar      1 <0>        -0.0683
     47 C27         0.1950   -5.8912   -5.5483 C.ar      1 <0>        -0.1049
     48 C28         0.5885   -6.5500   -6.6980 C.ar      1 <0>        -0.1122
     49 C29         1.8426   -7.1273   -6.7690 C.ar      1 <0>        -0.1153
     50 C30         2.7033   -7.0454   -5.6904 C.ar      1 <0>        -0.1146
     51 C31         2.3113   -6.3828   -4.5422 C.ar      1 <0>        -0.1102
     52 N10         2.4729   -3.4940   -3.3522 N.am      1 <0>        -0.7108
     53 C32         3.1304   -3.6127   -4.5227 C.2       1 <0>         0.4867
     54 O7          2.5139   -3.8197   -5.5463 O.2       1 <0>        -0.5157
     55 C33         4.6319   -3.4882   -4.5594 C.3       1 <0>         0.0793
     56 H6          5.0595   -3.9915   -3.6922 H         1 <0>         0.1085
     57 C34         5.0217   -2.0089   -4.5342 C.3       1 <0>         0.0930
     58 O8          6.4436   -1.8924   -4.4516 O.3       1 <0>        -0.5542
     59 N11         5.1447   -4.1089   -5.7881 N.3       1 <0>        -0.8059
     60 H7          0.5921    1.8694   -2.0436 H         1 <0>         0.0566
     61 H8         -0.9815    1.4270   -2.7482 H         1 <0>         0.0490
     62 H9         -0.8888    1.9960   -1.0642 H         1 <0>         0.0535
     63 H10         0.3195   -0.5935   -2.1371 H         1 <0>         0.0762
     64 H11         0.7916   -1.0533    0.2533 H         1 <0>         0.0713
     65 H12         1.6275    0.4209   -0.2908 H         1 <0>         0.0526
     66 H13         0.1467    0.5476    0.6886 H         1 <0>         0.0443
     67 H14        -2.0243   -0.1280   -0.2402 H         1 <0>         0.0792
     68 H15        -2.1863   -0.5623   -1.9587 H         1 <0>         0.0694
     69 H16        -2.9660   -1.5093    1.2789 H         1 <0>         0.4147
     70 H17        -3.9433   -4.6520    1.5565 H         1 <0>         0.0851
     71 H18        -4.1748   -3.5750    2.9546 H         1 <0>         0.0758
     72 H19        -6.6650   -3.7196    2.5688 H         1 <0>         0.0807
     73 H20        -7.5179   -5.4710    1.0775 H         1 <0>         0.0571
     74 H21        -6.4941   -4.3498    0.1486 H         1 <0>         0.0496
     75 H22        -5.8582   -5.9391    0.6365 H         1 <0>         0.0633
     76 H23        -5.5238   -5.1577    4.2355 H         1 <0>         0.0573
     77 H24        -6.8816   -6.0188    3.4719 H         1 <0>         0.0569
     78 H25        -5.2100   -6.3722    2.9727 H         1 <0>         0.0560
     79 H26        -7.3010   -2.4712    1.4405 H         1 <0>         0.4064
     80 H27        -9.4882   -1.5614    1.9054 H         1 <0>         0.0899
     81 H28        -9.6368    0.1850    2.2156 H         1 <0>         0.0948
     82 H29        -8.4983    0.6639    0.0655 H         1 <0>         0.0882
     83 H30        -8.3497   -1.0825   -0.2448 H         1 <0>         0.0862
     84 H31       -10.8191   -1.3018   -0.1931 H         1 <0>         0.0954
     85 H32       -10.9677    0.4446    0.1171 H         1 <0>         0.0952
     86 H33        -9.4273    0.0842   -2.2226 H         1 <0>         0.4361
     87 H34       -10.5028    0.3583   -4.2805 H         1 <0>         0.4411
     88 H35       -12.6639   -0.4051   -1.0181 H         1 <0>         0.4401
     89 H36       -13.4253   -0.2062   -2.5025 H         1 <0>         0.4409
     90 H37        -8.8071    0.9468    4.1205 H         1 <0>         0.3992
     91 H38        -9.5705    1.8893    6.2079 H         1 <0>         0.1085
     92 H39        -8.8394    1.3088    7.7234 H         1 <0>         0.1171
     93 H40        -8.2158    3.9070    7.3726 H         1 <0>         0.4032
     94 H41        -6.6843    4.1210    6.7158 H         1 <0>         0.4070
     95 H42        -9.3351   -0.7520    8.3596 H         1 <0>         0.4032
     96 H43       -10.6195   -1.7240    7.8817 H         1 <0>         0.4070
     97 H44        -1.4589   -3.3049   -2.4815 H         1 <0>         0.4111
     98 H45         1.1207   -5.5390   -2.3535 H         1 <0>         0.0820
     99 H46        -0.4541   -5.1772   -3.0999 H         1 <0>         0.0869
    100 H47        -0.7848   -5.4402   -5.4928 H         1 <0>         0.1140
    101 H48        -0.0839   -6.6141   -7.5407 H         1 <0>         0.1172
    102 H49         2.1498   -7.6427   -7.6670 H         1 <0>         0.1182
    103 H50         3.6829   -7.4967   -5.7457 H         1 <0>         0.1185
    104 H51         2.9851   -6.3156   -3.7008 H         1 <0>         0.1107
    105 H52         2.9660   -3.3284   -2.5335 H         1 <0>         0.4109
    106 H53         4.6699   -1.5249   -5.4453 H         1 <0>         0.0498
    107 H54         4.5668   -1.5280   -3.6683 H         1 <0>         0.0537
    108 H55         6.7629   -0.9799   -4.4315 H         1 <0>         0.3816
    109 H56         4.9562   -5.1001   -5.7983 H         1 <0>         0.3456
    110 H57       -12.1748    0.2356   -4.3902 H         1 <0>         0.4413
    111 H58         4.7627   -3.6597   -6.6068 H         1 <0>         0.3495
@<TRIPOS>BOND
     1    1    2 1
     2    1   60 1
     3    1   61 1
     4    1   62 1
     5    2    3 1
     6    2    4 1
     7    2   63 1
     8    3   64 1
     9    3   65 1
    10    3   66 1
    11    4    5 1
    12    4   67 1
    13    4   68 1
    14    5    6 1
    15    5    7 1
    16    5   40 1
    17    7    8 2
    18    7    9 am
    19    9   10 1
    20    9   69 1
    21   10   11 1
    22   10   12 1
    23   10   16 1
    24   12   13 1
    25   12   70 1
    26   12   71 1
    27   13   14 1
    28   13   15 1
    29   13   72 1
    30   14   73 1
    31   14   74 1
    32   14   75 1
    33   15   76 1
    34   15   77 1
    35   15   78 1
    36   16   17 2
    37   16   18 am
    38   18   19 1
    39   18   79 1
    40   19   20 1
    41   19   21 1
    42   19   28 1
    43   21   22 1
    44   21   80 1
    45   21   81 1
    46   22   23 1
    47   22   82 1
    48   22   83 1
    49   23   24 1
    50   23   84 1
    51   23   85 1
    52   24   25 1
    53   24   86 1
    54   25   26 2
    55   25   27 1
    56   26   87 1
    57   26  110 1
    58   27   88 1
    59   27   89 1
    60   28   29 2
    61   28   30 am
    62   30   31 1
    63   30   90 1
    64   31   32 1
    65   31   33 1
    66   31   37 1
    67   33   34 1
    68   33   91 1
    69   33   92 1
    70   34   35 2
    71   34   36 am
    72   36   93 1
    73   36   94 1
    74   37   38 2
    75   37   39 am
    76   39   95 1
    77   39   96 1
    78   40   41 am
    79   40   97 1
    80   41   42 2
    81   41   43 1
    82   43   44 1
    83   43   45 1
    84   43   52 1
    85   45   46 1
    86   45   98 1
    87   45   99 1
    88   46   51 ar
    89   46   47 ar
    90   47   48 ar
    91   47  100 1
    92   48   49 ar
    93   48  101 1
    94   49   50 ar
    95   49  102 1
    96   50   51 ar
    97   50  103 1
    98   51  104 1
    99   52   53 am
   100   52  105 1
   101   53   54 2
   102   53   55 1
   103   55   56 1
   104   55   57 1
   105   55   59 1
   106   57   58 1
   107   57  106 1
   108   57  107 1
   109   58  108 1
   110   59  109 1
   111   59  111 1
@<TRIPOS>MOLECULE
ZINC03925861
   69    73     0     0     0
SMALL
USER_CHARGES
ethyl [2-[5-(3-fluorophenyl)-2-pyridyl]vinyl-methyl-oxo-BLAHyl]aminoformate
@<TRIPOS>ATOM
      1 C1         12.6299    6.8603    9.4219 C.3       1 <0>        -0.1544
      2 C2         11.7349    7.3297    8.2731 C.3       1 <0>         0.0828
      3 O1         12.0043    6.5297    7.0917 O.3       1 <0>        -0.3731
      4 C3         11.2947    6.8169    5.9842 C.2       1 <0>         0.6479
      5 O2         10.4728    7.7116    6.0042 O.2       1 <0>        -0.5710
      6 N1         11.4961    6.1121    4.8532 N.am      1 <0>        -0.7073
      7 C4         10.7240    6.4246    3.6480 C.3       1 <0>         0.1637
      8 H1         10.5440    7.4985    3.5994 H         1 <0>         0.0932
      9 C5          9.3856    5.6834    3.6907 C.3       1 <0>        -0.1314
     10 C6          8.5816    6.0216    2.4349 C.3       1 <0>        -0.1087
     11 C7          9.3579    5.5865    1.1892 C.3       1 <0>        -0.0771
     12 H2          9.5154    4.5079    1.1954 H         1 <0>         0.0827
     13 C8         10.7078    6.3130    1.1480 C.3       1 <0>        -0.0714
     14 H3         10.5449    7.3880    1.0710 H         1 <0>         0.0853
     15 C9         11.5061    5.9813    2.4112 C.3       1 <0>        -0.1221
     16 C10        11.4816    5.8200   -0.0734 C.3       1 <0>        -0.1096
     17 C11        10.7475    6.1613   -1.3705 C.3       1 <0>        -0.1386
     18 H4         10.8217    7.2175   -1.6292 H         1 <0>         0.1232
     19 C12         9.2911    5.6563   -1.3277 C.3       1 <0>        -0.1078
     20 H5          8.7432    6.0698   -2.1744 H         1 <0>         0.0946
     21 C13         8.5637    5.9918   -0.0541 C.3       1 <0>        -0.0418
     22 H6          8.3833    7.0664   -0.0239 H         1 <0>         0.0906
     23 C14         7.2388    5.2736   -0.0438 C.2       1 <0>        -0.0987
     24 C15         6.1081    5.9676   -0.0289 C.2       1 <0>        -0.1271
     25 C16         4.8101    5.2639   -0.0188 C.ar      1 <0>         0.1621
     26 C17         3.6248    6.0023   -0.0036 C.ar      1 <0>        -0.1565
     27 C18         2.4160    5.3351    0.0003 C.ar      1 <0>        -0.0617
     28 C19         2.4276    3.9358   -0.0009 C.ar      1 <0>        -0.1056
     29 C20         3.6505    3.2665   -0.0162 C.ar      1 <0>         0.1221
     30 N2          4.7832    3.9356   -0.0248 N.ar      1 <0>        -0.4772
     31 C21         1.1550    3.1744    0.0076 C.ar      1 <0>        -0.0124
     32 C22         1.1739    1.7804    0.0004 C.ar      1 <0>        -0.1214
     33 C23        -0.0126    1.0758    0.0080 C.ar      1 <0>        -0.0836
     34 C24        -1.2206    1.7494    0.0173 C.ar      1 <0>        -0.1515
     35 C25        -1.2467    3.1344    0.0299 C.ar      1 <0>         0.1050
     36 C26        -0.0636    3.8498    0.0224 C.ar      1 <0>        -0.1479
     37 F1         -2.4296    3.7869    0.0438 F         1 <0>        -0.1366
     38 C27         9.4742    4.1471   -1.5510 C.3       1 <0>         0.0899
     39 H7          9.4759    3.6215   -0.5961 H         1 <0>         0.1093
     40 O3         10.7722    4.0082   -2.2077 O.3       1 <0>        -0.3517
     41 C28        11.3177    5.2204   -2.4416 C.2       1 <0>         0.4849
     42 O4         12.0978    5.5077   -3.3184 O.2       1 <0>        -0.4426
     43 C29         8.3619    3.6057   -2.4513 C.3       1 <0>        -0.1685
     44 H8         12.4277    7.4609   10.3087 H         1 <0>         0.0834
     45 H9         12.4237    5.8121    9.6381 H         1 <0>         0.0670
     46 H10        13.6759    6.9737    9.1371 H         1 <0>         0.0671
     47 H11        11.9411    8.3779    8.0569 H         1 <0>         0.0710
     48 H12        10.6889    7.2164    8.5579 H         1 <0>         0.0708
     49 H13        12.1522    5.3978    4.8372 H         1 <0>         0.4064
     50 H14         9.5656    4.6091    3.7294 H         1 <0>         0.0672
     51 H15         8.8273    5.9910    4.5749 H         1 <0>         0.0703
     52 H16         8.4064    7.0967    2.3955 H         1 <0>         0.0683
     53 H17         7.6248    5.5004    2.4660 H         1 <0>         0.0728
     54 H18        11.6800    4.9063    2.4583 H         1 <0>         0.0744
     55 H19        12.4631    6.5024    2.3825 H         1 <0>         0.0754
     56 H20        12.4654    6.2891   -0.0860 H         1 <0>         0.0780
     57 H21        11.6027    4.7388   -0.0067 H         1 <0>         0.0750
     58 H22         7.2098    4.1940   -0.0486 H         1 <0>         0.1320
     59 H23         6.1372    7.0472   -0.0242 H         1 <0>         0.1290
     60 H24         3.6534    7.0819    0.0008 H         1 <0>         0.1399
     61 H25         1.4837    5.8802    0.0076 H         1 <0>         0.1383
     62 H26         3.6682    2.1867   -0.0214 H         1 <0>         0.1605
     63 H27         2.1160    1.2525   -0.0107 H         1 <0>         0.1344
     64 H28         0.0021   -0.0041    0.0020 H         1 <0>         0.1384
     65 H29        -2.1466    1.1937    0.0187 H         1 <0>         0.1384
     66 H30        -0.0840    4.9296    0.0277 H         1 <0>         0.1377
     67 H31         8.3940    4.1147   -3.4146 H         1 <0>         0.0635
     68 H32         8.5042    2.5354   -2.6010 H         1 <0>         0.0719
     69 H33         7.3950    3.7812   -1.9797 H         1 <0>         0.0890
@<TRIPOS>BOND
     1    1    2 1
     2    1   44 1
     3    1   45 1
     4    1   46 1
     5    2    3 1
     6    2   47 1
     7    2   48 1
     8    3    4 1
     9    4    5 2
    10    4    6 am
    11    6    7 1
    12    6   49 1
    13    7    8 1
    14    7   15 1
    15    7    9 1
    16    9   10 1
    17    9   50 1
    18    9   51 1
    19   10   11 1
    20   10   52 1
    21   10   53 1
    22   11   12 1
    23   11   21 1
    24   11   13 1
    25   13   14 1
    26   13   15 1
    27   13   16 1
    28   15   54 1
    29   15   55 1
    30   16   17 1
    31   16   56 1
    32   16   57 1
    33   17   18 1
    34   17   41 1
    35   17   19 1
    36   19   20 1
    37   19   21 1
    38   19   38 1
    39   21   22 1
    40   21   23 1
    41   23   24 2
    42   23   58 1
    43   24   25 1
    44   24   59 1
    45   25   30 ar
    46   25   26 ar
    47   26   27 ar
    48   26   60 1
    49   27   28 ar
    50   27   61 1
    51   28   29 ar
    52   28   31 1
    53   29   30 ar
    54   29   62 1
    55   31   36 ar
    56   31   32 ar
    57   32   33 ar
    58   32   63 1
    59   33   34 ar
    60   33   64 1
    61   34   35 ar
    62   34   65 1
    63   35   36 ar
    64   35   37 1
    65   36   66 1
    66   38   39 1
    67   38   40 1
    68   38   43 1
    69   40   41 1
    70   41   42 2
    71   43   67 1
    72   43   68 1
    73   43   69 1
@<TRIPOS>MOLECULE
ZINC01490299
   54    58     0     0     0
SMALL
USER_CHARGES

@<TRIPOS>ATOM
      1 C1          0.2678    1.2172   -0.5080 C.3       1 <0>        -0.1458
      2 C2          0.2967   -0.3057   -0.6528 C.3       1 <0>        -0.0630
      3 C3          1.1208   -0.9107    0.4855 C.3       1 <0>        -0.1469
      4 C4         -1.1103   -0.8425   -0.5947 C.ar      1 <0>        -0.0535
      5 C5         -1.8878   -0.6237    0.5272 C.ar      1 <0>        -0.1124
      6 C6         -3.1783   -1.1162    0.5805 C.ar      1 <0>        -0.0926
      7 C7         -3.6915   -1.8270   -0.4883 C.ar      1 <0>        -0.1351
      8 C8         -2.9143   -2.0451   -1.6105 C.ar      1 <0>        -0.0966
      9 C9         -1.6253   -1.5489   -1.6655 C.ar      1 <0>        -0.1177
     10 C10        -5.0981   -2.3647   -0.4298 C.3       1 <0>         0.1436
     11 N1         -6.0257   -1.3651   -0.9650 N.pl3     1 <0>        -0.4412
     12 C11        -6.7202   -0.4500   -0.2256 C.2       1 <0>         0.1043
     13 C12        -7.4739    0.3078   -1.0423 C.2       1 <0>        -0.2204
     14 C13        -7.2572   -0.1370   -2.3674 C.ar      1 <0>        -0.0349
     15 C14        -6.3349   -1.1913   -2.2971 C.ar      1 <0>         0.0544
     16 C15        -5.9197   -1.8354   -3.4659 C.ar      1 <0>         0.0112
     17 C16        -6.3848   -1.4660   -4.6874 C.ar      1 <0>        -0.1626
     18 C17        -7.3067   -0.4158   -4.8239 C.ar      1 <0>         0.2145
     19 C18        -7.7655    0.2638   -3.6718 C.ar      1 <0>        -0.1586
     20 C19        -8.6899    1.3155   -3.8328 C.ar      1 <0>         0.5579
     21 N2         -9.0995    1.6127   -5.0594 N.ar      1 <0>        -0.5886
     22 C20        -8.6553    0.9416   -6.1174 C.ar      1 <0>         0.6770
     23 N3         -7.7762   -0.0381   -6.0224 N.ar      1 <0>        -0.5754
     24 N4         -9.1194    1.2975   -7.3719 N.pl3     1 <0>        -0.6465
     25 C21        -8.7468    0.5013   -8.5438 C.3       1 <0>         0.0294
     26 C22        -8.2228    1.2515   -9.7700 C.3       1 <0>        -0.1736
     27 C23        -9.6211    0.6307   -9.7927 C.3       1 <0>        -0.1598
     28 N5         -9.1583    2.0189   -2.7409 N.pl3     1 <0>        -0.7887
     29 H1          1.2855    1.6055   -0.5500 H         1 <0>         0.0636
     30 H2         -0.3193    1.6482   -1.3189 H         1 <0>         0.0547
     31 H3         -0.1832    1.4828    0.4481 H         1 <0>         0.0577
     32 H4          0.7477   -0.5713   -1.6089 H         1 <0>         0.0805
     33 H5          0.6698   -0.6451    1.4416 H         1 <0>         0.0580
     34 H6          1.1414   -1.9956    0.3823 H         1 <0>         0.0575
     35 H7          2.1384   -0.5224    0.4435 H         1 <0>         0.0635
     36 H8         -1.4868   -0.0683    1.3621 H         1 <0>         0.1278
     37 H9         -3.7855   -0.9458    1.4572 H         1 <0>         0.1244
     38 H10        -3.3152   -2.6007   -2.4453 H         1 <0>         0.1190
     39 H11        -1.0193   -1.7161   -2.5438 H         1 <0>         0.1265
     40 H12        -5.1637   -3.2762   -1.0239 H         1 <0>         0.1044
     41 H13        -5.3598   -2.5859    0.6050 H         1 <0>         0.1130
     42 H14        -6.6719   -0.3508    0.8487 H         1 <0>         0.1868
     43 H15        -8.1280    1.1123   -0.7401 H         1 <0>         0.1526
     44 H16        -5.2108   -2.6472   -3.3960 H         1 <0>         0.1458
     45 H17        -6.0397   -1.9880   -5.5676 H         1 <0>         0.1569
     46 H18        -9.6914    2.0741   -7.4750 H         1 <0>         0.4405
     47 H19        -8.3163   -0.4770   -8.3300 H         1 <0>         0.1345
     48 H20        -8.1553    2.3374   -9.7047 H         1 <0>         0.1111
     49 H21        -7.4473    0.7668  -10.3631 H         1 <0>         0.1183
     50 H22        -9.7654   -0.2624  -10.4008 H         1 <0>         0.1207
     51 H23       -10.4734    1.3082   -9.7425 H         1 <0>         0.1124
     52 H24        -8.6301    2.0613   -1.9284 H         1 <0>         0.4287
     53 H25       -10.0154    2.4707   -2.7863 H         1 <0>         0.4264
     54 H26        -7.4767   -0.4960   -6.8234 H         1 <0>         0.4361
@<TRIPOS>BOND
     1    1    2 1
     2    1   29 1
     3    1   30 1
     4    1   31 1
     5    2    3 1
     6    2    4 1
     7    2   32 1
     8    3   33 1
     9    3   34 1
    10    3   35 1
    11    4    9 ar
    12    4    5 ar
    13    5    6 ar
    14    5   36 1
    15    6    7 ar
    16    6   37 1
    17    7    8 ar
    18    7   10 1
    19    8    9 ar
    20    8   38 1
    21    9   39 1
    22   10   11 1
    23   10   40 1
    24   10   41 1
    25   11   15 1
    26   11   12 1
    27   12   13 2
    28   12   42 1
    29   13   14 1
    30   13   43 1
    31   14   19 ar
    32   14   15 ar
    33   15   16 ar
    34   16   17 ar
    35   16   44 1
    36   17   18 ar
    37   17   45 1
    38   18   23 ar
    39   18   19 ar
    40   19   20 ar
    41   20   21 ar
    42   20   28 1
    43   21   22 ar
    44   22   23 ar
    45   22   24 1
    46   23   54 1
    47   24   25 1
    48   24   46 1
    49   25   27 1
    50   25   26 1
    51   25   47 1
    52   26   27 1
    53   26   48 1
    54   26   49 1
    55   27   50 1
    56   27   51 1
    57   28   52 1
    58   28   53 1
@<TRIPOS>MOLECULE
ZINC01490299
   53    57     0     0     0
SMALL
USER_CHARGES

@<TRIPOS>ATOM
      1 C1          0.0874    1.9529   -0.2770 C.3       1 <0>        -0.1453
      2 C2          0.1689    0.4252   -0.2546 C.3       1 <0>        -0.0606
      3 C3          0.9672   -0.0250    0.9705 C.3       1 <0>        -0.1447
      4 C4         -1.2219   -0.1511   -0.1876 C.ar      1 <0>        -0.0629
      5 C5         -2.0482    0.1595    0.8762 C.ar      1 <0>        -0.1154
      6 C6         -3.3240   -0.3691    0.9378 C.ar      1 <0>        -0.0957
      7 C7         -3.7737   -1.2080   -0.0647 C.ar      1 <0>        -0.1232
      8 C8         -2.9477   -1.5179   -1.1289 C.ar      1 <0>        -0.0938
      9 C9         -1.6734   -0.9858   -1.1927 C.ar      1 <0>        -0.1177
     10 C10        -5.1641   -1.7851    0.0029 C.3       1 <0>         0.1488
     11 N1         -6.1010   -0.8817   -0.6696 N.pl3     1 <0>        -0.4480
     12 C11        -6.8513    0.0826   -0.0584 C.2       1 <0>         0.0573
     13 C12        -7.5964    0.7216   -0.9781 C.2       1 <0>        -0.2140
     14 C13        -7.3153    0.1451   -2.2388 C.ar      1 <0>        -0.0474
     15 C14        -6.3642   -0.8627   -2.0225 C.ar      1 <0>         0.0406
     16 C15        -5.8848   -1.6136   -3.0994 C.ar      1 <0>        -0.0456
     17 C16        -6.3140   -1.3938   -4.3692 C.ar      1 <0>        -0.1157
     18 C17        -7.2621   -0.3971   -4.6508 C.ar      1 <0>         0.2365
     19 C18        -7.7855    0.3857   -3.5959 C.ar      1 <0>        -0.2023
     20 C19        -8.7352    1.3811   -3.9020 C.ar      1 <0>         0.5032
     21 N2         -9.1064    1.5305   -5.1671 N.ar      1 <0>        -0.6232
     22 C20        -8.6015    0.7657   -6.1300 C.ar      1 <0>         0.6050
     23 N3         -7.6968   -0.1668   -5.8988 N.ar      1 <0>        -0.6001
     24 N4         -9.0280    0.9685   -7.4310 N.pl3     1 <0>        -0.6719
     25 C21       -10.0166    2.0093   -7.7239 C.3       1 <0>         0.1024
     26 C22       -11.1504    1.6553   -8.6883 C.3       1 <0>        -0.1979
     27 C23       -10.0290    2.5941   -9.1377 C.3       1 <0>        -0.1936
     28 N5         -9.2666    2.1808   -2.9098 N.pl3     1 <0>        -0.8335
     29 H1          1.0934    2.3697   -0.3255 H         1 <0>         0.0602
     30 H2         -0.4813    2.2737   -1.1498 H         1 <0>         0.0562
     31 H3         -0.4079    2.3036    0.6284 H         1 <0>         0.0568
     32 H4          0.6642    0.0745   -1.1600 H         1 <0>         0.0788
     33 H5          0.4718    0.3257    1.8759 H         1 <0>         0.0569
     34 H6          1.0252   -1.1134    0.9864 H         1 <0>         0.0563
     35 H7          1.9731    0.3918    0.9220 H         1 <0>         0.0601
     36 H8         -1.6969    0.8149    1.6594 H         1 <0>         0.1235
     37 H9         -3.9693   -0.1270    1.7692 H         1 <0>         0.1217
     38 H10        -3.2989   -2.1736   -1.9120 H         1 <0>         0.1216
     39 H11        -1.0294   -1.2250   -2.0260 H         1 <0>         0.1242
     40 H12        -5.1786   -2.7568   -0.4908 H         1 <0>         0.0974
     41 H13        -5.4583   -1.9030    1.0458 H         1 <0>         0.1022
     42 H14        -6.8473    0.2982    0.9999 H         1 <0>         0.1700
     43 H15        -8.2861    1.5306   -0.7879 H         1 <0>         0.1405
     44 H16        -5.1543   -2.3880   -2.9173 H         1 <0>         0.1226
     45 H17        -5.9195   -1.9949   -5.1751 H         1 <0>         0.1397
     46 H18        -8.6724    0.4216   -8.1488 H         1 <0>         0.4139
     47 H19       -10.2490    2.6825   -6.8988 H         1 <0>         0.1413
     48 H20       -11.1608    0.6481   -9.1048 H         1 <0>         0.0956
     49 H21       -12.1292    2.0955   -8.4977 H         1 <0>         0.1014
     50 H22       -10.2699    3.6519   -9.2427 H         1 <0>         0.1031
     51 H23        -9.3016    2.2045   -9.8499 H         1 <0>         0.0963
     52 H24        -8.7900    2.2966   -2.0730 H         1 <0>         0.4124
     53 H25       -10.1165    2.6269   -3.0496 H         1 <0>         0.4063
@<TRIPOS>BOND
     1    1    2 1
     2    1   29 1
     3    1   30 1
     4    1   31 1
     5    2    3 1
     6    2    4 1
     7    2   32 1
     8    3   33 1
     9    3   34 1
    10    3   35 1
    11    4    9 ar
    12    4    5 ar
    13    5    6 ar
    14    5   36 1
    15    6    7 ar
    16    6   37 1
    17    7    8 ar
    18    7   10 1
    19    8    9 ar
    20    8   38 1
    21    9   39 1
    22   10   11 1
    23   10   40 1
    24   10   41 1
    25   11   15 1
    26   11   12 1
    27   12   13 2
    28   12   42 1
    29   13   14 1
    30   13   43 1
    31   14   19 ar
    32   14   15 ar
    33   15   16 ar
    34   16   17 ar
    35   16   44 1
    36   17   18 ar
    37   17   45 1
    38   18   23 ar
    39   18   19 ar
    40   19   20 ar
    41   20   21 ar
    42   20   28 1
    43   21   22 ar
    44   22   23 ar
    45   22   24 1
    46   24   25 1
    47   24   46 1
    48   25   27 1
    49   25   26 1
    50   25   47 1
    51   26   27 1
    52   26   48 1
    53   26   49 1
    54   27   50 1
    55   27   51 1
    56   28   52 1
    57   28   53 1
@<TRIPOS>MOLECULE
ZINC35337303
   77    80     0     0     0
SMALL
USER_CHARGES

@<TRIPOS>ATOM
      1 C1         -0.0187    1.5258    0.0104 C.3       1 <0>        -0.1496
      2 C2          0.0021   -0.0041    0.0020 C.3       1 <0>        -0.0233
      3 C3          0.7421   -0.5109    1.2415 C.3       1 <0>        -0.1446
      4 C4         -1.4333   -0.5336    0.0129 C.3       1 <0>        -0.1448
      5 C5          0.7074   -0.4901   -1.2379 C.ar      1 <0>        -0.1003
      6 C6          1.2123    0.4139   -2.1368 C.ar      1 <0>        -0.0399
      7 C7          1.8680   -0.0391   -3.2883 C.ar      1 <0>        -0.1906
      8 C8          2.0044   -1.4142   -3.5154 C.ar      1 <0>        -0.0689
      9 C9          1.4959   -2.3098   -2.6102 C.ar      1 <0>        -0.1001
     10 C10         0.8503   -1.8547   -1.4655 C.ar      1 <0>         0.1731
     11 O1          0.3539   -2.7449   -0.5702 O.3       1 <0>        -0.4811
     12 C11         1.6420   -3.7899   -2.8532 C.3       1 <0>        -0.0227
     13 C12         2.3892   -4.0195   -4.1684 C.3       1 <0>        -0.1491
     14 C13         2.4291   -4.4204   -1.7026 C.3       1 <0>        -0.1457
     15 C14         0.2559   -4.4325   -2.9352 C.3       1 <0>        -0.1458
     16 C15         2.4102    0.9246   -4.2548 C.2       1 <0>         0.3840
     17 O2          2.2905    2.1152   -4.0562 O.2       1 <0>        -0.4268
     18 C16         3.1153    0.4344   -5.4931 C.3       1 <0>         0.0433
     19 N1          3.5595    1.5815   -6.2886 N.pl3     1 <0>        -0.4261
     20 C17         2.8288    2.1925   -7.2581 C.ar      1 <0>         0.0663
     21 C18         1.5515    1.9723   -7.7795 C.ar      1 <0>        -0.0799
     22 C19         1.0754    2.7814   -8.7868 C.ar      1 <0>        -0.0813
     23 C20         1.8544    3.8137   -9.2880 C.ar      1 <0>        -0.0741
     24 C21         3.1179    4.0439   -8.7841 C.ar      1 <0>        -0.0845
     25 C22         3.6133    3.2392   -7.7693 C.ar      1 <0>         0.0895
     26 N2          4.8061    3.2058   -7.0654 N.pl3     1 <0>        -0.4642
     27 C23         4.7193    2.1784   -6.1702 C.cat     1 <0>         0.6444
     28 N3          5.7070    1.8204   -5.2770 N.pl3     1 <0>        -0.7974
     29 C24         5.9461    4.1083   -7.2444 C.3       1 <0>         0.1057
     30 C25         5.7875    5.3193   -6.3229 C.3       1 <0>         0.0333
     31 N4          6.9307    6.2243   -6.5024 N.3       1 <0>        -0.5306
     32 C26         8.1764    5.5985   -6.0354 C.3       1 <0>         0.0076
     33 C27         9.3475    6.5497   -6.2953 C.3       1 <0>         0.0616
     34 O3          9.0932    7.7990   -5.6473 O.3       1 <0>        -0.3793
     35 C28         7.8879    8.4365   -6.0787 C.3       1 <0>         0.0615
     36 C29         6.7020    7.5044   -5.8167 C.3       1 <0>         0.0190
     37 H1          1.0039    1.9031    0.0027 H         1 <0>         0.0578
     38 H2         -0.5459    1.8868   -0.8726 H         1 <0>         0.0582
     39 H3         -0.5289    1.8773    0.9072 H         1 <0>         0.0668
     40 H4          0.2319   -0.1594    2.1383 H         1 <0>         0.0611
     41 H5          0.7568   -1.6008    1.2356 H         1 <0>         0.0765
     42 H6          1.7647   -0.1336    1.2338 H         1 <0>         0.0516
     43 H7         -1.9605   -0.1726   -0.8702 H         1 <0>         0.0559
     44 H8         -1.4185   -1.6235    0.0069 H         1 <0>         0.0589
     45 H9         -1.9435   -0.1821    0.9097 H         1 <0>         0.0677
     46 H10         1.1042    1.4734   -1.9573 H         1 <0>         0.1440
     47 H11         2.5089   -1.7686   -4.4021 H         1 <0>         0.1360
     48 H12        -0.5592   -3.0110   -0.7450 H         1 <0>         0.3951
     49 H13         3.3767   -3.5617   -4.1099 H         1 <0>         0.0567
     50 H14         2.4949   -5.0900   -4.3441 H         1 <0>         0.0675
     51 H15         1.8285   -3.5703   -4.9881 H         1 <0>         0.0574
     52 H16         1.8967   -4.2568   -0.7656 H         1 <0>         0.0772
     53 H17         2.5347   -5.4909   -1.8784 H         1 <0>         0.0608
     54 H18         3.4166   -3.9626   -1.6441 H         1 <0>         0.0518
     55 H19        -0.3049   -3.9833   -3.7549 H         1 <0>         0.0562
     56 H20         0.3615   -5.5030   -3.1110 H         1 <0>         0.0674
     57 H21        -0.2765   -4.2689   -1.9982 H         1 <0>         0.0592
     58 H22         3.9792   -0.1651   -5.2060 H         1 <0>         0.1427
     59 H23         2.4309   -0.1743   -6.0840 H         1 <0>         0.1583
     60 H24         0.9398    1.1700   -7.3941 H         1 <0>         0.1447
     61 H25         0.0881    2.6106   -9.1899 H         1 <0>         0.1539
     62 H26         1.4695    4.4413  -10.0782 H         1 <0>         0.1546
     63 H27         3.7198    4.8489   -9.1791 H         1 <0>         0.1493
     64 H28         5.5680    1.0735   -4.6739 H         1 <0>         0.4371
     65 H29         6.8683    3.5822   -6.9976 H         1 <0>         0.1064
     66 H30         5.9852    4.4432   -8.2810 H         1 <0>         0.1325
     67 H31         4.8654    5.8454   -6.5697 H         1 <0>         0.0950
     68 H32         5.7485    4.9845   -5.2863 H         1 <0>         0.0465
     69 H33         8.1031    5.3947   -4.9672 H         1 <0>         0.0497
     70 H34         8.3391    4.6651   -6.5744 H         1 <0>         0.0848
     71 H35        10.2649    6.1143   -5.8991 H         1 <0>         0.1040
     72 H36         9.4543    6.7111   -7.3679 H         1 <0>         0.0649
     73 H37         7.7496    9.3657   -5.5259 H         1 <0>         0.1061
     74 H38         7.9522    8.6528   -7.1451 H         1 <0>         0.0654
     75 H39         5.7884    7.9623   -6.1960 H         1 <0>         0.0931
     76 H40         6.6052    7.3311   -4.7450 H         1 <0>         0.0499
     77 H41         6.5407    2.3155   -5.2517 H         1 <0>         0.4387
@<TRIPOS>BOND
     1    1    2 1
     2    1   37 1
     3    1   38 1
     4    1   39 1
     5    2    3 1
     6    2    4 1
     7    2    5 1
     8    3   40 1
     9    3   41 1
    10    3   42 1
    11    4   43 1
    12    4   44 1
    13    4   45 1
    14    5   10 ar
    15    5    6 ar
    16    6    7 ar
    17    6   46 1
    18    7    8 ar
    19    7   16 1
    20    8    9 ar
    21    8   47 1
    22    9   10 ar
    23    9   12 1
    24   10   11 1
    25   11   48 1
    26   12   13 1
    27   12   14 1
    28   12   15 1
    29   13   49 1
    30   13   50 1
    31   13   51 1
    32   14   52 1
    33   14   53 1
    34   14   54 1
    35   15   55 1
    36   15   56 1
    37   15   57 1
    38   16   17 2
    39   16   18 1
    40   18   19 1
    41   18   58 1
    42   18   59 1
    43   19   27 2
    44   19   20 1
    45   20   25 ar
    46   20   21 ar
    47   21   22 ar
    48   21   60 1
    49   22   23 ar
    50   22   61 1
    51   23   24 ar
    52   23   62 1
    53   24   25 ar
    54   24   63 1
    55   25   26 1
    56   26   27 1
    57   26   29 1
    58   27   28 1
    59   28   64 1
    60   28   77 1
    61   29   30 1
    62   29   65 1
    63   29   66 1
    64   30   31 1
    65   30   67 1
    66   30   68 1
    67   31   36 1
    68   31   32 1
    69   32   33 1
    70   32   69 1
    71   32   70 1
    72   33   34 1
    73   33   71 1
    74   33   72 1
    75   34   35 1
    76   35   36 1
    77   35   73 1
    78   35   74 1
    79   36   75 1
    80   36   76 1
@<TRIPOS>MOLECULE
ZINC35337303
   78    81     0     0     0
SMALL
USER_CHARGES

@<TRIPOS>ATOM
      1 C1         -0.0187    1.5258    0.0104 C.3       1 <0>        -0.1487
      2 C2          0.0021   -0.0041    0.0020 C.3       1 <0>        -0.0240
      3 C3          0.7421   -0.5109    1.2415 C.3       1 <0>        -0.1454
      4 C4         -1.4333   -0.5336    0.0129 C.3       1 <0>        -0.1463
      5 C5          0.7074   -0.4901   -1.2379 C.ar      1 <0>        -0.0999
      6 C6          1.2123    0.4139   -2.1368 C.ar      1 <0>        -0.0375
      7 C7          1.8680   -0.0391   -3.2883 C.ar      1 <0>        -0.1988
      8 C8          2.0044   -1.4142   -3.5154 C.ar      1 <0>        -0.0685
      9 C9          1.4959   -2.3098   -2.6102 C.ar      1 <0>        -0.0986
     10 C10         0.8503   -1.8547   -1.4655 C.ar      1 <0>         0.1805
     11 O1          0.3539   -2.7449   -0.5702 O.3       1 <0>        -0.4803
     12 C11         1.6420   -3.7899   -2.8532 C.3       1 <0>        -0.0237
     13 C12         2.3892   -4.0195   -4.1684 C.3       1 <0>        -0.1486
     14 C13         2.4291   -4.4204   -1.7026 C.3       1 <0>        -0.1465
     15 C14         0.2559   -4.4325   -2.9352 C.3       1 <0>        -0.1471
     16 C15         2.4102    0.9246   -4.2548 C.2       1 <0>         0.3904
     17 O2          2.2905    2.1152   -4.0562 O.2       1 <0>        -0.4359
     18 C16         3.1153    0.4344   -5.4931 C.3       1 <0>         0.0368
     19 N1          3.5595    1.5815   -6.2886 N.pl3     1 <0>        -0.4140
     20 C17         2.8288    2.1925   -7.2581 C.ar      1 <0>         0.0697
     21 C18         1.5515    1.9723   -7.7795 C.ar      1 <0>        -0.0706
     22 C19         1.0754    2.7814   -8.7868 C.ar      1 <0>        -0.0731
     23 C20         1.8544    3.8137   -9.2880 C.ar      1 <0>        -0.0637
     24 C21         3.1179    4.0439   -8.7841 C.ar      1 <0>        -0.0927
     25 C22         3.6133    3.2392   -7.7693 C.ar      1 <0>         0.0785
     26 N2          4.8061    3.2058   -7.0654 N.pl3     1 <0>        -0.4753
     27 C23         4.7193    2.1784   -6.1702 C.cat     1 <0>         0.6483
     28 N3          5.7070    1.8204   -5.2770 N.pl3     1 <0>        -0.7953
     29 C24         5.9461    4.1083   -7.2444 C.3       1 <0>         0.0868
     30 C25         5.7875    5.3193   -6.3229 C.3       1 <0>        -0.0366
     31 N4          6.9307    6.2243   -6.5024 N.4       1 <0>        -0.3823
     32 C26         8.1602    5.5552   -6.0553 C.3       1 <0>        -0.0563
     33 C27         9.3497    6.4999   -6.2435 C.3       1 <0>         0.0359
     34 O3          9.1133    7.7070   -5.5136 O.3       1 <0>        -0.3500
     35 C28         7.9130    8.3837   -5.8970 C.3       1 <0>         0.0350
     36 C29         6.7207    7.4425   -5.7081 C.3       1 <0>        -0.0434
     37 H1          1.0039    1.9031    0.0027 H         1 <0>         0.0562
     38 H2         -0.5459    1.8868   -0.8726 H         1 <0>         0.0574
     39 H3         -0.5289    1.8773    0.9072 H         1 <0>         0.0684
     40 H4          0.2319   -0.1594    2.1383 H         1 <0>         0.0630
     41 H5          0.7568   -1.6008    1.2356 H         1 <0>         0.0774
     42 H6          1.7647   -0.1336    1.2338 H         1 <0>         0.0510
     43 H7         -1.9605   -0.1726   -0.8702 H         1 <0>         0.0562
     44 H8         -1.4185   -1.6235    0.0069 H         1 <0>         0.0597
     45 H9         -1.9435   -0.1821    0.9097 H         1 <0>         0.0697
     46 H10         1.1042    1.4734   -1.9573 H         1 <0>         0.1437
     47 H11         2.5089   -1.7686   -4.4021 H         1 <0>         0.1354
     48 H12        -0.5592   -3.0110   -0.7450 H         1 <0>         0.3984
     49 H13         3.3767   -3.5617   -4.1099 H         1 <0>         0.0553
     50 H14         2.4949   -5.0900   -4.3441 H         1 <0>         0.0694
     51 H15         1.8285   -3.5703   -4.9881 H         1 <0>         0.0566
     52 H16         1.8967   -4.2568   -0.7656 H         1 <0>         0.0780
     53 H17         2.5347   -5.4909   -1.8784 H         1 <0>         0.0629
     54 H18         3.4166   -3.9626   -1.6441 H         1 <0>         0.0513
     55 H19        -0.3049   -3.9833   -3.7549 H         1 <0>         0.0564
     56 H20         0.3615   -5.5030   -3.1110 H         1 <0>         0.0696
     57 H21        -0.2765   -4.2689   -1.9982 H         1 <0>         0.0600
     58 H22         3.9792   -0.1651   -5.2060 H         1 <0>         0.1471
     59 H23         2.4309   -0.1743   -6.0840 H         1 <0>         0.1634
     60 H24         0.9398    1.1700   -7.3941 H         1 <0>         0.1513
     61 H25         0.0881    2.6106   -9.1899 H         1 <0>         0.1608
     62 H26         1.4695    4.4413  -10.0782 H         1 <0>         0.1598
     63 H27         3.7198    4.8489   -9.1791 H         1 <0>         0.1460
     64 H28         5.5680    1.0735   -4.6739 H         1 <0>         0.4443
     65 H29         6.8683    3.5822   -6.9976 H         1 <0>         0.1255
     66 H30         5.9852    4.4432   -8.2810 H         1 <0>         0.1437
     67 H31         4.8654    5.8454   -6.5697 H         1 <0>         0.1516
     68 H32         5.7485    4.9845   -5.2863 H         1 <0>         0.1411
     69 H33         8.0682    5.2918   -5.0016 H         1 <0>         0.1444
     70 H34         8.3170    4.6513   -6.6440 H         1 <0>         0.1399
     71 H35        10.2564    6.0220   -5.8727 H         1 <0>         0.1474
     72 H36         9.4665    6.7317   -7.3022 H         1 <0>         0.0867
     73 H37         7.7798    9.2691   -5.2753 H         1 <0>         0.1492
     74 H38         7.9806    8.6800   -6.9437 H         1 <0>         0.0868
     75 H39         5.8089    7.9397   -6.0390 H         1 <0>         0.1486
     76 H40         6.6293    7.1784   -4.6545 H         1 <0>         0.1432
     77 H41         6.5407    2.3155   -5.2517 H         1 <0>         0.4352
     78 H42         7.0162    6.4690   -7.4775 H         1 <0>         0.4292
@<TRIPOS>BOND
     1    1    2 1
     2    1   37 1
     3    1   38 1
     4    1   39 1
     5    2    3 1
     6    2    4 1
     7    2    5 1
     8    3   40 1
     9    3   41 1
    10    3   42 1
    11    4   43 1
    12    4   44 1
    13    4   45 1
    14    5   10 ar
    15    5    6 ar
    16    6    7 ar
    17    6   46 1
    18    7    8 ar
    19    7   16 1
    20    8    9 ar
    21    8   47 1
    22    9   10 ar
    23    9   12 1
    24   10   11 1
    25   11   48 1
    26   12   13 1
    27   12   14 1
    28   12   15 1
    29   13   49 1
    30   13   50 1
    31   13   51 1
    32   14   52 1
    33   14   53 1
    34   14   54 1
    35   15   55 1
    36   15   56 1
    37   15   57 1
    38   16   17 2
    39   16   18 1
    40   18   19 1
    41   18   58 1
    42   18   59 1
    43   19   27 2
    44   19   20 1
    45   20   25 ar
    46   20   21 ar
    47   21   22 ar
    48   21   60 1
    49   22   23 ar
    50   22   61 1
    51   23   24 ar
    52   23   62 1
    53   24   25 ar
    54   24   63 1
    55   25   26 1
    56   26   27 1
    57   26   29 1
    58   27   28 1
    59   28   64 1
    60   28   77 1
    61   29   30 1
    62   29   65 1
    63   29   66 1
    64   30   31 1
    65   30   67 1
    66   30   68 1
    67   31   36 1
    68   31   32 1
    69   31   78 1
    70   32   33 1
    71   32   69 1
    72   32   70 1
    73   33   34 1
    74   33   71 1
    75   33   72 1
    76   34   35 1
    77   35   36 1
    78   35   73 1
    79   35   74 1
    80   36   75 1
    81   36   76 1
@<TRIPOS>MOLECULE
ZINC00722091
   61    63     0     0     0
SMALL
USER_CHARGES

@<TRIPOS>ATOM
      1 C1         -0.0187    1.5258    0.0104 C.3       1 <0>        -0.1497
      2 C2          0.0021   -0.0041    0.0020 C.3       1 <0>        -0.0233
      3 C3          0.7421   -0.5109    1.2415 C.3       1 <0>        -0.1445
      4 C4         -1.4333   -0.5336    0.0129 C.3       1 <0>        -0.1449
      5 C5          0.7074   -0.4901   -1.2379 C.ar      1 <0>        -0.1002
      6 C6          1.2123    0.4139   -2.1368 C.ar      1 <0>        -0.0400
      7 C7          1.8680   -0.0391   -3.2883 C.ar      1 <0>        -0.1903
      8 C8          2.0044   -1.4142   -3.5154 C.ar      1 <0>        -0.0690
      9 C9          1.4959   -2.3098   -2.6102 C.ar      1 <0>        -0.1002
     10 C10         0.8503   -1.8547   -1.4655 C.ar      1 <0>         0.1727
     11 O1          0.3539   -2.7449   -0.5702 O.3       1 <0>        -0.4811
     12 C11         1.6420   -3.7899   -2.8532 C.3       1 <0>        -0.0227
     13 C12         2.3892   -4.0195   -4.1684 C.3       1 <0>        -0.1491
     14 C13         2.4291   -4.4204   -1.7026 C.3       1 <0>        -0.1457
     15 C14         0.2559   -4.4325   -2.9352 C.3       1 <0>        -0.1458
     16 C15         2.4102    0.9246   -4.2548 C.2       1 <0>         0.3838
     17 O2          2.2905    2.1152   -4.0562 O.2       1 <0>        -0.4267
     18 C16         3.1153    0.4344   -5.4931 C.3       1 <0>         0.0439
     19 N1          3.5595    1.5815   -6.2886 N.pl3     1 <0>        -0.4278
     20 C17         2.8288    2.1925   -7.2581 C.ar      1 <0>         0.0662
     21 C18         1.5515    1.9723   -7.7795 C.ar      1 <0>        -0.0802
     22 C19         1.0754    2.7814   -8.7868 C.ar      1 <0>        -0.0817
     23 C20         1.8544    3.8137   -9.2880 C.ar      1 <0>        -0.0749
     24 C21         3.1179    4.0439   -8.7841 C.ar      1 <0>        -0.0851
     25 C22         3.6133    3.2392   -7.7693 C.ar      1 <0>         0.0869
     26 N2          4.8061    3.2058   -7.0654 N.pl3     1 <0>        -0.4683
     27 C23         4.7193    2.1784   -6.1702 C.cat     1 <0>         0.6432
     28 N3          5.7070    1.8204   -5.2770 N.pl3     1 <0>        -0.7962
     29 C24         5.9461    4.1083   -7.2444 C.3       1 <0>         0.0667
     30 H1          1.0039    1.9031    0.0027 H         1 <0>         0.0581
     31 H2         -0.5459    1.8868   -0.8726 H         1 <0>         0.0582
     32 H3         -0.5289    1.8773    0.9072 H         1 <0>         0.0667
     33 H4          0.2319   -0.1594    2.1383 H         1 <0>         0.0610
     34 H5          0.7568   -1.6008    1.2356 H         1 <0>         0.0764
     35 H6          1.7647   -0.1336    1.2338 H         1 <0>         0.0517
     36 H7         -1.9605   -0.1726   -0.8702 H         1 <0>         0.0559
     37 H8         -1.4185   -1.6235    0.0069 H         1 <0>         0.0588
     38 H9         -1.9435   -0.1821    0.9097 H         1 <0>         0.0676
     39 H10         1.1042    1.4734   -1.9573 H         1 <0>         0.1442
     40 H11         2.5089   -1.7686   -4.4021 H         1 <0>         0.1360
     41 H12        -0.5592   -3.0110   -0.7450 H         1 <0>         0.3950
     42 H13         3.3767   -3.5617   -4.1099 H         1 <0>         0.0568
     43 H14         2.4949   -5.0900   -4.3441 H         1 <0>         0.0674
     44 H15         1.8285   -3.5703   -4.9881 H         1 <0>         0.0574
     45 H16         1.8967   -4.2568   -0.7656 H         1 <0>         0.0772
     46 H17         2.5347   -5.4909   -1.8784 H         1 <0>         0.0606
     47 H18         3.4166   -3.9626   -1.6441 H         1 <0>         0.0519
     48 H19        -0.3049   -3.9833   -3.7549 H         1 <0>         0.0562
     49 H20         0.3615   -5.5030   -3.1110 H         1 <0>         0.0673
     50 H21        -0.2765   -4.2689   -1.9982 H         1 <0>         0.0592
     51 H22         3.9792   -0.1651   -5.2060 H         1 <0>         0.1428
     52 H23         2.4309   -0.1743   -6.0840 H         1 <0>         0.1577
     53 H24         0.9398    1.1700   -7.3941 H         1 <0>         0.1447
     54 H25         0.0881    2.6106   -9.1899 H         1 <0>         0.1539
     55 H26         1.4695    4.4413  -10.0782 H         1 <0>         0.1545
     56 H27         3.7198    4.8489   -9.1791 H         1 <0>         0.1488
     57 H28         5.5678    1.0737   -4.6737 H         1 <0>         0.4367
     58 H29         5.8332    4.9711   -6.5879 H         1 <0>         0.1022
     59 H30         6.8683    3.5822   -6.9976 H         1 <0>         0.1018
     60 H31         5.9852    4.4432   -8.2810 H         1 <0>         0.1163
     61 H32         6.5409    2.3153   -5.2519 H         1 <0>         0.4407
@<TRIPOS>BOND
     1    1    2 1
     2    1   30 1
     3    1   31 1
     4    1   32 1
     5    2    3 1
     6    2    4 1
     7    2    5 1
     8    3   33 1
     9    3   34 1
    10    3   35 1
    11    4   36 1
    12    4   37 1
    13    4   38 1
    14    5   10 ar
    15    5    6 ar
    16    6    7 ar
    17    6   39 1
    18    7    8 ar
    19    7   16 1
    20    8    9 ar
    21    8   40 1
    22    9   10 ar
    23    9   12 1
    24   10   11 1
    25   11   41 1
    26   12   13 1
    27   12   14 1
    28   12   15 1
    29   13   42 1
    30   13   43 1
    31   13   44 1
    32   14   45 1
    33   14   46 1
    34   14   47 1
    35   15   48 1
    36   15   49 1
    37   15   50 1
    38   16   17 2
    39   16   18 1
    40   18   19 1
    41   18   51 1
    42   18   52 1
    43   19   27 2
    44   19   20 1
    45   20   25 ar
    46   20   21 ar
    47   21   22 ar
    48   21   53 1
    49   22   23 ar
    50   22   54 1
    51   23   24 ar
    52   23   55 1
    53   24   25 ar
    54   24   56 1
    55   25   26 1
    56   26   27 1
    57   26   29 1
    58   27   28 1
    59   28   57 1
    60   28   61 1
    61   29   58 1
    62   29   59 1
    63   29   60 1
@<TRIPOS>MOLECULE
ZINC01745313
   70    72     0     0     0
SMALL
USER_CHARGES

@<TRIPOS>ATOM
      1 C1         -0.0187    1.5258    0.0104 C.3       1 <0>        -0.1569
      2 C2          0.0021   -0.0041    0.0020 C.3       1 <0>        -0.1211
      3 C3          0.7182   -0.4975   -1.2568 C.3       1 <0>        -0.1437
      4 C4          0.7390   -2.0273   -1.2652 C.3       1 <0>         0.0882
      5 N1          1.4247   -2.4998   -2.4705 N.pl3     1 <0>        -0.4307
      6 C5          0.8251   -2.7573   -3.6627 C.ar      1 <0>         0.0641
      7 C6         -0.4958   -2.6753   -4.1102 C.ar      1 <0>        -0.0773
      8 C7         -0.7998   -3.0140   -5.4097 C.ar      1 <0>        -0.0841
      9 C8          0.1957   -3.4362   -6.2783 C.ar      1 <0>        -0.0732
     10 C9          1.5049   -3.5231   -5.8516 C.ar      1 <0>        -0.0882
     11 C10         1.8292   -3.1855   -4.5464 C.ar      1 <0>         0.0916
     12 N2          3.0118   -3.1640   -3.8253 N.pl3     1 <0>        -0.4630
     13 C11         2.7100   -2.7330   -2.5653 C.cat     1 <0>         0.6447
     14 N3          3.6220   -2.5708   -1.5438 N.pl3     1 <0>        -0.7972
     15 C12         4.3400   -3.5302   -4.3234 C.3       1 <0>         0.0577
     16 C13         5.0157   -2.3107   -4.8956 C.2       1 <0>         0.3821
     17 O1          4.4440   -1.2409   -4.8881 O.2       1 <0>        -0.4280
     18 C14         6.3663   -2.4176   -5.4624 C.ar      1 <0>        -0.1901
     19 C15         7.0262   -3.6526   -5.4776 C.ar      1 <0>        -0.0690
     20 C16         8.2869   -3.7471   -6.0084 C.ar      1 <0>        -0.1002
     21 C17         8.9105   -2.6190   -6.5306 C.ar      1 <0>         0.1714
     22 C18         8.2598   -1.3899   -6.5175 C.ar      1 <0>        -0.1004
     23 C19         6.9964   -1.2859   -5.9947 C.ar      1 <0>        -0.0409
     24 C20         8.9420   -0.1715   -7.0842 C.3       1 <0>        -0.0231
     25 C21         8.0178    1.0401   -6.9479 C.3       1 <0>        -0.1495
     26 C22        10.2404    0.0887   -6.3179 C.3       1 <0>        -0.1443
     27 C23         9.2603   -0.4064   -8.5622 C.3       1 <0>        -0.1448
     28 O2         10.1582   -2.7177   -7.0542 O.3       1 <0>        -0.4814
     29 C24         8.9982   -5.0756   -6.0254 C.3       1 <0>        -0.0226
     30 C25         8.1005   -6.1429   -5.3962 C.3       1 <0>        -0.1490
     31 C26         9.3174   -5.4647   -7.4703 C.3       1 <0>        -0.1458
     32 C27        10.2990   -4.9679   -5.2270 C.3       1 <0>        -0.1453
     33 H1          1.0039    1.9031    0.0027 H         1 <0>         0.0569
     34 H2         -0.5459    1.8868   -0.8726 H         1 <0>         0.0587
     35 H3         -0.5289    1.8773    0.9072 H         1 <0>         0.0657
     36 H4          0.5293   -0.3651    0.8851 H         1 <0>         0.0704
     37 H5         -1.0205   -0.3814    0.0098 H         1 <0>         0.0732
     38 H6          0.1910   -0.1364   -2.1398 H         1 <0>         0.0836
     39 H7          1.7408   -0.1202   -1.2645 H         1 <0>         0.0750
     40 H8          1.2661   -2.3884   -0.3821 H         1 <0>         0.1102
     41 H9         -0.2836   -2.4046   -1.2575 H         1 <0>         0.1256
     42 H10        -1.2759   -2.3476   -3.4390 H         1 <0>         0.1477
     43 H11        -1.8211   -2.9508   -5.7552 H         1 <0>         0.1539
     44 H12        -0.0556   -3.6991   -7.2952 H         1 <0>         0.1536
     45 H13         2.2753   -3.8532   -6.5326 H         1 <0>         0.1445
     46 H14         3.3255   -2.2617   -0.6734 H         1 <0>         0.4397
     47 H15         4.9390   -3.9264   -3.5035 H         1 <0>         0.1397
     48 H16         4.2404   -4.2884   -5.1001 H         1 <0>         0.1540
     49 H17         6.5430   -4.5291   -5.0717 H         1 <0>         0.1359
     50 H18         6.4900   -0.3320   -5.9895 H         1 <0>         0.1437
     51 H19         7.7910    1.2075   -5.8950 H         1 <0>         0.0579
     52 H20         8.5112    1.9214   -7.3578 H         1 <0>         0.0665
     53 H21         7.0927    0.8548   -7.4938 H         1 <0>         0.0581
     54 H22        10.8988   -0.7746   -6.4150 H         1 <0>         0.0763
     55 H23        10.7339    0.9699   -6.7278 H         1 <0>         0.0608
     56 H24        10.0136    0.2560   -5.2650 H         1 <0>         0.0516
     57 H25         8.3353   -0.5918   -9.1081 H         1 <0>         0.0558
     58 H26         9.7538    0.4748   -8.9721 H         1 <0>         0.0674
     59 H27         9.9188   -1.2697   -8.6593 H         1 <0>         0.0589
     60 H28        10.1731   -2.9219   -7.9992 H         1 <0>         0.3947
     61 H29         7.1739   -6.2196   -5.9650 H         1 <0>         0.0574
     62 H30         8.6151   -7.1037   -5.4085 H         1 <0>         0.0671
     63 H31         7.8732   -5.8657   -4.3668 H         1 <0>         0.0569
     64 H32         9.9569   -4.7043   -7.9185 H         1 <0>         0.0594
     65 H33         9.8319   -6.4255   -7.4826 H         1 <0>         0.0671
     66 H34         8.3907   -5.5414   -8.0390 H         1 <0>         0.0560
     67 H35        10.0716   -4.6906   -4.1977 H         1 <0>         0.0518
     68 H36        10.8135   -5.9287   -5.2394 H         1 <0>         0.0605
     69 H37        10.9385   -4.2075   -5.6753 H         1 <0>         0.0769
     70 H38         4.5600   -2.7659   -1.6955 H         1 <0>         0.4369
@<TRIPOS>BOND
     1    1    2 1
     2    1   33 1
     3    1   34 1
     4    1   35 1
     5    2    3 1
     6    2   36 1
     7    2   37 1
     8    3    4 1
     9    3   38 1
    10    3   39 1
    11    4    5 1
    12    4   40 1
    13    4   41 1
    14    5   13 2
    15    5    6 1
    16    6   11 ar
    17    6    7 ar
    18    7    8 ar
    19    7   42 1
    20    8    9 ar
    21    8   43 1
    22    9   10 ar
    23    9   44 1
    24   10   11 ar
    25   10   45 1
    26   11   12 1
    27   12   13 1
    28   12   15 1
    29   13   14 1
    30   14   46 1
    31   14   70 1
    32   15   16 1
    33   15   47 1
    34   15   48 1
    35   16   17 2
    36   16   18 1
    37   18   23 ar
    38   18   19 ar
    39   19   20 ar
    40   19   49 1
    41   20   21 ar
    42   20   29 1
    43   21   22 ar
    44   21   28 1
    45   22   23 ar
    46   22   24 1
    47   23   50 1
    48   24   25 1
    49   24   26 1
    50   24   27 1
    51   25   51 1
    52   25   52 1
    53   25   53 1
    54   26   54 1
    55   26   55 1
    56   26   56 1
    57   27   57 1
    58   27   58 1
    59   27   59 1
    60   28   60 1
    61   29   30 1
    62   29   31 1
    63   29   32 1
    64   30   61 1
    65   30   62 1
    66   30   63 1
    67   31   64 1
    68   31   65 1
    69   31   66 1
    70   32   67 1
    71   32   68 1
    72   32   69 1
@<TRIPOS>MOLECULE
ZINC36020657
   80    83     0     0     0
SMALL
USER_CHARGES

@<TRIPOS>ATOM
      1 C1         -0.0187    1.5258    0.0104 C.3       1 <0>        -0.1487
      2 C2          0.0021   -0.0041    0.0020 C.3       1 <0>        -0.0239
      3 C3          0.7421   -0.5109    1.2415 C.3       1 <0>        -0.1454
      4 C4         -1.4333   -0.5336    0.0129 C.3       1 <0>        -0.1463
      5 C5          0.7074   -0.4901   -1.2379 C.ar      1 <0>        -0.1000
      6 C6          1.2123    0.4139   -2.1368 C.ar      1 <0>        -0.0376
      7 C7          1.8680   -0.0391   -3.2883 C.ar      1 <0>        -0.1984
      8 C8          2.0044   -1.4142   -3.5154 C.ar      1 <0>        -0.0685
      9 C9          1.4959   -2.3098   -2.6102 C.ar      1 <0>        -0.0986
     10 C10         0.8503   -1.8547   -1.4655 C.ar      1 <0>         0.1802
     11 O1          0.3539   -2.7449   -0.5702 O.3       1 <0>        -0.4804
     12 C11         1.6420   -3.7899   -2.8532 C.3       1 <0>        -0.0237
     13 C12         2.3892   -4.0195   -4.1684 C.3       1 <0>        -0.1486
     14 C13         2.4291   -4.4204   -1.7026 C.3       1 <0>        -0.1465
     15 C14         0.2559   -4.4325   -2.9352 C.3       1 <0>        -0.1471
     16 C15         2.4102    0.9246   -4.2548 C.2       1 <0>         0.3902
     17 O2          2.2905    2.1152   -4.0562 O.2       1 <0>        -0.4355
     18 C16         3.1153    0.4344   -5.4931 C.3       1 <0>         0.0371
     19 N1          3.5595    1.5815   -6.2886 N.pl3     1 <0>        -0.4145
     20 C17         2.8288    2.1925   -7.2581 C.ar      1 <0>         0.0695
     21 C18         1.5515    1.9723   -7.7795 C.ar      1 <0>        -0.0710
     22 C19         1.0754    2.7814   -8.7868 C.ar      1 <0>        -0.0735
     23 C20         1.8544    3.8137   -9.2880 C.ar      1 <0>        -0.0641
     24 C21         3.1179    4.0439   -8.7841 C.ar      1 <0>        -0.0923
     25 C22         3.6133    3.2392   -7.7693 C.ar      1 <0>         0.0790
     26 N2          4.8061    3.2058   -7.0654 N.pl3     1 <0>        -0.4747
     27 C23         4.7193    2.1784   -6.1702 C.cat     1 <0>         0.6482
     28 N3          5.7070    1.8204   -5.2770 N.pl3     1 <0>        -0.7955
     29 C24         5.9461    4.1083   -7.2444 C.3       1 <0>         0.0863
     30 C25         5.7875    5.3193   -6.3229 C.3       1 <0>        -0.0369
     31 N4          6.9307    6.2243   -6.5024 N.4       1 <0>        -0.3793
     32 C26         8.1593    5.5509   -6.0647 C.3       1 <0>        -0.0186
     33 C27         9.3634    6.4587   -6.3247 C.3       1 <0>        -0.1459
     34 C28         9.1893    7.7646   -5.5440 C.3       1 <0>        -0.1420
     35 C29         7.8681    8.4210   -5.9547 C.3       1 <0>        -0.1471
     36 C30         6.7194    7.4405   -5.7084 C.3       1 <0>        -0.0066
     37 H1          1.0039    1.9031    0.0027 H         1 <0>         0.0562
     38 H2         -0.5459    1.8868   -0.8726 H         1 <0>         0.0575
     39 H3         -0.5289    1.8773    0.9072 H         1 <0>         0.0683
     40 H4          0.2319   -0.1594    2.1383 H         1 <0>         0.0630
     41 H5          0.7568   -1.6008    1.2356 H         1 <0>         0.0773
     42 H6          1.7647   -0.1336    1.2338 H         1 <0>         0.0510
     43 H7         -1.9605   -0.1726   -0.8702 H         1 <0>         0.0562
     44 H8         -1.4185   -1.6235    0.0069 H         1 <0>         0.0597
     45 H9         -1.9435   -0.1821    0.9097 H         1 <0>         0.0696
     46 H10         1.1042    1.4734   -1.9573 H         1 <0>         0.1437
     47 H11         2.5089   -1.7686   -4.4021 H         1 <0>         0.1354
     48 H12        -0.5592   -3.0110   -0.7450 H         1 <0>         0.3983
     49 H13         3.3767   -3.5617   -4.1099 H         1 <0>         0.0554
     50 H14         2.4949   -5.0900   -4.3441 H         1 <0>         0.0694
     51 H15         1.8285   -3.5703   -4.9881 H         1 <0>         0.0567
     52 H16         1.8967   -4.2568   -0.7656 H         1 <0>         0.0779
     53 H17         2.5347   -5.4909   -1.8784 H         1 <0>         0.0628
     54 H18         3.4166   -3.9626   -1.6441 H         1 <0>         0.0513
     55 H19        -0.3049   -3.9833   -3.7549 H         1 <0>         0.0565
     56 H20         0.3615   -5.5030   -3.1110 H         1 <0>         0.0695
     57 H21        -0.2765   -4.2689   -1.9982 H         1 <0>         0.0599
     58 H22         3.9792   -0.1651   -5.2060 H         1 <0>         0.1468
     59 H23         2.4309   -0.1743   -6.0840 H         1 <0>         0.1632
     60 H24         0.9398    1.1700   -7.3941 H         1 <0>         0.1510
     61 H25         0.0881    2.6106   -9.1899 H         1 <0>         0.1604
     62 H26         1.4695    4.4413  -10.0782 H         1 <0>         0.1596
     63 H27         3.7198    4.8489   -9.1791 H         1 <0>         0.1462
     64 H28         5.5680    1.0735   -4.6739 H         1 <0>         0.4439
     65 H29         6.8683    3.5822   -6.9976 H         1 <0>         0.1256
     66 H30         5.9852    4.4432   -8.2810 H         1 <0>         0.1431
     67 H31         4.8654    5.8454   -6.5697 H         1 <0>         0.1495
     68 H32         5.7485    4.9845   -5.2863 H         1 <0>         0.1393
     69 H33         8.0933    5.3321   -4.9989 H         1 <0>         0.1338
     70 H34         8.2802    4.6201   -6.6189 H         1 <0>         0.1263
     71 H35        10.2744    5.9576   -5.9974 H         1 <0>         0.1179
     72 H36         9.4305    6.6778   -7.3904 H         1 <0>         0.0922
     73 H37         9.1734    7.5509   -4.4753 H         1 <0>         0.0840
     74 H38        10.0164    8.4375   -5.7702 H         1 <0>         0.1007
     75 H39         7.7102    9.3227   -5.3629 H         1 <0>         0.1192
     76 H40         7.9042    8.6809   -7.0127 H         1 <0>         0.0917
     77 H41         5.7772    7.9049   -5.9995 H         1 <0>         0.1351
     78 H42         6.6840    7.1815   -4.6502 H         1 <0>         0.1322
     79 H43         6.5407    2.3155   -5.2517 H         1 <0>         0.4353
     80 H44         7.0136    6.4705   -7.4774 H         1 <0>         0.4282
@<TRIPOS>BOND
     1    1    2 1
     2    1   37 1
     3    1   38 1
     4    1   39 1
     5    2    3 1
     6    2    4 1
     7    2    5 1
     8    3   40 1
     9    3   41 1
    10    3   42 1
    11    4   43 1
    12    4   44 1
    13    4   45 1
    14    5   10 ar
    15    5    6 ar
    16    6    7 ar
    17    6   46 1
    18    7    8 ar
    19    7   16 1
    20    8    9 ar
    21    8   47 1
    22    9   10 ar
    23    9   12 1
    24   10   11 1
    25   11   48 1
    26   12   13 1
    27   12   14 1
    28   12   15 1
    29   13   49 1
    30   13   50 1
    31   13   51 1
    32   14   52 1
    33   14   53 1
    34   14   54 1
    35   15   55 1
    36   15   56 1
    37   15   57 1
    38   16   17 2
    39   16   18 1
    40   18   19 1
    41   18   58 1
    42   18   59 1
    43   19   27 2
    44   19   20 1
    45   20   25 ar
    46   20   21 ar
    47   21   22 ar
    48   21   60 1
    49   22   23 ar
    50   22   61 1
    51   23   24 ar
    52   23   62 1
    53   24   25 ar
    54   24   63 1
    55   25   26 1
    56   26   27 1
    57   26   29 1
    58   27   28 1
    59   28   64 1
    60   28   79 1
    61   29   30 1
    62   29   65 1
    63   29   66 1
    64   30   31 1
    65   30   67 1
    66   30   68 1
    67   31   36 1
    68   31   32 1
    69   31   80 1
    70   32   33 1
    71   32   69 1
    72   32   70 1
    73   33   34 1
    74   33   71 1
    75   33   72 1
    76   34   35 1
    77   34   73 1
    78   34   74 1
    79   35   36 1
    80   35   75 1
    81   35   76 1
    82   36   77 1
    83   36   78 1
@<TRIPOS>MOLECULE
ZINC01883103
   71    74     0     0     0
SMALL
USER_CHARGES

@<TRIPOS>ATOM
      1 C1         -0.0187    1.5258    0.0104 C.3       1 <0>        -0.1495
      2 C2          0.0021   -0.0041    0.0020 C.3       1 <0>        -0.0232
      3 C3          0.7421   -0.5109    1.2415 C.3       1 <0>        -0.1444
      4 C4         -1.4333   -0.5336    0.0129 C.3       1 <0>        -0.1448
      5 C5          0.7074   -0.4901   -1.2379 C.ar      1 <0>        -0.1003
      6 C6          1.2123    0.4139   -2.1368 C.ar      1 <0>        -0.0402
      7 C7          1.8680   -0.0391   -3.2883 C.ar      1 <0>        -0.1896
      8 C8          2.0044   -1.4142   -3.5154 C.ar      1 <0>        -0.0692
      9 C9          1.4959   -2.3098   -2.6102 C.ar      1 <0>        -0.1001
     10 C10         0.8503   -1.8547   -1.4655 C.ar      1 <0>         0.1722
     11 O1          0.3539   -2.7449   -0.5702 O.3       1 <0>        -0.4813
     12 C11         1.6420   -3.7899   -2.8532 C.3       1 <0>        -0.0226
     13 C12         2.3892   -4.0195   -4.1684 C.3       1 <0>        -0.1491
     14 C13         2.4291   -4.4204   -1.7026 C.3       1 <0>        -0.1456
     15 C14         0.2559   -4.4325   -2.9352 C.3       1 <0>        -0.1457
     16 C15         2.4102    0.9246   -4.2548 C.2       1 <0>         0.3828
     17 O2          2.2905    2.1152   -4.0562 O.2       1 <0>        -0.4245
     18 C16         3.1153    0.4344   -5.4931 C.3       1 <0>         0.0437
     19 N1          3.5595    1.5815   -6.2886 N.pl3     1 <0>        -0.4273
     20 C17         2.8288    2.1925   -7.2581 C.ar      1 <0>         0.0662
     21 C18         1.5515    1.9723   -7.7795 C.ar      1 <0>        -0.0797
     22 C19         1.0754    2.7814   -8.7868 C.ar      1 <0>        -0.0830
     23 C20         1.8544    3.8137   -9.2880 C.ar      1 <0>        -0.0747
     24 C21         3.1179    4.0439   -8.7841 C.ar      1 <0>        -0.0865
     25 C22         3.6133    3.2392   -7.7693 C.ar      1 <0>         0.0925
     26 N2          4.8061    3.2058   -7.0654 N.pl3     1 <0>        -0.4610
     27 C23         4.7193    2.1784   -6.1702 C.cat     1 <0>         0.6464
     28 N3          5.7070    1.8204   -5.2770 N.pl3     1 <0>        -0.7979
     29 C24         5.9461    4.1083   -7.2444 C.3       1 <0>         0.1507
     30 C25         5.7899    5.3011   -6.3367 C.ar      1 <0>        -0.1449
     31 C26         5.1194    6.4251   -6.7817 C.ar      1 <0>        -0.0887
     32 C27         4.9762    7.5193   -5.9491 C.ar      1 <0>        -0.1132
     33 C28         5.5030    7.4892   -4.6714 C.ar      1 <0>        -0.0920
     34 C29         6.1727    6.3649   -4.2262 C.ar      1 <0>        -0.1142
     35 C30         6.3122    5.2691   -5.0573 C.ar      1 <0>        -0.0997
     36 H1          1.0039    1.9031    0.0027 H         1 <0>         0.0580
     37 H2         -0.5459    1.8868   -0.8726 H         1 <0>         0.0582
     38 H3         -0.5289    1.8773    0.9072 H         1 <0>         0.0665
     39 H4          0.2319   -0.1594    2.1383 H         1 <0>         0.0609
     40 H5          0.7568   -1.6008    1.2356 H         1 <0>         0.0764
     41 H6          1.7647   -0.1336    1.2338 H         1 <0>         0.0517
     42 H7         -1.9605   -0.1726   -0.8702 H         1 <0>         0.0559
     43 H8         -1.4185   -1.6235    0.0069 H         1 <0>         0.0588
     44 H9         -1.9435   -0.1821    0.9097 H         1 <0>         0.0675
     45 H10         1.1042    1.4734   -1.9573 H         1 <0>         0.1439
     46 H11         2.5089   -1.7686   -4.4021 H         1 <0>         0.1360
     47 H12        -0.5592   -3.0110   -0.7450 H         1 <0>         0.3948
     48 H13         3.3767   -3.5617   -4.1099 H         1 <0>         0.0569
     49 H14         2.4949   -5.0900   -4.3441 H         1 <0>         0.0673
     50 H15         1.8285   -3.5703   -4.9881 H         1 <0>         0.0574
     51 H16         1.8967   -4.2568   -0.7656 H         1 <0>         0.0771
     52 H17         2.5347   -5.4909   -1.8784 H         1 <0>         0.0606
     53 H18         3.4166   -3.9626   -1.6441 H         1 <0>         0.0519
     54 H19        -0.3049   -3.9833   -3.7549 H         1 <0>         0.0562
     55 H20         0.3615   -5.5030   -3.1110 H         1 <0>         0.0672
     56 H21        -0.2765   -4.2689   -1.9982 H         1 <0>         0.0591
     57 H22         3.9792   -0.1651   -5.2060 H         1 <0>         0.1422
     58 H23         2.4309   -0.1743   -6.0840 H         1 <0>         0.1573
     59 H24         0.9398    1.1700   -7.3941 H         1 <0>         0.1440
     60 H25         0.0881    2.6106   -9.1899 H         1 <0>         0.1532
     61 H26         1.4695    4.4413  -10.0782 H         1 <0>         0.1537
     62 H27         3.7198    4.8489   -9.1791 H         1 <0>         0.1462
     63 H28         5.5680    1.0735   -4.6739 H         1 <0>         0.4363
     64 H29         6.8683    3.5822   -6.9976 H         1 <0>         0.1143
     65 H30         5.9852    4.4432   -8.2810 H         1 <0>         0.1294
     66 H31         4.7079    6.4486   -7.7799 H         1 <0>         0.1266
     67 H32         4.4530    8.3977   -6.2969 H         1 <0>         0.1335
     68 H33         5.3917    8.3443   -4.0212 H         1 <0>         0.1330
     69 H34         6.5845    6.3415   -3.2281 H         1 <0>         0.1318
     70 H35         6.8322    4.3893   -4.7081 H         1 <0>         0.1170
     71 H36         6.5407    2.3155   -5.2517 H         1 <0>         0.4377
@<TRIPOS>BOND
     1    1    2 1
     2    1   36 1
     3    1   37 1
     4    1   38 1
     5    2    3 1
     6    2    4 1
     7    2    5 1
     8    3   39 1
     9    3   40 1
    10    3   41 1
    11    4   42 1
    12    4   43 1
    13    4   44 1
    14    5   10 ar
    15    5    6 ar
    16    6    7 ar
    17    6   45 1
    18    7    8 ar
    19    7   16 1
    20    8    9 ar
    21    8   46 1
    22    9   10 ar
    23    9   12 1
    24   10   11 1
    25   11   47 1
    26   12   13 1
    27   12   14 1
    28   12   15 1
    29   13   48 1
    30   13   49 1
    31   13   50 1
    32   14   51 1
    33   14   52 1
    34   14   53 1
    35   15   54 1
    36   15   55 1
    37   15   56 1
    38   16   17 2
    39   16   18 1
    40   18   19 1
    41   18   57 1
    42   18   58 1
    43   19   27 2
    44   19   20 1
    45   20   25 ar
    46   20   21 ar
    47   21   22 ar
    48   21   59 1
    49   22   23 ar
    50   22   60 1
    51   23   24 ar
    52   23   61 1
    53   24   25 ar
    54   24   62 1
    55   25   26 1
    56   26   27 1
    57   26   29 1
    58   27   28 1
    59   28   63 1
    60   28   71 1
    61   29   30 1
    62   29   64 1
    63   29   65 1
    64   30   35 ar
    65   30   31 ar
    66   31   32 ar
    67   31   66 1
    68   32   33 ar
    69   32   67 1
    70   33   34 ar
    71   33   68 1
    72   34   35 ar
    73   34   69 1
    74   35   70 1
