@<TRIPOS>MOLECULE
ZINC26840105
   41    44     0     0     0
SMALL
USER_CHARGES
2-(4-methylpiperazin-1-yl)pyrido[3,2-c]isoquinolin-6-ol
@<TRIPOS>ATOM
      1 C1         -9.2518    0.8372    1.1511 C.3       1 <0>        -0.0453
      2 N1         -7.9682    1.5515    1.1432 N.4       1 <0>        -0.4048
      3 C2         -7.1471    1.1464   -0.0063 C.3       1 <0>        -0.0034
      4 C3         -5.7906    1.8515    0.0655 C.3       1 <0>         0.0347
      5 N2         -5.9974    3.3064    0.0746 N.pl3     1 <0>        -0.4724
      6 C4         -6.8185    3.7115    1.2240 C.3       1 <0>         0.0246
      7 C5         -8.1751    3.0064    1.1523 C.3       1 <0>         0.0008
      8 C6         -4.7836    3.9819    0.0671 C.ar      1 <0>         0.2782
      9 C7         -4.7751    5.3801    0.0744 C.ar      1 <0>        -0.1306
     10 C8         -3.5874    6.0526    0.0672 C.ar      1 <0>        -0.0855
     11 C9         -2.3919    5.3087    0.0524 C.ar      1 <0>         0.1208
     12 C10        -2.4744    3.9003    0.0461 C.ar      1 <0>         0.1398
     13 N3         -3.6580    3.2931    0.0536 N.ar      1 <0>        -0.4698
     14 C11        -1.2267    3.1279    0.0306 C.ar      1 <0>        -0.0110
     15 C12        -1.2106    1.7346    0.0173 C.ar      1 <0>        -0.0931
     16 C13        -0.0126    1.0758    0.0080 C.ar      1 <0>        -0.0827
     17 C14         1.1863    1.7783    0.0003 C.ar      1 <0>        -0.1135
     18 C15         1.2006    3.1442    0.0075 C.ar      1 <0>        -0.0430
     19 C16        -0.0082    3.8455    0.0228 C.ar      1 <0>        -0.1078
     20 C17        -0.0570    5.3064    0.0307 C.2       1 <0>         0.5018
     21 N4         -1.2045    5.9367    0.0445 N.am      1 <0>        -0.5837
     22 O1          1.0971    6.0156    0.0235 O.2       1 <0>        -0.5733
     23 H1         -9.0679   -0.2473    1.1441 H         1 <0>         0.1259
     24 H2         -9.8323    1.1165    0.2595 H         1 <0>         0.1208
     25 H3         -9.8163    1.1076    2.0557 H         1 <0>         0.1256
     26 H4         -6.9968    0.0569    0.0162 H         1 <0>         0.1415
     27 H5         -7.6583    1.4268   -0.9391 H         1 <0>         0.1363
     28 H6         -5.2682    1.5487    0.9850 H         1 <0>         0.0773
     29 H7         -5.1852    1.5717   -0.8092 H         1 <0>         0.1333
     30 H8         -6.3073    3.4311    2.1568 H         1 <0>         0.0734
     31 H9         -6.9688    4.8010    1.2015 H         1 <0>         0.1313
     32 H10        -8.6981    3.3081    0.2328 H         1 <0>         0.1387
     33 H11        -8.7810    3.2851    2.0270 H         1 <0>         0.1427
     34 H12        -5.7065    5.9268    0.0854 H         1 <0>         0.1499
     35 H13        -3.5651    7.1324    0.0731 H         1 <0>         0.1578
     36 H14        -2.1370    1.1796    0.0183 H         1 <0>         0.1390
     37 H15         0.0021   -0.0041    0.0020 H         1 <0>         0.1373
     38 H16         2.1205    1.2364   -0.0119 H         1 <0>         0.1404
     39 H17         2.1392    3.6784    0.0018 H         1 <0>         0.1496
     40 H18        -7.4258    1.2797    2.0608 H         1 <0>         0.4424
     41 H19        -1.1636    7.0359    0.0496 H         1 <0>         0.4559
@<TRIPOS>BOND
     1    1    2 1
     2    1   23 1
     3    1   24 1
     4    1   25 1
     5    2    7 1
     6    2    3 1
     7    2   40 1
     8    3    4 1
     9    3   26 1
    10    3   27 1
    11    4    5 1
    12    4   28 1
    13    4   29 1
    14    5    6 1
    15    5    8 1
    16    6    7 1
    17    6   30 1
    18    6   31 1
    19    7   32 1
    20    7   33 1
    21    8   13 ar
    22    8    9 ar
    23    9   10 ar
    24    9   34 1
    25   10   11 ar
    26   10   35 1
    27   11   21 1
    28   11   12 ar
    29   12   13 ar
    30   12   14 1
    31   14   19 ar
    32   14   15 ar
    33   15   16 ar
    34   15   36 1
    35   16   17 ar
    36   16   37 1
    37   17   18 ar
    38   17   38 1
    39   18   19 ar
    40   18   39 1
    41   19   20 1
    42   20   21 am
    43   20   22 2
    44   21   41 1
@<TRIPOS>MOLECULE
ZINC26840105
   40    43     0     0     0
SMALL
USER_CHARGES
2-(4-methylpiperazin-1-yl)pyrido[3,2-c]isoquinolin-6-ol
@<TRIPOS>ATOM
      1 C1         -9.2518    0.8372    1.1511 C.3       1 <0>         0.0223
      2 N1         -7.9682    1.5515    1.1432 N.3       1 <0>        -0.5461
      3 C2         -7.1471    1.1464   -0.0063 C.3       1 <0>         0.0501
      4 C3         -5.7906    1.8515    0.0655 C.3       1 <0>         0.0669
      5 N2         -5.9974    3.3064    0.0746 N.pl3     1 <0>        -0.4744
      6 C4         -6.8185    3.7115    1.2240 C.3       1 <0>         0.0587
      7 C5         -8.1751    3.0064    1.1523 C.3       1 <0>         0.0536
      8 C6         -4.7836    3.9819    0.0671 C.ar      1 <0>         0.3070
      9 C7         -4.7751    5.3801    0.0744 C.ar      1 <0>        -0.1382
     10 C8         -3.5874    6.0526    0.0672 C.ar      1 <0>        -0.0849
     11 C9         -2.3919    5.3087    0.0524 C.ar      1 <0>         0.0925
     12 C10        -2.4744    3.9003    0.0461 C.ar      1 <0>         0.1410
     13 N3         -3.6580    3.2931    0.0536 N.ar      1 <0>        -0.4754
     14 C11        -1.2267    3.1279    0.0306 C.ar      1 <0>        -0.0031
     15 C12        -1.2106    1.7346    0.0173 C.ar      1 <0>        -0.0912
     16 C13        -0.0126    1.0758    0.0080 C.ar      1 <0>        -0.0850
     17 C14         1.1863    1.7783    0.0003 C.ar      1 <0>        -0.1205
     18 C15         1.2006    3.1442    0.0075 C.ar      1 <0>        -0.0470
     19 C16        -0.0082    3.8455    0.0228 C.ar      1 <0>        -0.1110
     20 C17        -0.0570    5.3064    0.0307 C.2       1 <0>         0.5016
     21 N4         -1.2045    5.9367    0.0445 N.am      1 <0>        -0.5779
     22 O1          1.0971    6.0156    0.0235 O.2       1 <0>        -0.5929
     23 H1         -9.0679   -0.2473    1.1441 H         1 <0>         0.0716
     24 H2         -9.8323    1.1165    0.2595 H         1 <0>         0.0285
     25 H3         -9.8163    1.1076    2.0557 H         1 <0>         0.0714
     26 H4         -6.9968    0.0569    0.0162 H         1 <0>         0.0873
     27 H5         -7.6583    1.4268   -0.9391 H         1 <0>         0.0445
     28 H6         -5.2682    1.5487    0.9850 H         1 <0>         0.0624
     29 H7         -5.1852    1.5717   -0.8092 H         1 <0>         0.0926
     30 H8         -6.3073    3.4311    2.1568 H         1 <0>         0.0586
     31 H9         -6.9688    4.8010    1.2015 H         1 <0>         0.0910
     32 H10        -8.6981    3.3081    0.2328 H         1 <0>         0.0475
     33 H11        -8.7810    3.2851    2.0270 H         1 <0>         0.0888
     34 H12        -5.7065    5.9268    0.0854 H         1 <0>         0.1484
     35 H13        -3.5651    7.1324    0.0731 H         1 <0>         0.1517
     36 H14        -2.1370    1.1796    0.0183 H         1 <0>         0.1429
     37 H15         0.0021   -0.0041    0.0020 H         1 <0>         0.1351
     38 H16         2.1205    1.2364   -0.0119 H         1 <0>         0.1360
     39 H17         2.1392    3.6784    0.0018 H         1 <0>         0.1457
     40 H18        -1.1636    7.0359    0.0496 H         1 <0>         0.4502
@<TRIPOS>BOND
     1    1    2 1
     2    1   23 1
     3    1   24 1
     4    1   25 1
     5    2    7 1
     6    2    3 1
     7    3    4 1
     8    3   26 1
     9    3   27 1
    10    4    5 1
    11    4   28 1
    12    4   29 1
    13    5    6 1
    14    5    8 1
    15    6    7 1
    16    6   30 1
    17    6   31 1
    18    7   32 1
    19    7   33 1
    20    8   13 ar
    21    8    9 ar
    22    9   10 ar
    23    9   34 1
    24   10   11 ar
    25   10   35 1
    26   11   21 1
    27   11   12 ar
    28   12   13 ar
    29   12   14 1
    30   14   19 ar
    31   14   15 ar
    32   15   16 ar
    33   15   36 1
    34   16   17 ar
    35   16   37 1
    36   17   18 ar
    37   17   38 1
    38   18   19 ar
    39   18   39 1
    40   19   20 1
    41   20   21 am
    42   20   22 2
    43   21   40 1
@<TRIPOS>MOLECULE
ZINC13860431
   57    60     0     0     0
SMALL
USER_CHARGES
3-(2,4-dioxo-7,8-dihydro-5H-thiopyrano[3,4-e]pyrimidin-1-yl)-N-[2-oxo-2-(4-pyrimidin-2-ylpiperazin-1-yl)ethyl]propanamide
@<TRIPOS>ATOM
      1 C1         -0.0167    1.3818    0.0096 C.ar      1 <0>        -0.2575
      2 C2          1.1915    2.0609    0.0017 C.ar      1 <0>         0.1751
      3 N1          2.3197    1.3705   -0.0132 N.ar      1 <0>        -0.5522
      4 C3          2.3029    0.0457   -0.0197 C.ar      1 <0>         0.4901
      5 N2          1.1654   -0.6335   -0.0125 N.ar      1 <0>        -0.5302
      6 C4          0.0021   -0.0041    0.0020 C.ar      1 <0>         0.1760
      7 N3          3.5022   -0.6451   -0.0348 N.pl3     1 <0>        -0.4597
      8 C5          3.5834   -1.5836    1.0923 C.3       1 <0>         0.0513
      9 C6          4.8360   -2.4530    0.9395 C.3       1 <0>         0.1073
     10 N4          6.0012   -1.5697    0.7806 N.am      1 <0>        -0.6120
     11 C7          5.9389   -0.5124   -0.2400 C.3       1 <0>         0.1139
     12 C8          4.6428    0.2806   -0.0408 C.3       1 <0>         0.0565
     13 C9          7.0969   -1.7248    1.5499 C.2       1 <0>         0.5137
     14 O1          8.0486   -0.9871    1.4055 O.2       1 <0>        -0.5329
     15 C10         7.1394   -2.8148    2.5897 C.3       1 <0>         0.0996
     16 N5          8.4272   -2.7747    3.2868 N.am      1 <0>        -0.7174
     17 C11         8.6918   -3.6630    4.2653 C.2       1 <0>         0.5263
     18 O2          7.8637   -4.4956    4.5686 O.2       1 <0>        -0.5343
     19 C12        10.0166   -3.6218    4.9825 C.3       1 <0>        -0.1616
     20 C13        10.0597   -4.7285    6.0381 C.3       1 <0>         0.1164
     21 N6         11.3476   -4.6884    6.7352 N.am      1 <0>        -0.5393
     22 C14        12.4022   -5.4378    6.2379 C.2       1 <0>         0.2145
     23 C15        13.5828   -5.3594    6.8576 C.2       1 <0>        -0.2484
     24 C16        13.6897   -4.5654    8.0405 C.2       1 <0>         0.5557
     25 O3         14.7493   -4.5141    8.6386 O.2       1 <0>        -0.5061
     26 N7         12.6339   -3.8750    8.4987 N.am      1 <0>        -0.6597
     27 H1         12.7148   -3.3212    9.3274 H         1 <0>         0.4415
     28 C17        11.4649   -3.9342    7.8334 C.2       1 <0>         0.6985
     29 O4         10.5093   -3.2980    8.2339 O.2       1 <0>        -0.5323
     30 C18        14.8637   -6.0236    6.4182 C.3       1 <0>        -0.0082
     31 S1         14.4984   -7.4069    5.2962 S.3       1 <0>        -0.2365
     32 C19        13.2581   -6.6578    4.1921 C.3       1 <0>        -0.0832
     33 C20        12.0547   -6.2797    5.0441 C.3       1 <0>        -0.1027
     34 H2         -0.9526    1.9209    0.0170 H         1 <0>         0.1499
     35 H3          1.2116    3.1407    0.0070 H         1 <0>         0.1705
     36 H4         -0.9219   -0.5632    0.0075 H         1 <0>         0.1729
     37 H5          3.6397   -1.0256    2.0269 H         1 <0>         0.0521
     38 H6          2.6981   -2.2195    1.1007 H         1 <0>         0.1118
     39 H7          4.7355   -3.0885    0.0597 H         1 <0>         0.0911
     40 H8          4.9651   -3.0733    1.8265 H         1 <0>         0.1002
     41 H9          5.9444   -0.9614   -1.2332 H         1 <0>         0.0824
     42 H10         6.7954    0.1534   -0.1344 H         1 <0>         0.1064
     43 H11         4.5259    0.9967   -0.8542 H         1 <0>         0.1051
     44 H12         4.6844    0.8126    0.9096 H         1 <0>         0.0591
     45 H13         6.3329   -2.6641    3.3073 H         1 <0>         0.1019
     46 H14         7.0184   -3.7838    2.1054 H         1 <0>         0.1043
     47 H15         9.0895   -2.1088    3.0443 H         1 <0>         0.4144
     48 H16        10.8231   -3.7725    4.2649 H         1 <0>         0.1032
     49 H17        10.1375   -2.6528    5.4668 H         1 <0>         0.1089
     50 H18         9.2532   -4.5778    6.7557 H         1 <0>         0.1172
     51 H19         9.9388   -5.6975    5.5538 H         1 <0>         0.1116
     52 H20        15.4944   -5.2924    5.9127 H         1 <0>         0.1035
     53 H21        15.3896   -6.4073    7.2925 H         1 <0>         0.1267
     54 H22        12.9599   -7.3766    3.4288 H         1 <0>         0.1257
     55 H23        13.6717   -5.7668    3.7197 H         1 <0>         0.0959
     56 H24        11.5721   -7.1935    5.3906 H         1 <0>         0.1176
     57 H25        11.3494   -5.7284    4.4223 H         1 <0>         0.1055
@<TRIPOS>BOND
     1    1    6 ar
     2    1    2 ar
     3    1   34 1
     4    2    3 ar
     5    2   35 1
     6    3    4 ar
     7    4    5 ar
     8    4    7 1
     9    5    6 ar
    10    6   36 1
    11    7   12 1
    12    7    8 1
    13    8    9 1
    14    8   37 1
    15    8   38 1
    16    9   10 1
    17    9   39 1
    18    9   40 1
    19   10   11 1
    20   10   13 am
    21   11   12 1
    22   11   41 1
    23   11   42 1
    24   12   43 1
    25   12   44 1
    26   13   14 2
    27   13   15 1
    28   15   16 1
    29   15   45 1
    30   15   46 1
    31   16   17 am
    32   16   47 1
    33   17   18 2
    34   17   19 1
    35   19   20 1
    36   19   48 1
    37   19   49 1
    38   20   21 1
    39   20   50 1
    40   20   51 1
    41   21   28 am
    42   21   22 1
    43   22   33 1
    44   22   23 2
    45   23   24 1
    46   23   30 1
    47   24   25 2
    48   24   26 am
    49   26   27 1
    50   26   28 am
    51   28   29 2
    52   30   31 1
    53   30   52 1
    54   30   53 1
    55   31   32 1
    56   32   33 1
    57   32   54 1
    58   32   55 1
    59   33   56 1
    60   33   57 1
@<TRIPOS>MOLECULE
ZINC13467799
   32    34     0     0     0
SMALL
USER_CHARGES
2-[4-(trifluoromethyl)phenyl]-1,5,7,8-tetrahydrothiopyrano[4,3-d]pyrimidin-4-one
@<TRIPOS>ATOM
      1 C1          1.8673    1.5790   -4.5984 C.ar      1 <0>        -0.0517
      2 C2          2.7027    1.5754   -5.6962 C.ar      1 <0>        -0.0718
      3 C3          2.2224    1.9577   -6.9361 C.ar      1 <0>        -0.1553
      4 C4          0.9011    2.3405   -7.0852 C.ar      1 <0>        -0.0679
      5 C5          0.0536    2.3428   -5.9967 C.ar      1 <0>        -0.0948
      6 C6          0.5317    1.9581   -4.7429 C.ar      1 <0>        -0.0424
      7 C7         -0.3708    1.9581   -3.5722 C.2       1 <0>         0.4306
      8 N1          0.1032    1.5834   -2.3619 N.2       1 <0>        -0.5342
      9 H1         -2.0024    2.6185   -4.7095 H         1 <0>         0.4466
     10 C8         -0.6989    1.5633   -1.2385 C.2       1 <0>         0.1845
     11 C9         -1.9687    1.9597   -1.3666 C.2       1 <0>        -0.2457
     12 C10        -2.4448    2.3323   -2.6626 C.2       1 <0>         0.5279
     13 O1         -3.6119    2.6636   -2.8051 O.2       1 <0>        -0.5262
     14 N2         -1.6274    2.3226   -3.7187 N.am      1 <0>        -0.6185
     15 C11        -2.9852    2.0589   -0.2571 C.3       1 <0>        -0.0194
     16 S1         -2.4595    1.0634    1.1659 S.3       1 <0>        -0.2410
     17 C12        -0.6997    1.5067    1.2901 C.3       1 <0>        -0.0854
     18 C13        -0.0126    1.0862    0.0081 C.3       1 <0>        -0.0732
     19 C14         3.1424    1.9577   -8.1296 C.3       1 <0>         0.5068
     20 F1          3.7604    3.2078   -8.2420 F         1 <0>        -0.1720
     21 F2          4.1180    0.9683   -7.9664 F         1 <0>        -0.1726
     22 F3          2.4032    1.6971   -9.2884 F         1 <0>        -0.1735
     23 H2          2.2447    1.2850   -3.6301 H         1 <0>         0.1585
     24 H3          3.7352    1.2781   -5.5867 H         1 <0>         0.1493
     25 H4          0.5324    2.6378   -8.0557 H         1 <0>         0.1488
     26 H5         -0.9775    2.6418   -6.1143 H         1 <0>         0.1379
     27 H6         -3.9550    1.6911   -0.6236 H         1 <0>         0.1245
     28 H7         -3.0836    3.1112    0.0478 H         1 <0>         0.1000
     29 H8         -0.6044    2.5935    1.4305 H         1 <0>         0.0920
     30 H9         -0.2499    0.9853    2.1479 H         1 <0>         0.1238
     31 H10         1.0100    1.4911   -0.0097 H         1 <0>         0.1070
     32 H11         0.0269   -0.0119   -0.0437 H         1 <0>         0.1074
@<TRIPOS>BOND
     1    1    6 ar
     2    1    2 ar
     3    1   23 1
     4    2    3 ar
     5    2   24 1
     6    3    4 ar
     7    3   19 1
     8    4    5 ar
     9    4   25 1
    10    5    6 ar
    11    5   26 1
    12    6    7 1
    13    7    8 2
    14    7   14 1
    15    8   10 1
    16    9   14 1
    17   10   11 2
    18   10   18 1
    19   11   12 1
    20   11   15 1
    21   12   13 2
    22   12   14 am
    23   15   16 1
    24   15   27 1
    25   15   28 1
    26   16   17 1
    27   17   18 1
    28   17   29 1
    29   17   30 1
    30   18   31 1
    31   18   32 1
    32   19   20 1
    33   19   21 1
    34   19   22 1
@<TRIPOS>MOLECULE
ZINC49069484
   42    45     0     0     0
SMALL
USER_CHARGES

@<TRIPOS>ATOM
      1 C1         -0.0166    1.3741    0.0096 C.ar      1 <0>        -0.1357
      2 C2          1.1625    2.0972    0.0022 C.ar      1 <0>        -0.0439
      3 C3          2.3915    1.4385   -0.0135 C.ar      1 <0>        -0.1424
      4 C4          2.4242    0.0373   -0.0213 C.ar      1 <0>         0.1179
      5 C5          1.2211   -0.6891   -0.0132 C.ar      1 <0>         0.0349
      6 C6          0.0021   -0.0041    0.0020 C.ar      1 <0>        -0.0202
      7 N1          1.5485   -2.0050   -0.0242 N.2       1 <0>        -0.4465
      8 C7          2.8528   -2.1316   -0.0382 C.2       1 <0>         0.2898
      9 N2          3.4375   -0.8930   -0.0370 N.pl3     1 <0>        -0.5726
     10 H1          4.3894   -0.7064   -0.0459 H         1 <0>         0.4345
     11 C8          3.5828   -3.4170   -0.0531 C.ar      1 <0>        -0.0286
     12 C9          4.9784   -3.4308   -0.0612 C.ar      1 <0>        -0.0614
     13 C10         5.6536   -4.6333   -0.0751 C.ar      1 <0>        -0.0929
     14 C11         4.9515   -5.8261   -0.0812 C.ar      1 <0>        -0.0989
     15 C12         3.5690   -5.8222   -0.0733 C.ar      1 <0>        -0.1647
     16 C13         2.8787   -4.6243   -0.0535 C.ar      1 <0>         0.1659
     17 F1          1.5278   -4.6208   -0.0401 F         1 <0>        -0.0967
     18 C14         5.6976   -7.1353   -0.0969 C.3       1 <0>         0.0796
     19 H2          6.7212   -6.9839   -0.4396 H         1 <0>         0.1567
     20 C15         5.6902   -7.7772    1.3129 C.3       1 <0>        -0.1356
     21 C16         5.8975   -9.2772    0.9753 C.3       1 <0>        -0.1432
     22 C17         5.1155   -9.4479   -0.3441 C.3       1 <0>        -0.0109
     23 N3          5.0041   -8.1125   -0.9630 N.4       1 <0>        -0.5174
     24 C18         3.6483    2.2109   -0.0223 C.2       1 <0>         0.5700
     25 O1          4.7175    1.6322   -0.0360 O.2       1 <0>        -0.5569
     26 N4          3.6113    3.5582   -0.0152 N.am      1 <0>        -0.8431
     27 H3         -0.9624    1.8952    0.0260 H         1 <0>         0.1463
     28 H4          1.1312    3.1767    0.0083 H         1 <0>         0.1412
     29 H5         -0.9263   -0.5558    0.0082 H         1 <0>         0.1427
     30 H6          5.5286   -2.5015   -0.0568 H         1 <0>         0.1469
     31 H7          6.7335   -4.6443   -0.0817 H         1 <0>         0.1508
     32 H8          3.0273   -6.7565   -0.0785 H         1 <0>         0.1420
     33 H9          6.5118   -7.3964    1.9196 H         1 <0>         0.1227
     34 H10         4.7333   -7.6174    1.8097 H         1 <0>         0.1026
     35 H11         6.9550   -9.4965    0.8277 H         1 <0>         0.1032
     36 H12         5.4772   -9.9099    1.7571 H         1 <0>         0.1163
     37 H13         5.6555  -10.1201   -1.0109 H         1 <0>         0.1375
     38 H14         4.1221   -9.8462   -0.1375 H         1 <0>         0.1347
     39 H15         4.0314   -7.8590   -1.0499 H         1 <0>         0.4260
     40 H16         2.7583    4.0199   -0.0043 H         1 <0>         0.4046
     41 H17         4.4377    4.0661   -0.0210 H         1 <0>         0.4103
     42 H18         5.4341   -8.1224   -1.8758 H         1 <0>         0.4345
@<TRIPOS>BOND
     1    1    6 ar
     2    1    2 ar
     3    1   27 1
     4    2    3 ar
     5    2   28 1
     6    3    4 ar
     7    3   24 1
     8    4    9 1
     9    4    5 ar
    10    5    6 ar
    11    5    7 1
    12    6   29 1
    13    7    8 2
    14    8    9 1
    15    8   11 1
    16    9   10 1
    17   11   16 ar
    18   11   12 ar
    19   12   13 ar
    20   12   30 1
    21   13   14 ar
    22   13   31 1
    23   14   15 ar
    24   14   18 1
    25   15   16 ar
    26   15   32 1
    27   16   17 1
    28   18   19 1
    29   18   23 1
    30   18   20 1
    31   20   21 1
    32   20   33 1
    33   20   34 1
    34   21   22 1
    35   21   35 1
    36   21   36 1
    37   22   23 1
    38   22   37 1
    39   22   38 1
    40   23   39 1
    41   23   42 1
    42   24   25 2
    43   24   26 am
    44   26   40 1
    45   26   41 1
@<TRIPOS>MOLECULE
ZINC49069486
   42    45     0     0     0
SMALL
USER_CHARGES

@<TRIPOS>ATOM
      1 C1         -0.0166    1.3741    0.0096 C.ar      1 <0>        -0.1357
      2 C2          1.1625    2.0972    0.0022 C.ar      1 <0>        -0.0439
      3 C3          2.3915    1.4385   -0.0135 C.ar      1 <0>        -0.1423
      4 C4          2.4242    0.0373   -0.0213 C.ar      1 <0>         0.1179
      5 C5          1.2211   -0.6891   -0.0132 C.ar      1 <0>         0.0349
      6 C6          0.0021   -0.0041    0.0020 C.ar      1 <0>        -0.0202
      7 N1          1.5485   -2.0050   -0.0242 N.2       1 <0>        -0.4466
      8 C7          2.8528   -2.1316   -0.0382 C.2       1 <0>         0.2898
      9 N2          3.4375   -0.8930   -0.0370 N.pl3     1 <0>        -0.5726
     10 H1          4.3894   -0.7064   -0.0459 H         1 <0>         0.4345
     11 C8          3.5828   -3.4170   -0.0531 C.ar      1 <0>        -0.0286
     12 C9          4.9784   -3.4308   -0.0612 C.ar      1 <0>        -0.0617
     13 C10         5.6536   -4.6333   -0.0751 C.ar      1 <0>        -0.0932
     14 C11         4.9515   -5.8261   -0.0812 C.ar      1 <0>        -0.1012
     15 C12         3.5690   -5.8222   -0.0733 C.ar      1 <0>        -0.1651
     16 C13         2.8787   -4.6243   -0.0535 C.ar      1 <0>         0.1649
     17 F1          1.5278   -4.6208   -0.0401 F         1 <0>        -0.0969
     18 C14         5.6976   -7.1353   -0.0969 C.3       1 <0>         0.0782
     19 H2          6.7236   -6.9813    0.2370 H         1 <0>         0.1542
     20 C15         5.6926   -7.7253   -1.5229 C.3       1 <0>        -0.1349
     21 C16         5.5213   -9.2465   -1.2711 C.3       1 <0>        -0.1434
     22 C17         4.5807   -9.2560   -0.0404 C.3       1 <0>        -0.0107
     23 N3          5.0240   -8.1071    0.7839 N.4       1 <0>        -0.5171
     24 C18         3.6483    2.2109   -0.0223 C.2       1 <0>         0.5700
     25 O1          4.7175    1.6322   -0.0360 O.2       1 <0>        -0.5569
     26 N4          3.6113    3.5582   -0.0152 N.am      1 <0>        -0.8431
     27 H3         -0.9624    1.8952    0.0260 H         1 <0>         0.1463
     28 H4          1.1312    3.1767    0.0083 H         1 <0>         0.1412
     29 H5         -0.9263   -0.5558    0.0082 H         1 <0>         0.1427
     30 H6          5.5286   -2.5015   -0.0568 H         1 <0>         0.1468
     31 H7          6.7335   -4.6443   -0.0817 H         1 <0>         0.1505
     32 H8          3.0273   -6.7565   -0.0785 H         1 <0>         0.1424
     33 H9          4.8546   -7.3333   -2.0992 H         1 <0>         0.1041
     34 H10         6.6372   -7.5221   -2.0273 H         1 <0>         0.1189
     35 H11         5.0512   -9.7332   -2.1257 H         1 <0>         0.1204
     36 H12         6.4776   -9.7134   -1.0353 H         1 <0>         0.1022
     37 H13         3.5451   -9.1231   -0.3532 H         1 <0>         0.1344
     38 H14         4.6934  -10.1864    0.5162 H         1 <0>         0.1410
     39 H15         5.6667   -8.4240    1.4942 H         1 <0>         0.4346
     40 H16         2.7583    4.0199   -0.0043 H         1 <0>         0.4046
     41 H17         4.4377    4.0661   -0.0210 H         1 <0>         0.4103
     42 H18         4.2246   -7.6728    1.2202 H         1 <0>         0.4294
@<TRIPOS>BOND
     1    1    6 ar
     2    1    2 ar
     3    1   27 1
     4    2    3 ar
     5    2   28 1
     6    3    4 ar
     7    3   24 1
     8    4    9 1
     9    4    5 ar
    10    5    6 ar
    11    5    7 1
    12    6   29 1
    13    7    8 2
    14    8    9 1
    15    8   11 1
    16    9   10 1
    17   11   16 ar
    18   11   12 ar
    19   12   13 ar
    20   12   30 1
    21   13   14 ar
    22   13   31 1
    23   14   15 ar
    24   14   18 1
    25   15   16 ar
    26   15   32 1
    27   16   17 1
    28   18   19 1
    29   18   23 1
    30   18   20 1
    31   20   21 1
    32   20   33 1
    33   20   34 1
    34   21   22 1
    35   21   35 1
    36   21   36 1
    37   22   23 1
    38   22   37 1
    39   22   38 1
    40   23   39 1
    41   23   42 1
    42   24   25 2
    43   24   26 am
    44   26   40 1
    45   26   41 1
@<TRIPOS>MOLECULE
ZINC43206370
   45    48     0     0     0
SMALL
USER_CHARGES

@<TRIPOS>ATOM
      1 C1         -0.0168    1.3848    0.0097 C.ar      1 <0>        -0.1651
      2 C2          1.1177    2.1322    0.0028 C.ar      1 <0>        -0.0072
      3 C3          2.3826    1.5133   -0.0126 C.ar      1 <0>        -0.2024
      4 C4          3.6910    1.9652   -0.0227 C.2       1 <0>         0.0854
      5 N1          4.4959    0.8918   -0.0362 N.pl3     1 <0>        -0.2884
      6 N2          3.7292   -0.2794   -0.0351 N.2       1 <0>        -0.2654
      7 C5          2.4541    0.0429   -0.0212 C.ar      1 <0>         0.1465
      8 C6          1.1954   -0.7094   -0.0132 C.ar      1 <0>        -0.1276
      9 C7          0.0021   -0.0041    0.0020 C.ar      1 <0>        -0.0166
     10 C8          1.1989   -2.1810   -0.0217 C.2       1 <0>         0.5635
     11 O1          2.2538   -2.7866   -0.0355 O.2       1 <0>        -0.5282
     12 N3          0.0334   -2.8577   -0.0142 N.am      1 <0>        -0.8520
     13 C9          5.8958    0.9364   -0.0493 C.ar      1 <0>         0.1656
     14 C10         6.5530    2.1598   -0.0433 C.ar      1 <0>        -0.1303
     15 C11         7.9334    2.2005   -0.0563 C.ar      1 <0>        -0.0776
     16 C12         8.6611    1.0247   -0.0759 C.ar      1 <0>        -0.1078
     17 C13         8.0097   -0.1951   -0.0819 C.ar      1 <0>        -0.0887
     18 C14         6.6295   -0.2426   -0.0627 C.ar      1 <0>        -0.1020
     19 C15        10.1673    1.0728   -0.0911 C.3       1 <0>        -0.0584
     20 H1         10.4984    2.1113   -0.0840 H         1 <0>         0.1041
     21 C16        10.6884    0.3786   -1.3527 C.3       1 <0>        -0.1338
     22 C17        12.2194    0.3638   -1.3199 C.3       1 <0>        -0.1470
     23 C18        12.6900   -0.3300   -0.0398 C.3       1 <0>        -0.0095
     24 N4         12.1811    0.3960    1.1300 N.4       1 <0>        -0.5043
     25 C19        10.7140    0.3537    1.1441 C.3       1 <0>        -0.0066
     26 H2         -0.9709    1.8905    0.0261 H         1 <0>         0.1366
     27 H3          1.0489    3.2100    0.0089 H         1 <0>         0.1343
     28 H4          4.0075    2.9978   -0.0204 H         1 <0>         0.1929
     29 H5         -0.9323   -0.5457    0.0084 H         1 <0>         0.1380
     30 H6         -0.8078   -2.3748   -0.0032 H         1 <0>         0.4003
     31 H7          0.0357   -3.8277   -0.0198 H         1 <0>         0.4079
     32 H8          5.9852    3.0784   -0.0287 H         1 <0>         0.1397
     33 H9          8.4451    3.1515   -0.0516 H         1 <0>         0.1386
     34 H10         8.5808   -1.1116   -0.0975 H         1 <0>         0.1332
     35 H11         6.1213   -1.1955   -0.0629 H         1 <0>         0.1494
     36 H12        10.3146   -0.6448   -1.3863 H         1 <0>         0.0855
     37 H13        10.3479    0.9214   -2.2344 H         1 <0>         0.0972
     38 H14        12.5968   -0.1778   -2.1873 H         1 <0>         0.1147
     39 H15        12.5937    1.3873   -1.3379 H         1 <0>         0.0897
     40 H16        12.3154   -1.3534   -0.0230 H         1 <0>         0.1309
     41 H17        13.7796   -0.3424   -0.0134 H         1 <0>         0.1345
     42 H18        12.5370   -0.0323    1.9714 H         1 <0>         0.4334
     43 H19        10.3447    0.8461    2.0437 H         1 <0>         0.1364
     44 H20        10.3814   -0.6843    1.1365 H         1 <0>         0.1328
     45 H21        12.4879    1.3564    1.0882 H         1 <0>         0.4281
@<TRIPOS>BOND
     1    1    9 ar
     2    1    2 ar
     3    1   26 1
     4    2    3 ar
     5    2   27 1
     6    3    7 ar
     7    3    4 2
     8    4    5 1
     9    4   28 1
    10    5    6 1
    11    5   13 1
    12    6    7 2
    13    7    8 ar
    14    8    9 ar
    15    8   10 1
    16    9   29 1
    17   10   11 2
    18   10   12 am
    19   12   30 1
    20   12   31 1
    21   13   18 ar
    22   13   14 ar
    23   14   15 ar
    24   14   32 1
    25   15   16 ar
    26   15   33 1
    27   16   17 ar
    28   16   19 1
    29   17   18 ar
    30   17   34 1
    31   18   35 1
    32   19   20 1
    33   19   25 1
    34   19   21 1
    35   21   22 1
    36   21   36 1
    37   21   37 1
    38   22   23 1
    39   22   38 1
    40   22   39 1
    41   23   24 1
    42   23   40 1
    43   23   41 1
    44   24   25 1
    45   24   42 1
    46   24   45 1
    47   25   43 1
    48   25   44 1
@<TRIPOS>MOLECULE
ZINC49087983
   45    48     0     0     0
SMALL
USER_CHARGES

@<TRIPOS>ATOM
      1 C1         -0.0168    1.3848    0.0097 C.ar      1 <0>        -0.1651
      2 C2          1.1177    2.1322    0.0028 C.ar      1 <0>        -0.0072
      3 C3          2.3826    1.5133   -0.0126 C.ar      1 <0>        -0.2024
      4 C4          3.6910    1.9652   -0.0227 C.2       1 <0>         0.0854
      5 N1          4.4959    0.8918   -0.0362 N.pl3     1 <0>        -0.2884
      6 N2          3.7292   -0.2794   -0.0351 N.2       1 <0>        -0.2654
      7 C5          2.4541    0.0429   -0.0212 C.ar      1 <0>         0.1465
      8 C6          1.1954   -0.7094   -0.0132 C.ar      1 <0>        -0.1276
      9 C7          0.0021   -0.0041    0.0020 C.ar      1 <0>        -0.0166
     10 C8          1.1989   -2.1810   -0.0217 C.2       1 <0>         0.5635
     11 O1          2.2538   -2.7866   -0.0355 O.2       1 <0>        -0.5282
     12 N3          0.0334   -2.8577   -0.0142 N.am      1 <0>        -0.8520
     13 C9          5.8958    0.9364   -0.0493 C.ar      1 <0>         0.1655
     14 C10         6.5530    2.1598   -0.0433 C.ar      1 <0>        -0.1303
     15 C11         7.9334    2.2005   -0.0563 C.ar      1 <0>        -0.0776
     16 C12         8.6611    1.0247   -0.0759 C.ar      1 <0>        -0.1078
     17 C13         8.0097   -0.1951   -0.0819 C.ar      1 <0>        -0.0888
     18 C14         6.6295   -0.2426   -0.0627 C.ar      1 <0>        -0.1019
     19 C15        10.1673    1.0728   -0.0911 C.3       1 <0>        -0.0584
     20 H1         10.4984    2.1113   -0.0840 H         1 <0>         0.1041
     21 C16        10.7144    0.3532    1.1451 C.3       1 <0>        -0.1338
     22 C17        12.2444    0.3394    1.0801 C.3       1 <0>        -0.1470
     23 C18        12.6881   -0.3281   -0.2233 C.3       1 <0>        -0.0095
     24 N4         12.1551    0.4214   -1.3673 N.4       1 <0>        -0.5043
     25 C19        10.6880    0.3791   -1.3517 C.3       1 <0>        -0.0066
     26 H2         -0.9709    1.8905    0.0261 H         1 <0>         0.1366
     27 H3          1.0489    3.2100    0.0089 H         1 <0>         0.1343
     28 H4          4.0075    2.9978   -0.0204 H         1 <0>         0.1929
     29 H5         -0.9323   -0.5457    0.0084 H         1 <0>         0.1380
     30 H6         -0.8078   -2.3748   -0.0032 H         1 <0>         0.4003
     31 H7          0.0357   -3.8277   -0.0198 H         1 <0>         0.4079
     32 H8          5.9852    3.0784   -0.0287 H         1 <0>         0.1397
     33 H9          8.4451    3.1515   -0.0516 H         1 <0>         0.1386
     34 H10         8.5808   -1.1116   -0.0975 H         1 <0>         0.1332
     35 H11         6.1213   -1.1955   -0.0629 H         1 <0>         0.1494
     36 H12        10.3925    0.8779    2.0446 H         1 <0>         0.0973
     37 H13        10.3412   -0.6708    1.1657 H         1 <0>         0.0855
     38 H14        12.6192    1.3624    1.1111 H         1 <0>         0.0897
     39 H15        12.6396   -0.2196    1.9283 H         1 <0>         0.1147
     40 H16        13.7769   -0.3398   -0.2727 H         1 <0>         0.1345
     41 H17        12.3130   -1.3511   -0.2532 H         1 <0>         0.1309
     42 H18        12.4629    1.3808   -1.3124 H         1 <0>         0.4281
     43 H19        10.3555   -0.6589   -1.3583 H         1 <0>         0.1328
     44 H20        10.3001    0.8895   -2.2332 H         1 <0>         0.1364
     45 H21        12.4933    0.0104   -2.2244 H         1 <0>         0.4334
@<TRIPOS>BOND
     1    1    9 ar
     2    1    2 ar
     3    1   26 1
     4    2    3 ar
     5    2   27 1
     6    3    7 ar
     7    3    4 2
     8    4    5 1
     9    4   28 1
    10    5    6 1
    11    5   13 1
    12    6    7 2
    13    7    8 ar
    14    8    9 ar
    15    8   10 1
    16    9   29 1
    17   10   11 2
    18   10   12 am
    19   12   30 1
    20   12   31 1
    21   13   18 ar
    22   13   14 ar
    23   14   15 ar
    24   14   32 1
    25   15   16 ar
    26   15   33 1
    27   16   17 ar
    28   16   19 1
    29   17   18 ar
    30   17   34 1
    31   18   35 1
    32   19   20 1
    33   19   25 1
    34   19   21 1
    35   21   22 1
    36   21   36 1
    37   21   37 1
    38   22   23 1
    39   22   38 1
    40   22   39 1
    41   23   24 1
    42   23   40 1
    43   23   41 1
    44   24   25 1
    45   24   42 1
    46   24   45 1
    47   25   43 1
    48   25   44 1
@<TRIPOS>MOLECULE
ZINC13523954
   23    25     0     0     0
SMALL
USER_CHARGES
5H-pyrido[2,3-c]isoquinolin-6-one
@<TRIPOS>ATOM
      1 C1          2.4045    0.0342   -0.0208 C.ar      1 <0>        -0.0782
      2 C2          1.2093   -0.6696   -0.0131 C.ar      1 <0>        -0.1283
      3 C3          0.0021   -0.0041    0.0020 C.ar      1 <0>        -0.0445
      4 C4         -0.0168    1.3896    0.0097 C.ar      1 <0>        -0.1440
      5 C5          1.1995    2.1036    0.0019 C.ar      1 <0>         0.0040
      6 C6          2.4068    1.4139   -0.0134 C.ar      1 <0>        -0.1207
      7 C7          1.1450    3.5763    0.0099 C.ar      1 <0>        -0.1434
      8 C8          2.3138    4.3383    0.0034 C.ar      1 <0>        -0.0230
      9 C9          2.1951    5.7173    0.0119 C.ar      1 <0>        -0.1990
     10 C10         0.9335    6.2876    0.0265 C.ar      1 <0>         0.1549
     11 N1         -0.1553    5.5473    0.0324 N.ar      1 <0>        -0.5151
     12 C11        -0.1019    4.2209    0.0248 C.ar      1 <0>         0.3770
     13 N2         -1.2723    3.4871    0.0320 N.am      1 <0>        -0.6283
     14 H1         -2.1198    3.9589    0.0419 H         1 <0>         0.4214
     15 C12        -1.2796    2.1426    0.0197 C.2       1 <0>         0.5663
     16 O1         -2.3392    1.5444    0.0218 O.2       1 <0>        -0.5110
     17 H2          3.3416   -0.5025   -0.0330 H         1 <0>         0.1351
     18 H3          1.2246   -1.7495   -0.0194 H         1 <0>         0.1361
     19 H4         -0.9241   -0.5596    0.0075 H         1 <0>         0.1426
     20 H5          3.3413    1.9553   -0.0191 H         1 <0>         0.1356
     21 H6          3.2846    3.8651   -0.0077 H         1 <0>         0.1471
     22 H7          3.0765    6.3414    0.0069 H         1 <0>         0.1468
     23 H8          0.8406    7.3635    0.0328 H         1 <0>         0.1686
@<TRIPOS>BOND
     1    1    6 ar
     2    1    2 ar
     3    1   17 1
     4    2    3 ar
     5    2   18 1
     6    3    4 ar
     7    3   19 1
     8    4   15 1
     9    4    5 ar
    10    5    6 ar
    11    5    7 1
    12    6   20 1
    13    7   12 ar
    14    7    8 ar
    15    8    9 ar
    16    8   21 1
    17    9   10 ar
    18    9   22 1
    19   10   11 ar
    20   10   23 1
    21   11   12 ar
    22   12   13 1
    23   13   14 1
    24   13   15 am
    25   15   16 2
@<TRIPOS>MOLECULE
ZINC53297239
   53    57     0     0     0
SMALL
USER_CHARGES

@<TRIPOS>ATOM
      1 C1          5.2650   -2.8691   -0.7938 C.ar      1 <0>        -0.1514
      2 C2          5.7209   -1.5604   -0.6915 C.ar      1 <0>        -0.0571
      3 C3          4.8614   -0.5416   -0.3930 C.ar      1 <0>        -0.1403
      4 C4          3.5103   -0.8120   -0.1876 C.ar      1 <0>         0.1528
      5 C5          3.0472   -2.1375   -0.2910 C.ar      1 <0>        -0.1957
      6 C6          3.9464   -3.1632   -0.5976 C.ar      1 <0>        -0.0552
      7 C7          1.6087   -2.0919   -0.0249 C.2       1 <0>         0.3483
      8 N1          1.2883   -0.8470    0.2086 N.2       1 <0>        -0.2991
      9 N2          2.4235   -0.0351    0.1182 N.pl3     1 <0>        -0.4979
     10 H1          2.4392    0.9257    0.2512 H         1 <0>         0.4474
     11 N3          0.7353   -3.1829   -0.0218 N.pl3     1 <0>        -0.6089
     12 C8         -0.7179   -2.9882    0.0980 C.3       1 <0>         0.1085
     13 C9         -1.2407   -3.9044    1.2094 C.3       1 <0>        -0.0203
     14 N4         -0.8355   -5.2883    0.9326 N.4       1 <0>        -0.3774
     15 C10         0.6277   -5.4007    0.9837 C.3       1 <0>        -0.0311
     16 C11         1.2427   -4.5583   -0.1445 C.3       1 <0>         0.0999
     17 C12        -1.4287   -6.1806    1.9376 C.3       1 <0>        -0.0260
     18 C13        -1.1110   -7.6340    1.5801 C.3       1 <0>         0.1196
     19 N5         -1.7026   -8.5238    2.5824 N.pl3     1 <0>        -0.7132
     20 C14        -1.5483   -9.8826    2.4698 C.2       1 <0>         0.6321
     21 N6         -2.1171  -10.6822    3.4180 N.am      1 <0>        -0.6654
     22 H2         -2.6156  -10.2827    4.1480 H         1 <0>         0.4150
     23 C15        -1.9919  -12.0278    3.3482 C.2       1 <0>         0.5658
     24 O1         -2.4949  -12.7528    4.1867 O.2       1 <0>        -0.4946
     25 C16        -1.2270  -12.5814    2.2227 C.ar      1 <0>        -0.2201
     26 C17        -1.0415  -13.9537    2.0616 C.ar      1 <0>        -0.0304
     27 C18        -0.3208  -14.4154    0.9949 C.ar      1 <0>        -0.1454
     28 C19         0.2268  -13.5327    0.0728 C.ar      1 <0>        -0.0593
     29 C20         0.0607  -12.1831    0.2069 C.ar      1 <0>        -0.1252
     30 C21        -0.6713  -11.6802    1.2863 C.ar      1 <0>         0.1899
     31 N7         -0.8666  -10.3511    1.4548 N.2       1 <0>        -0.5785
     32 H3          5.9594   -3.6602   -1.0351 H         1 <0>         0.1326
     33 H4          6.7676   -1.3463   -0.8496 H         1 <0>         0.1366
     34 H5          5.2284    0.4712   -0.3160 H         1 <0>         0.1334
     35 H6          3.5997   -4.1827   -0.6792 H         1 <0>         0.1261
     36 H7         -0.9286   -1.9490    0.3506 H         1 <0>         0.1321
     37 H8         -1.2007   -3.2441   -0.8451 H         1 <0>         0.0920
     38 H9         -0.8253   -3.5885    2.1663 H         1 <0>         0.1353
     39 H10        -2.3284   -3.8449    1.2478 H         1 <0>         0.1448
     40 H11         0.9866   -5.0395    1.9474 H         1 <0>         0.1371
     41 H12         0.9168   -6.4438    0.8558 H         1 <0>         0.1482
     42 H13         0.9544   -4.9701   -1.1117 H         1 <0>         0.0968
     43 H14         2.3288   -4.5576   -0.0524 H         1 <0>         0.1350
     44 H15        -1.0145   -5.9489    2.9189 H         1 <0>         0.1382
     45 H16        -2.5092   -6.0390    1.9566 H         1 <0>         0.1411
     46 H17        -1.5252   -7.8656    0.5989 H         1 <0>         0.0971
     47 H18        -0.0304   -7.7756    1.5611 H         1 <0>         0.0959
     48 H19        -2.2033   -8.1524    3.3255 H         1 <0>         0.4171
     49 H20        -1.4635  -14.6471    2.7741 H         1 <0>         0.1387
     50 H21        -0.1755  -15.4780    0.8684 H         1 <0>         0.1356
     51 H22         0.7925  -13.9188   -0.7623 H         1 <0>         0.1359
     52 H23         0.4921  -11.5084   -0.5177 H         1 <0>         0.1367
     53 H24        -1.1603   -5.5556    0.0155 H         1 <0>         0.4270
@<TRIPOS>BOND
     1    1    6 ar
     2    1    2 ar
     3    1   32 1
     4    2    3 ar
     5    2   33 1
     6    3    4 ar
     7    3   34 1
     8    4    9 1
     9    4    5 ar
    10    5    6 ar
    11    5    7 1
    12    6   35 1
    13    7    8 2
    14    7   11 1
    15    8    9 1
    16    9   10 1
    17   11   16 1
    18   11   12 1
    19   12   13 1
    20   12   36 1
    21   12   37 1
    22   13   14 1
    23   13   38 1
    24   13   39 1
    25   14   15 1
    26   14   17 1
    27   14   53 1
    28   15   16 1
    29   15   40 1
    30   15   41 1
    31   16   42 1
    32   16   43 1
    33   17   18 1
    34   17   44 1
    35   17   45 1
    36   18   19 1
    37   18   46 1
    38   18   47 1
    39   19   20 1
    40   19   48 1
    41   20   31 2
    42   20   21 1
    43   21   22 1
    44   21   23 am
    45   23   24 2
    46   23   25 1
    47   25   30 ar
    48   25   26 ar
    49   26   27 ar
    50   26   49 1
    51   27   28 ar
    52   27   50 1
    53   28   29 ar
    54   28   51 1
    55   29   30 ar
    56   29   52 1
    57   30   31 1
@<TRIPOS>MOLECULE
ZINC53297239
   52    56     0     0     0
SMALL
USER_CHARGES

@<TRIPOS>ATOM
      1 C1          5.2642   -2.8684   -0.7981 C.ar      1 <0>        -0.1671
      2 C2          5.7202   -1.5599   -0.6952 C.ar      1 <0>        -0.0616
      3 C3          4.8610   -0.5413   -0.3950 C.ar      1 <0>        -0.1509
      4 C4          3.5101   -0.8119   -0.1885 C.ar      1 <0>         0.1516
      5 C5          3.0470   -2.1373   -0.2925 C.ar      1 <0>        -0.1952
      6 C6          3.9459   -3.1627   -0.6008 C.ar      1 <0>        -0.0437
      7 C7          1.6087   -2.0919   -0.0249 C.2       1 <0>         0.3663
      8 N1          1.2886   -0.8472    0.2099 N.2       1 <0>        -0.3214
      9 N2          2.4237   -0.0352    0.1190 N.pl3     1 <0>        -0.5083
     10 H1          2.4395    0.9254    0.2528 H         1 <0>         0.4404
     11 N3          0.7353   -3.1829   -0.0218 N.pl3     1 <0>        -0.5960
     12 C8         -0.7174   -2.9867    0.0981 C.3       1 <0>         0.1351
     13 C9         -1.2390   -3.8872    1.2229 C.3       1 <0>         0.0422
     14 N4         -0.8179   -5.2721    0.9722 N.3       1 <0>        -0.5297
     15 C10         0.6456   -5.3965    0.9957 C.3       1 <0>         0.0336
     16 C11         1.2440   -4.5575   -0.1446 C.3       1 <0>         0.1260
     17 C12        -1.4400   -6.1935    1.9324 C.3       1 <0>         0.0412
     18 C13        -1.1829   -7.6367    1.4943 C.3       1 <0>         0.1417
     19 N5         -1.8033   -8.5556    2.4518 N.pl3     1 <0>        -0.7072
     20 C14        -1.7041   -9.9113    2.2647 C.2       1 <0>         0.6369
     21 N6         -2.2986  -10.7381    3.1730 N.am      1 <0>        -0.6682
     22 C15        -2.2269  -12.0819    3.0299 C.2       1 <0>         0.5680
     23 O1         -2.7526  -12.8309    3.8327 O.2       1 <0>        -0.5101
     24 C16        -1.4917  -12.6033    1.8698 C.ar      1 <0>        -0.2330
     25 C17        -1.3614  -13.9711    1.6337 C.ar      1 <0>        -0.0288
     26 C18        -0.6664  -14.4023    0.5376 C.ar      1 <0>        -0.1598
     27 C19        -0.0905  -13.4931   -0.3405 C.ar      1 <0>        -0.0603
     28 C20        -0.2025  -12.1472   -0.1327 C.ar      1 <0>        -0.1305
     29 C21        -0.9071  -11.6752    0.9784 C.ar      1 <0>         0.2067
     30 N7         -1.0480  -10.3506    1.2201 N.2       1 <0>        -0.5818
     31 H2          5.9584   -3.6594   -1.0408 H         1 <0>         0.1273
     32 H3          6.7667   -1.3456   -0.8542 H         1 <0>         0.1296
     33 H4          5.2281    0.4714   -0.3176 H         1 <0>         0.1267
     34 H5          3.5990   -4.1822   -0.6829 H         1 <0>         0.1303
     35 H6         -0.9276   -1.9441    0.3366 H         1 <0>         0.0917
     36 H7         -1.2019   -3.2554   -0.8405 H         1 <0>         0.0732
     37 H8         -0.8326   -3.5505    2.1766 H         1 <0>         0.0412
     38 H9         -2.3275   -3.8379    1.2532 H         1 <0>         0.0893
     39 H10         1.0258   -5.0387    1.9525 H         1 <0>         0.0421
     40 H11         0.9240   -6.4418    0.8611 H         1 <0>         0.0943
     41 H12         0.9444   -4.9743   -1.1061 H         1 <0>         0.0777
     42 H13         2.3312   -4.5539   -0.0667 H         1 <0>         0.0944
     43 H14        -1.0109   -6.0321    2.9213 H         1 <0>         0.0423
     44 H15        -2.5140   -6.0105    1.9681 H         1 <0>         0.0847
     45 H16        -1.6120   -7.7982    0.5054 H         1 <0>         0.0875
     46 H17        -0.1090   -7.8197    1.4586 H         1 <0>         0.0768
     47 H18        -2.2843   -8.2057    3.2181 H         1 <0>         0.4101
     48 H19        -1.8057  -14.6849    2.3115 H         1 <0>         0.1337
     49 H20        -0.5639  -15.4614    0.3530 H         1 <0>         0.1298
     50 H21         0.4541  -13.8553   -1.1999 H         1 <0>         0.1314
     51 H22         0.2504  -11.4518   -0.8238 H         1 <0>         0.1370
     52 H23        -2.7762  -10.3595    3.9276 H         1 <0>         0.4129
@<TRIPOS>BOND
     1    1    6 ar
     2    1    2 ar
     3    1   31 1
     4    2    3 ar
     5    2   32 1
     6    3    4 ar
     7    3   33 1
     8    4    9 1
     9    4    5 ar
    10    5    6 ar
    11    5    7 1
    12    6   34 1
    13    7    8 2
    14    7   11 1
    15    8    9 1
    16    9   10 1
    17   11   16 1
    18   11   12 1
    19   12   13 1
    20   12   35 1
    21   12   36 1
    22   13   14 1
    23   13   37 1
    24   13   38 1
    25   14   15 1
    26   14   17 1
    27   15   16 1
    28   15   39 1
    29   15   40 1
    30   16   41 1
    31   16   42 1
    32   17   18 1
    33   17   43 1
    34   17   44 1
    35   18   19 1
    36   18   45 1
    37   18   46 1
    38   19   20 1
    39   19   47 1
    40   20   30 2
    41   20   21 1
    42   21   22 am
    43   21   52 1
    44   22   23 2
    45   22   24 1
    46   24   29 ar
    47   24   25 ar
    48   25   26 ar
    49   25   48 1
    50   26   27 ar
    51   26   49 1
    52   27   28 ar
    53   27   50 1
    54   28   29 ar
    55   28   51 1
    56   29   30 1
@<TRIPOS>MOLECULE
ZINC39063470
   21    22     0     0     0
SMALL
USER_CHARGES

@<TRIPOS>ATOM
      1 C1         -0.0166    1.3751    0.0096 C.ar      1 <0>        -0.1245
      2 C2          1.1704    2.0863    0.0021 C.ar      1 <0>        -0.0743
      3 C3          2.3828    1.4202   -0.0131 C.ar      1 <0>        -0.0914
      4 C4          2.4156    0.0409   -0.0213 C.ar      1 <0>        -0.0413
      5 C5          1.2221   -0.6824   -0.0138 C.ar      1 <0>        -0.1389
      6 C6          0.0021   -0.0041    0.0020 C.ar      1 <0>        -0.0818
      7 C7          1.2496   -2.1606   -0.0230 C.2       1 <0>         0.5641
      8 O1          2.3134   -2.7485   -0.0371 O.2       1 <0>        -0.5372
      9 N1          0.0952   -2.8561   -0.0157 N.am      1 <0>        -0.8502
     10 C8          3.6706    2.2029   -0.0212 C.3       1 <0>         0.0265
     11 H1          4.3913    1.9198   -0.7883 H         1 <0>         0.1409
     12 C9          4.2148    2.6941    1.3218 C.3       1 <0>        -0.0228
     13 O2          3.6171    3.5770    0.3676 O.3       1 <0>        -0.3471
     14 H2         -0.9597    1.9011    0.0260 H         1 <0>         0.1339
     15 H3          1.1503    3.1661    0.0077 H         1 <0>         0.1329
     16 H4          3.3627   -0.4779   -0.0339 H         1 <0>         0.1421
     17 H5         -0.9251   -0.5579    0.0083 H         1 <0>         0.1293
     18 H6         -0.7537   -2.3869   -0.0044 H         1 <0>         0.4014
     19 H7          0.1133   -3.8259   -0.0217 H         1 <0>         0.4073
     20 H8          3.6446    2.4542    2.2192 H         1 <0>         0.1128
     21 H9          5.2968    2.7380    1.4459 H         1 <0>         0.1182
@<TRIPOS>BOND
     1    1    6 ar
     2    1    2 ar
     3    1   14 1
     4    2    3 ar
     5    2   15 1
     6    3    4 ar
     7    3   10 1
     8    4    5 ar
     9    4   16 1
    10    5    6 ar
    11    5    7 1
    12    6   17 1
    13    7    8 2
    14    7    9 am
    15    9   18 1
    16    9   19 1
    17   10   11 1
    18   10   13 1
    19   10   12 1
    20   12   13 1
    21   12   20 1
    22   12   21 1
@<TRIPOS>MOLECULE
ZINC39063472
   21    22     0     0     0
SMALL
USER_CHARGES

@<TRIPOS>ATOM
      1 C1         -0.0166    1.3751    0.0096 C.ar      1 <0>        -0.1243
      2 C2          1.1704    2.0863    0.0021 C.ar      1 <0>        -0.0752
      3 C3          2.3828    1.4202   -0.0131 C.ar      1 <0>        -0.0910
      4 C4          2.4156    0.0409   -0.0213 C.ar      1 <0>        -0.0414
      5 C5          1.2221   -0.6824   -0.0138 C.ar      1 <0>        -0.1387
      6 C6          0.0021   -0.0041    0.0020 C.ar      1 <0>        -0.0820
      7 C7          1.2496   -2.1606   -0.0230 C.2       1 <0>         0.5641
      8 O1          2.3134   -2.7485   -0.0371 O.2       1 <0>        -0.5372
      9 N1          0.0952   -2.8561   -0.0157 N.am      1 <0>        -0.8502
     10 C8          3.6706    2.2029   -0.0212 C.3       1 <0>         0.0267
     11 H1          4.4384    1.8575    0.6711 H         1 <0>         0.1407
     12 C9          4.1286    2.8083   -1.3496 C.3       1 <0>        -0.0229
     13 O2          3.5960    3.6050   -0.2872 O.3       1 <0>        -0.3469
     14 H2         -0.9597    1.9011    0.0260 H         1 <0>         0.1339
     15 H3          1.1503    3.1661    0.0077 H         1 <0>         0.1331
     16 H4          3.3627   -0.4779   -0.0339 H         1 <0>         0.1420
     17 H5         -0.9251   -0.5579    0.0083 H         1 <0>         0.1293
     18 H6         -0.7537   -2.3869   -0.0044 H         1 <0>         0.4014
     19 H7          0.1133   -3.8259   -0.0217 H         1 <0>         0.4073
     20 H8          5.2005    2.8655   -1.5389 H         1 <0>         0.1183
     21 H9          3.5013    2.6440   -2.2257 H         1 <0>         0.1129
@<TRIPOS>BOND
     1    1    6 ar
     2    1    2 ar
     3    1   14 1
     4    2    3 ar
     5    2   15 1
     6    3    4 ar
     7    3   10 1
     8    4    5 ar
     9    4   16 1
    10    5    6 ar
    11    5    7 1
    12    6   17 1
    13    7    8 2
    14    7    9 am
    15    9   18 1
    16    9   19 1
    17   10   11 1
    18   10   13 1
    19   10   12 1
    20   12   13 1
    21   12   20 1
    22   12   21 1
@<TRIPOS>MOLECULE
ZINC03819851
   41    43     0     0     0
SMALL
USER_CHARGES

@<TRIPOS>ATOM
      1 C1          1.4229    8.0919    0.2944 C.3       1 <0>        -0.0474
      2 C2          2.6649    9.8644   -0.7911 C.3       1 <0>        -0.0431
      3 C3          3.8187    7.8911    0.0074 C.3       1 <0>         0.0486
      4 C4          3.7797    6.3847   -0.0005 C.ar      1 <0>        -0.1685
      5 C5          4.2580    5.6888   -1.0963 C.ar      1 <0>        -0.0838
      6 C6          4.2253    4.3094   -1.1091 C.ar      1 <0>        -0.1053
      7 C7          3.7089    3.6169   -0.0146 C.ar      1 <0>         0.0464
      8 C8          3.2230    4.3238    1.0846 C.ar      1 <0>        -0.1082
      9 C9          3.2662    5.7030    1.0883 C.ar      1 <0>        -0.0904
     10 C10         3.6710    2.1352   -0.0222 C.2       1 <0>        -0.1651
     11 C11         4.8225    1.4197   -0.0380 C.2       1 <0>         0.1525
     12 N1          4.8304    0.0564   -0.0458 N.am      1 <0>        -0.6321
     13 H1          5.7094   -0.4202   -0.0574 H         1 <0>         0.4290
     14 C12         3.6973   -0.6719   -0.0384 C.2       1 <0>         0.5471
     15 O1          3.7499   -1.8886   -0.0454 O.2       1 <0>        -0.5063
     16 C13         2.3988    0.0120   -0.0213 C.ar      1 <0>        -0.1378
     17 C14         2.3841    1.4239   -0.0132 C.ar      1 <0>        -0.0066
     18 C15         1.1633    2.1045    0.0023 C.ar      1 <0>         0.0907
     19 C16        -0.0167    1.3836    0.0096 C.ar      1 <0>        -0.1010
     20 C17         0.0021   -0.0041    0.0020 C.ar      1 <0>        -0.1174
     21 C18         1.1950   -0.6928   -0.0136 C.ar      1 <0>        -0.0477
     22 O2          1.1363    3.4630    0.0094 O.3       1 <0>        -0.4864
     23 H2          1.5695    8.5331    1.2803 H         1 <0>         0.1220
     24 H3          0.5122    8.4923   -0.1511 H         1 <0>         0.1213
     25 H4          1.3352    7.0096    0.3900 H         1 <0>         0.1228
     26 H5          3.4801   10.0707   -1.4846 H         1 <0>         0.1211
     27 H6          1.7279   10.2272   -1.2136 H         1 <0>         0.1222
     28 H7          2.8565   10.3697    0.1555 H         1 <0>         0.1230
     29 H8          3.9277    8.2464    1.0321 H         1 <0>         0.1355
     30 H9          4.6638    8.2358   -0.5885 H         1 <0>         0.1337
     31 H10         4.6575    6.2263   -1.9436 H         1 <0>         0.1313
     32 H11         4.5987    3.7672   -1.9653 H         1 <0>         0.1343
     33 H12         2.8177    3.7928    1.9332 H         1 <0>         0.1320
     34 H13         2.8942    6.2516    1.9410 H         1 <0>         0.1317
     35 H14         5.7649    1.9473   -0.0449 H         1 <0>         0.1648
     36 H15        -0.9622    1.9055    0.0170 H         1 <0>         0.1377
     37 H16        -0.9295   -0.5504    0.0080 H         1 <0>         0.1411
     38 H17         1.1982   -1.7728   -0.0194 H         1 <0>         0.1456
     39 H18         1.1368    3.8517    0.8948 H         1 <0>         0.3789
     40 N2          2.5668    8.4036   -0.5882 N.4       1 <0>        -0.3969
     41 H19         2.4198    7.9498   -1.4974 H         1 <0>         0.4308
@<TRIPOS>BOND
     1    1   23 1
     2    1   24 1
     3    1   25 1
     4    1   40 1
     5    2   26 1
     6    2   27 1
     7    2   28 1
     8    2   40 1
     9    3    4 1
    10    3   29 1
    11    3   30 1
    12    3   40 1
    13    4    9 ar
    14    4    5 ar
    15    5    6 ar
    16    5   31 1
    17    6    7 ar
    18    6   32 1
    19    7    8 ar
    20    7   10 1
    21    8    9 ar
    22    8   33 1
    23    9   34 1
    24   10   17 1
    25   10   11 2
    26   11   12 1
    27   11   35 1
    28   12   13 1
    29   12   14 am
    30   14   15 2
    31   14   16 1
    32   16   21 ar
    33   16   17 ar
    34   17   18 ar
    35   18   19 ar
    36   18   22 1
    37   19   20 ar
    38   19   36 1
    39   20   21 ar
    40   20   37 1
    41   21   38 1
    42   22   39 1
    43   40   41 1
@<TRIPOS>MOLECULE
ZINC26507157
   18    19     0     0     0
SMALL
USER_CHARGES
5-bromoisoquinolin-1-ol
@<TRIPOS>ATOM
      1 C1          1.1595    2.0854    0.0022 C.ar      1 <0>        -0.1410
      2 C2         -0.0169    1.3971    0.0097 C.ar      1 <0>        -0.0186
      3 C3          0.0021   -0.0041    0.0020 C.ar      1 <0>        -0.1427
      4 C4          1.2466   -0.6835   -0.0135 C.ar      1 <0>         0.0406
      5 C5          1.2374   -2.0918   -0.0214 C.2       1 <0>        -0.2146
      6 C6          0.0412   -2.7398   -0.0139 C.2       1 <0>         0.1295
      7 N1         -1.1126   -2.0846    0.0006 N.am      1 <0>        -0.5715
      8 C7         -1.1835   -0.7692    0.0088 C.2       1 <0>         0.4847
      9 O1         -2.3903   -0.1533    0.0240 O.2       1 <0>        -0.6008
     10 C8          2.4380    0.0559   -0.0209 C.ar      1 <0>        -0.1132
     11 C9          2.3819    1.4187   -0.0131 C.ar      1 <0>        -0.0371
     12 Br1         4.1090   -0.8291   -0.0410 Br        1 <0>        -0.0329
     13 H1          1.1434    3.1652    0.0078 H         1 <0>         0.1419
     14 H2         -0.9574    1.9280    0.0171 H         1 <0>         0.1481
     15 H3          2.1635   -2.6474   -0.0336 H         1 <0>         0.1582
     16 H4          0.0304   -3.8197   -0.0204 H         1 <0>         0.1737
     17 H5          3.2990    1.9890   -0.0191 H         1 <0>         0.1409
     18 H6         -2.0612   -2.6414    0.0062 H         1 <0>         0.4550
@<TRIPOS>BOND
     1    1   11 ar
     2    1    2 ar
     3    1   13 1
     4    2    3 ar
     5    2   14 1
     6    3    8 1
     7    3    4 ar
     8    4    5 1
     9    4   10 ar
    10    5    6 2
    11    5   15 1
    12    6    7 1
    13    6   16 1
    14    7    8 am
    15    7   18 1
    16    8    9 2
    17   10   11 ar
    18   10   12 1
    19   11   17 1
@<TRIPOS>MOLECULE
ZINC00006559
   22    23     0     0     0
SMALL
USER_CHARGES
2-methyl-1H-benzoimidazole-4-carboxamide
@<TRIPOS>ATOM
      1 C1         -0.0127    1.0858    0.0080 C.3       1 <0>        -0.0816
      2 C2         -0.7181    1.5718    1.2479 C.2       1 <0>         0.2626
      3 N1         -2.0510    1.8181    1.3399 N.2       1 <0>        -0.4934
      4 H1          0.8387    1.7152    2.5717 H         1 <0>         0.4389
      5 C3         -2.2987    2.2414    2.6316 C.ar      1 <0>         0.0410
      6 C4         -3.4425    2.6217    3.3186 C.ar      1 <0>        -0.0347
      7 C5         -3.3619    3.0024    4.6438 C.ar      1 <0>        -0.1348
      8 C6         -2.1470    3.0043    5.3041 C.ar      1 <0>        -0.0666
      9 C7         -0.9847    2.6208    4.6401 C.ar      1 <0>        -0.1345
     10 C8         -1.0562    2.2301    3.2863 C.ar      1 <0>         0.0769
     11 N2         -0.1392    1.8175    2.3890 N.pl3     1 <0>        -0.5365
     12 C9          0.3094    2.6224    5.3459 C.2       1 <0>         0.5689
     13 O1          1.3213    2.2862    4.7611 O.2       1 <0>        -0.5561
     14 N3          0.3714    2.9966    6.6392 N.am      1 <0>        -0.8458
     15 H2          0.0021   -0.0041    0.0020 H         1 <0>         0.0920
     16 H3          1.0099    1.4631    0.0003 H         1 <0>         0.0826
     17 H4         -0.5399    1.4469   -0.8751 H         1 <0>         0.0994
     18 H5         -4.3977    2.6248    2.8145 H         1 <0>         0.1369
     19 H6         -4.2566    3.3019    5.1694 H         1 <0>         0.1395
     20 H7         -2.0994    3.3044    6.3405 H         1 <0>         0.1343
     21 H8         -0.4357    3.2648    7.1055 H         1 <0>         0.4034
     22 H9          1.2230    2.9977    7.1035 H         1 <0>         0.4076
@<TRIPOS>BOND
     1    1    2 1
     2    1   15 1
     3    1   16 1
     4    1   17 1
     5    2    3 2
     6    2   11 1
     7    3    5 1
     8    4   11 1
     9    5   10 ar
    10    5    6 ar
    11    6    7 ar
    12    6   18 1
    13    7    8 ar
    14    7   19 1
    15    8    9 ar
    16    8   20 1
    17    9   10 ar
    18    9   12 1
    19   10   11 1
    20   12   13 2
    21   12   14 am
    22   14   21 1
    23   14   22 1
@<TRIPOS>MOLECULE
ZINC18145500
   21    22     0     0     0
SMALL
USER_CHARGES

@<TRIPOS>ATOM
      1 C1         -0.0184    1.5028    0.0103 C.3       1 <0>        -0.1142
      2 C2          0.0021   -0.0041    0.0020 C.2       1 <0>         0.3934
      3 N1         -1.1856   -0.6654    0.0043 N.am      1 <0>        -0.6534
      4 H1         -2.0154   -0.1632    0.0111 H         1 <0>         0.4203
      5 C3         -1.2205   -2.0184   -0.0033 C.2       1 <0>         0.5516
      6 O1         -2.2767   -2.6237   -0.0022 O.2       1 <0>        -0.5075
      7 C4          0.0670   -2.7287   -0.0136 C.ar      1 <0>        -0.1882
      8 C5          0.1405   -4.1208   -0.0224 C.ar      1 <0>        -0.0487
      9 C6          1.3722   -4.7377   -0.0322 C.ar      1 <0>        -0.1213
     10 C7          2.5396   -3.9864   -0.0329 C.ar      1 <0>        -0.0994
     11 C8          2.4912   -2.6060   -0.0243 C.ar      1 <0>         0.1155
     12 C9          1.2492   -1.9575   -0.0147 C.ar      1 <0>         0.1284
     13 N2          1.1530   -0.6046   -0.0122 N.2       1 <0>        -0.5097
     14 O2          3.6410   -1.8815   -0.0256 O.3       1 <0>        -0.4785
     15 H2          1.0042    1.8801    0.0026 H         1 <0>         0.1061
     16 H3         -0.5455    1.8639   -0.8728 H         1 <0>         0.0943
     17 H4         -0.5286    1.8543    0.9071 H         1 <0>         0.0946
     18 H5         -0.7631   -4.7123   -0.0212 H         1 <0>         0.1420
     19 H6          1.4302   -5.8161   -0.0391 H         1 <0>         0.1404
     20 H7          3.4965   -4.4870   -0.0400 H         1 <0>         0.1424
     21 H8          3.9694   -1.6664   -0.9093 H         1 <0>         0.3920
@<TRIPOS>BOND
     1    1    2 1
     2    1   15 1
     3    1   16 1
     4    1   17 1
     5    2   13 2
     6    2    3 1
     7    3    4 1
     8    3    5 am
     9    5    6 2
    10    5    7 1
    11    7   12 ar
    12    7    8 ar
    13    8    9 ar
    14    8   18 1
    15    9   10 ar
    16    9   19 1
    17   10   11 ar
    18   10   20 1
    19   11   12 ar
    20   11   14 1
    21   12   13 1
    22   14   21 1
@<TRIPOS>MOLECULE
ZINC18145500
   20    21     0     0     0
SMALL
USER_CHARGES

@<TRIPOS>ATOM
      1 C1         -0.0184    1.5028    0.0103 C.3       1 <0>        -0.1123
      2 C2          0.0021   -0.0041    0.0020 C.2       1 <0>         0.4190
      3 N1         -1.1725   -0.6571    0.0043 N.pl3     1 <0>        -0.5807
      4 C3         -1.2066   -2.0383   -0.0030 C.ar      1 <0>         0.0115
      5 C4          0.0130   -2.7375   -0.0128 C.ar      1 <0>        -0.1520
      6 C5          0.0192   -4.1308   -0.0200 C.ar      1 <0>        -0.1814
      7 C6         -1.1766   -4.8159   -0.0173 C.ar      1 <0>        -0.0802
      8 C7         -2.3820   -4.1297   -0.0076 C.ar      1 <0>        -0.2427
      9 C8         -2.4059   -2.7465   -0.0004 C.ar      1 <0>         0.2555
     10 O1         -3.5924   -2.0827    0.0095 O.3       1 <0>        -0.7270
     11 C9          1.2585   -1.9494   -0.0148 C.2       1 <0>         0.5298
     12 N2          1.1588   -0.6066   -0.0123 N.2       1 <0>        -0.6293
     13 O2          2.3473   -2.4974   -0.0227 O.2       1 <0>        -0.5273
     14 H1          1.0042    1.8801    0.0026 H         1 <0>         0.0995
     15 H2         -0.5455    1.8639   -0.8728 H         1 <0>         0.0867
     16 H3         -0.5286    1.8543    0.9071 H         1 <0>         0.0868
     17 H4          0.9548   -4.6702   -0.0279 H         1 <0>         0.1142
     18 H5         -1.1751   -5.8959   -0.0231 H         1 <0>         0.1039
     19 H6         -3.3110   -4.6806   -0.0056 H         1 <0>         0.1069
     20 H7         -2.0024   -0.1550    0.0114 H         1 <0>         0.4192
@<TRIPOS>BOND
     1    1    2 1
     2    1   14 1
     3    1   15 1
     4    1   16 1
     5    2   12 2
     6    2    3 1
     7    3    4 1
     8    3   20 1
     9    4    9 ar
    10    4    5 ar
    11    5    6 ar
    12    5   11 1
    13    6    7 ar
    14    6   17 1
    15    7    8 ar
    16    7   18 1
    17    8    9 ar
    18    8   19 1
    19    9   10 1
    20   11   12 1
    21   11   13 2
@<TRIPOS>MOLECULE
ZINC00000138
   24    25     0     0     0
SMALL
USER_CHARGES
3-(2-chloroethyl)-2-oxa-4-azabicyclo[4.4.0]deca-7,9,11-trien-5-one
@<TRIPOS>ATOM
      1 C1          3.0344    4.6209    2.2167 C.ar      1 <0>        -0.1510
      2 C2          2.1735    5.2960    1.3666 C.ar      1 <0>        -0.0572
      3 C3          0.9342    4.7690    1.0559 C.ar      1 <0>        -0.1479
      4 C4          0.5479    3.5559    1.5978 C.ar      1 <0>         0.1495
      5 C5          1.4193    2.8707    2.4595 C.ar      1 <0>        -0.2108
      6 C6          2.6648    3.4097    2.7657 C.ar      1 <0>        -0.0265
      7 C7          0.9718    1.5786    3.0185 C.2       1 <0>         0.5726
      8 O1          1.5455    1.0689    3.9616 O.2       1 <0>        -0.5147
      9 N1         -0.0985    0.9814    2.4442 N.am      1 <0>        -0.7471
     10 C8         -0.7288    1.5792    1.2668 C.3       1 <0>         0.3217
     11 H1         -1.7746    1.2744    1.2267 H         1 <0>         0.1418
     12 O2         -0.6571    3.0041    1.3194 O.3       1 <0>        -0.3078
     13 C9         -0.0127    1.0858    0.0080 C.3       1 <0>        -0.1777
     14 C10        -0.7527    1.5927   -1.2315 C.3       1 <0>        -0.0304
     15 Cl1         0.0912    1.0112   -2.7149 Cl        1 <0>        -0.1746
     16 H2          3.9999    5.0445    2.4508 H         1 <0>         0.1361
     17 H3          2.4735    6.2432    0.9431 H         1 <0>         0.1385
     18 H4          0.2697    5.3020    0.3921 H         1 <0>         0.1407
     19 H5          3.3369    2.8849    3.4285 H         1 <0>         0.1406
     20 H6         -0.4486    0.1558    2.8141 H         1 <0>         0.4168
     21 H7          0.0021   -0.0041    0.0020 H         1 <0>         0.1004
     22 H8          1.0099    1.4631    0.0003 H         1 <0>         0.0864
     23 H9         -1.7753    1.2154   -1.2238 H         1 <0>         0.0994
     24 H10        -0.7675    2.6825   -1.2255 H         1 <0>         0.1013
@<TRIPOS>BOND
     1    1    6 ar
     2    1    2 ar
     3    1   16 1
     4    2    3 ar
     5    2   17 1
     6    3    4 ar
     7    3   18 1
     8    4   12 1
     9    4    5 ar
    10    5    6 ar
    11    5    7 1
    12    6   19 1
    13    7    8 2
    14    7    9 am
    15    9   10 1
    16    9   20 1
    17   10   11 1
    18   10   12 1
    19   10   13 1
    20   13   14 1
    21   13   21 1
    22   13   22 1
    23   14   15 1
    24   14   23 1
    25   14   24 1
@<TRIPOS>MOLECULE
ZINC02041009
   24    25     0     0     0
SMALL
USER_CHARGES
3-(2-chloroethyl)-2-oxa-4-azabicyclo[4.4.0]deca-7,9,11-trien-5-one
@<TRIPOS>ATOM
      1 C1         -2.2656   -3.0138    2.1939 C.ar      1 <0>        -0.1508
      2 C2         -3.1965   -2.4398    1.3432 C.ar      1 <0>        -0.0573
      3 C3         -3.1353   -1.0932    1.0383 C.ar      1 <0>        -0.1477
      4 C4         -2.1354   -0.3093    1.5863 C.ar      1 <0>         0.1490
      5 C5         -1.1911   -0.8897    2.4482 C.ar      1 <0>        -0.2104
      6 C6         -1.2614   -2.2464    2.7486 C.ar      1 <0>        -0.0266
      7 C7         -0.1384   -0.0211    3.0135 C.2       1 <0>         0.5725
      8 O1          0.5372   -0.3844    3.9569 O.2       1 <0>        -0.5147
      9 N1          0.0483    1.1929    2.4449 N.am      1 <0>        -0.7470
     10 C8         -0.7288    1.5792    1.2668 C.3       1 <0>         0.3215
     11 H1         -0.8087    2.6657    1.2308 H         1 <0>         0.1417
     12 O2         -2.0393    1.0147    1.3129 O.3       1 <0>        -0.3078
     13 C9         -0.0127    1.0858    0.0080 C.3       1 <0>        -0.1776
     14 C10        -0.7527    1.5927   -1.2315 C.3       1 <0>        -0.0303
     15 Cl1         0.0912    1.0112   -2.7149 Cl        1 <0>        -0.1747
     16 H2         -2.3258   -4.0673    2.4237 H         1 <0>         0.1362
     17 H3         -3.9775   -3.0503    0.9146 H         1 <0>         0.1385
     18 H4         -3.8656   -0.6541    0.3749 H         1 <0>         0.1407
     19 H5         -0.5363   -2.6953    3.4112 H         1 <0>         0.1407
     20 H6          0.6983    1.8080    2.8192 H         1 <0>         0.4168
     21 H7          0.0021   -0.0041    0.0020 H         1 <0>         0.0863
     22 H8          1.0099    1.4631    0.0003 H         1 <0>         0.1004
     23 H9         -1.7753    1.2154   -1.2238 H         1 <0>         0.1013
     24 H10        -0.7675    2.6825   -1.2255 H         1 <0>         0.0994
@<TRIPOS>BOND
     1    1    6 ar
     2    1    2 ar
     3    1   16 1
     4    2    3 ar
     5    2   17 1
     6    3    4 ar
     7    3   18 1
     8    4   12 1
     9    4    5 ar
    10    5    6 ar
    11    5    7 1
    12    6   19 1
    13    7    8 2
    14    7    9 am
    15    9   10 1
    16    9   20 1
    17   10   11 1
    18   10   12 1
    19   10   13 1
    20   13   14 1
    21   13   21 1
    22   13   22 1
    23   14   15 1
    24   14   23 1
    25   14   24 1
@<TRIPOS>MOLECULE
ZINC03803136
   23    24     0     0     0
SMALL
USER_CHARGES
5-methyl-3,4-dihydro-2H-isoquinolin-1-one
@<TRIPOS>ATOM
      1 C1         -0.0623    5.3619    0.0336 C.3       1 <0>        -0.1177
      2 C2         -0.0518    3.8550    0.0242 C.ar      1 <0>        -0.0923
      3 C3          1.1519    3.1704    0.0084 C.ar      1 <0>        -0.0907
      4 C4          1.1715    1.7872    0.0005 C.ar      1 <0>        -0.1268
      5 C5         -0.0126    1.0758    0.0080 C.ar      1 <0>        -0.0610
      6 C6         -1.2247    1.7599    0.0174 C.ar      1 <0>        -0.1362
      7 C7         -1.2392    3.1572    0.0319 C.ar      1 <0>        -0.0527
      8 C8         -2.5608    3.8780    0.0499 C.3       1 <0>        -0.1053
      9 C9         -3.5955    3.0874   -0.7475 C.3       1 <0>         0.1136
     10 N1         -3.6382    1.6934   -0.3144 N.am      1 <0>        -0.7272
     11 C10        -2.5133    1.0345    0.0294 C.2       1 <0>         0.5653
     12 O1         -2.5579   -0.1397    0.3406 O.2       1 <0>        -0.5340
     13 H1         -0.0748    5.7316   -0.9917 H         1 <0>         0.0740
     14 H2         -0.9498    5.7158    0.5582 H         1 <0>         0.0700
     15 H3          0.8300    5.7284    0.5411 H         1 <0>         0.0703
     16 H4          2.0816    3.7200    0.0026 H         1 <0>         0.1288
     17 H5          2.1151    1.2620   -0.0113 H         1 <0>         0.1317
     18 H6          0.0021   -0.0041    0.0020 H         1 <0>         0.1356
     19 H7         -2.9014    3.9839    1.0799 H         1 <0>         0.0886
     20 H8         -2.4402    4.8664   -0.3935 H         1 <0>         0.1000
     21 H9         -4.5780    3.5370   -0.6036 H         1 <0>         0.0913
     22 H10        -3.3366    3.1247   -1.8056 H         1 <0>         0.0684
     23 H11        -4.4911    1.2332   -0.2736 H         1 <0>         0.4061
@<TRIPOS>BOND
     1    1    2 1
     2    1   13 1
     3    1   14 1
     4    1   15 1
     5    2    7 ar
     6    2    3 ar
     7    3    4 ar
     8    3   16 1
     9    4    5 ar
    10    4   17 1
    11    5    6 ar
    12    5   18 1
    13    6   11 1
    14    6    7 ar
    15    7    8 1
    16    8    9 1
    17    8   19 1
    18    8   20 1
    19    9   10 1
    20    9   21 1
    21    9   22 1
    22   10   11 am
    23   10   23 1
    24   11   12 2
@<TRIPOS>MOLECULE
ZINC00026019
   30    32     0     0     0
SMALL
USER_CHARGES

@<TRIPOS>ATOM
      1 C1         -0.0167    1.3777    0.0096 C.ar      1 <0>        -0.1129
      2 C2          1.1625    2.0990    0.0022 C.ar      1 <0>        -0.0849
      3 C3          2.3901    1.4409   -0.0130 C.ar      1 <0>        -0.0909
      4 C4          2.4207    0.0290   -0.0209 C.ar      1 <0>         0.1067
      5 C5          1.2098   -0.6853   -0.0132 C.ar      1 <0>         0.0399
      6 C6          0.0021   -0.0041    0.0020 C.ar      1 <0>        -0.0789
      7 N1          1.5535   -2.0245   -0.0245 N.pl3     1 <0>        -0.5941
      8 H1          0.9415   -2.7771   -0.0233 H         1 <0>         0.4251
      9 C7          2.9196   -2.0873   -0.0383 C.2       1 <0>         0.3325
     10 N2          3.4183   -0.8727   -0.0361 N.2       1 <0>        -0.4548
     11 C8          3.7138   -3.3330   -0.0530 C.ar      1 <0>        -0.0455
     12 C9          3.0713   -4.5730   -0.0593 C.ar      1 <0>        -0.0829
     13 C10         3.8155   -5.7324   -0.0735 C.ar      1 <0>        -0.1456
     14 C11         5.2033   -5.6691   -0.0815 C.ar      1 <0>         0.1270
     15 C12         5.8463   -4.4376   -0.0752 C.ar      1 <0>        -0.1450
     16 C13         5.1091   -3.2736   -0.0664 C.ar      1 <0>        -0.0465
     17 O1          5.9333   -6.8141   -0.0950 O.3       1 <0>        -0.4975
     18 C14         3.6460    2.2113   -0.0214 C.2       1 <0>         0.5578
     19 O2          4.7150    1.6315   -0.0347 O.2       1 <0>        -0.5113
     20 N3          3.6102    3.5586   -0.0142 N.am      1 <0>        -0.8551
     21 H2         -0.9622    1.8993    0.0260 H         1 <0>         0.1403
     22 H3          1.1319    3.1785    0.0080 H         1 <0>         0.1358
     23 H4         -0.9268   -0.5551    0.0083 H         1 <0>         0.1305
     24 H5          1.9925   -4.6229   -0.0527 H         1 <0>         0.1254
     25 H6          3.3193   -6.6917   -0.0780 H         1 <0>         0.1370
     26 H7          6.9253   -4.3925   -0.0815 H         1 <0>         0.1395
     27 H8          5.6096   -2.3166   -0.0661 H         1 <0>         0.1482
     28 H9          6.1393   -7.1387   -0.9823 H         1 <0>         0.3962
     29 H10         2.7576    4.0210   -0.0036 H         1 <0>         0.3985
     30 H11         4.4370    4.0658   -0.0197 H         1 <0>         0.4055
@<TRIPOS>BOND
     1    1    6 ar
     2    1    2 ar
     3    1   21 1
     4    2    3 ar
     5    2   22 1
     6    3    4 ar
     7    3   18 1
     8    4   10 1
     9    4    5 ar
    10    5    6 ar
    11    5    7 1
    12    6   23 1
    13    7    8 1
    14    7    9 1
    15    9   10 2
    16    9   11 1
    17   11   16 ar
    18   11   12 ar
    19   12   13 ar
    20   12   24 1
    21   13   14 ar
    22   13   25 1
    23   14   15 ar
    24   14   17 1
    25   15   16 ar
    26   15   26 1
    27   16   27 1
    28   17   28 1
    29   18   19 2
    30   18   20 am
    31   20   29 1
    32   20   30 1
@<TRIPOS>MOLECULE
ZINC13834533
   22    23     0     0     0
SMALL
USER_CHARGES

@<TRIPOS>ATOM
      1 C1         -0.0167    1.3769    0.0096 C.ar      1 <0>        -0.0944
      2 C2          1.1632    2.0980    0.0022 C.ar      1 <0>        -0.0844
      3 C3          2.3901    1.4397   -0.0135 C.ar      1 <0>        -0.0731
      4 C4          2.4203    0.0291   -0.0214 C.ar      1 <0>         0.0907
      5 C5          1.2109   -0.6850   -0.0132 C.ar      1 <0>         0.0620
      6 C6          0.0021   -0.0041    0.0020 C.ar      1 <0>        -0.0811
      7 N1          1.5594   -2.0218   -0.0239 N.pl3     1 <0>        -0.5674
      8 H1          0.9495   -2.7761   -0.0221 H         1 <0>         0.4342
      9 C7          2.9166   -2.0818   -0.0377 C.2       1 <0>         0.1883
     10 N2          3.4163   -0.8785   -0.0362 N.2       1 <0>        -0.4009
     11 C8          3.7253   -3.3533   -0.0521 C.3       1 <0>         0.5617
     12 F1          5.0539   -3.0647    0.2775 F         1 <0>        -0.1408
     13 F2          3.1979   -4.2521    0.8814 F         1 <0>        -0.1646
     14 F3          3.6748   -3.9237   -1.3286 F         1 <0>        -0.1600
     15 C9          3.6468    2.2101   -0.0224 C.2       1 <0>         0.5552
     16 O1          4.7155    1.6299   -0.0361 O.2       1 <0>        -0.5063
     17 N3          3.6115    3.5573   -0.0152 N.am      1 <0>        -0.8522
     18 H2         -0.9621    1.8987    0.0260 H         1 <0>         0.1468
     19 H3          1.1329    3.1775    0.0083 H         1 <0>         0.1418
     20 H4         -0.9266   -0.5554    0.0083 H         1 <0>         0.1377
     21 H5          2.7590    4.0201   -0.0042 H         1 <0>         0.3993
     22 H6          4.4385    4.0642   -0.0210 H         1 <0>         0.4078
@<TRIPOS>BOND
     1    1    6 ar
     2    1    2 ar
     3    1   18 1
     4    2    3 ar
     5    2   19 1
     6    3    4 ar
     7    3   15 1
     8    4   10 1
     9    4    5 ar
    10    5    6 ar
    11    5    7 1
    12    6   20 1
    13    7    8 1
    14    7    9 1
    15    9   10 2
    16    9   11 1
    17   11   12 1
    18   11   13 1
    19   11   14 1
    20   15   16 2
    21   15   17 am
    22   17   21 1
    23   17   22 1
@<TRIPOS>MOLECULE
ZINC13834534
   19    20     0     0     0
SMALL
USER_CHARGES
1H-benzimidazole-4-carboxamide
@<TRIPOS>ATOM
      1 C1          1.1750    1.7808    0.0004 C.ar      1 <0>        -0.1148
      2 C2          1.1741    3.1636    0.0074 C.ar      1 <0>        -0.0873
      3 C3         -0.0279    3.8663    0.0226 C.ar      1 <0>        -0.0903
      4 C4         -1.2468    3.1556    0.0304 C.ar      1 <0>         0.0995
      5 C5         -1.2244    1.7513    0.0174 C.ar      1 <0>         0.0325
      6 C6         -0.0126    1.0758    0.0080 C.ar      1 <0>        -0.0794
      7 N1         -2.5465    1.3506    0.0331 N.pl3     1 <0>        -0.6036
      8 H1         -2.8814    0.4083    0.0344 H         1 <0>         0.4326
      9 C7         -3.3063    2.4768    0.0464 C.2       1 <0>         0.2681
     10 N2         -2.5409    3.5312    0.0448 N.2       1 <0>        -0.4749
     11 C8         -0.0270    5.3404    0.0301 C.2       1 <0>         0.5570
     12 O1         -1.0798    5.9490    0.0434 O.2       1 <0>        -0.5114
     13 N3          1.1405    6.0136    0.0221 N.am      1 <0>        -0.8554
     14 H2          2.1137    1.2468   -0.0107 H         1 <0>         0.1391
     15 H3          2.1106    3.7014    0.0013 H         1 <0>         0.1347
     16 H4          0.0021   -0.0041    0.0020 H         1 <0>         0.1292
     17 H5         -4.3861    2.4954    0.0568 H         1 <0>         0.2206
     18 H6          1.9802    5.5281    0.0115 H         1 <0>         0.3985
     19 H7          1.1411    6.9836    0.0270 H         1 <0>         0.4053
@<TRIPOS>BOND
     1    1    6 ar
     2    1    2 ar
     3    1   14 1
     4    2    3 ar
     5    2   15 1
     6    3    4 ar
     7    3   11 1
     8    4   10 1
     9    4    5 ar
    10    5    6 ar
    11    5    7 1
    12    6   16 1
    13    7    8 1
    14    7    9 1
    15    9   10 2
    16    9   17 1
    17   11   12 2
    18   11   13 am
    19   13   18 1
    20   13   19 1
@<TRIPOS>MOLECULE
ZINC13834539
   31    33     0     0     0
SMALL
USER_CHARGES
2-(4-aminophenyl)-1H-benzimidazole-4-carboxamide
@<TRIPOS>ATOM
      1 C1          0.0021   -0.0041    0.0020 C.ar      1 <0>        -0.1185
      2 C2         -0.0167    1.3780    0.0096 C.ar      1 <0>        -0.0855
      3 C3          1.1757    2.0982    0.0021 C.ar      1 <0>        -0.0956
      4 C4          2.4056    1.4043   -0.0139 C.ar      1 <0>         0.1107
      5 C5          2.4021   -0.0017   -0.0214 C.ar      1 <0>         0.0355
      6 C6          1.2001   -0.6928   -0.0132 C.ar      1 <0>        -0.0781
      7 N1          3.7294   -0.3893   -0.0372 N.pl3     1 <0>        -0.6013
      8 H1          4.0748   -1.3277   -0.0458 H         1 <0>         0.4293
      9 C7          4.4805    0.7539   -0.0388 C.2       1 <0>         0.3493
     10 N2          3.6900    1.8025   -0.0250 N.2       1 <0>        -0.4669
     11 C8          5.9565    0.8016   -0.0533 C.ar      1 <0>        -0.1024
     12 C9          6.6951   -0.3842   -0.0610 C.ar      1 <0>        -0.0462
     13 C10         8.0713   -0.3364   -0.0809 C.ar      1 <0>        -0.2012
     14 C11         8.7262    0.8912   -0.0811 C.ar      1 <0>         0.2384
     15 C12         7.9934    2.0739   -0.0672 C.ar      1 <0>        -0.2013
     16 C13         6.6171    2.0326   -0.0536 C.ar      1 <0>        -0.0107
     17 N3         10.1184    0.9362   -0.0948 N.pl3     1 <0>        -0.8698
     18 C14         1.1539    3.5714    0.0098 C.2       1 <0>         0.5581
     19 O1          2.1979    4.1950    0.0032 O.2       1 <0>        -0.5118
     20 N4         -0.0231    4.2278    0.0241 N.am      1 <0>        -0.8563
     21 H2         -0.9290   -0.5513    0.0076 H         1 <0>         0.1381
     22 H3         -0.9608    1.9024    0.0169 H         1 <0>         0.1338
     23 H4          1.2001   -1.7728   -0.0190 H         1 <0>         0.1284
     24 H5          6.1874   -1.3374   -0.0564 H         1 <0>         0.1194
     25 H6          8.6428   -1.2527   -0.0913 H         1 <0>         0.1272
     26 H7          8.5046    3.0252   -0.0674 H         1 <0>         0.1296
     27 H8          6.0488    2.9510   -0.0428 H         1 <0>         0.1422
     28 H9         10.5761    1.7915   -0.0947 H         1 <0>         0.4020
     29 H10        10.6303    0.1123   -0.1045 H         1 <0>         0.4008
     30 H11        -0.8559    3.7304    0.0294 H         1 <0>         0.3982
     31 H12        -0.0375    5.1977    0.0292 H         1 <0>         0.4046
@<TRIPOS>BOND
     1    1    6 ar
     2    1    2 ar
     3    1   21 1
     4    2    3 ar
     5    2   22 1
     6    3    4 ar
     7    3   18 1
     8    4   10 1
     9    4    5 ar
    10    5    6 ar
    11    5    7 1
    12    6   23 1
    13    7    8 1
    14    7    9 1
    15    9   10 2
    16    9   11 1
    17   11   16 ar
    18   11   12 ar
    19   12   13 ar
    20   12   24 1
    21   13   14 ar
    22   13   25 1
    23   14   15 ar
    24   14   17 1
    25   15   16 ar
    26   15   26 1
    27   16   27 1
    28   17   28 1
    29   17   29 1
    30   18   19 2
    31   18   20 am
    32   20   30 1
    33   20   31 1
@<TRIPOS>MOLECULE
ZINC08671637
   31    33     0     0     0
SMALL
USER_CHARGES

@<TRIPOS>ATOM
      1 C1         -0.7036   -0.0143    1.3571 C.ar      1 <0>        -0.0801
      2 C2         -0.1236   -0.5264    2.5042 C.ar      1 <0>        -0.1304
      3 C3          1.1061   -1.1482    2.4406 C.ar      1 <0>        -0.0530
      4 C4          1.7657   -1.2602    1.2149 C.ar      1 <0>        -0.1271
      5 C5          1.1746   -0.7411    0.0612 C.ar      1 <0>        -0.0616
      6 C6         -0.0555   -0.1217    0.1393 C.ar      1 <0>        -0.1323
      7 C7          3.0829   -1.9243    1.1391 C.2       1 <0>         0.5049
      8 O1          3.5948   -2.3746    2.1446 O.2       1 <0>        -0.4823
      9 O2          3.7165   -2.0306   -0.0449 O.3       1 <0>        -0.2849
     10 C8          4.9703   -2.5542   -0.0527 C.ar      1 <0>         0.0738
     11 C9          6.0733   -1.7230    0.0054 C.ar      1 <0>        -0.0773
     12 C10         7.3577   -2.2492   -0.0020 C.ar      1 <0>        -0.1249
     13 C11         7.5623   -3.6099   -0.0674 C.ar      1 <0>        -0.0387
     14 C12         6.4664   -4.4706   -0.1264 C.ar      1 <0>        -0.1452
     15 C13         5.1562   -3.9405   -0.1138 C.ar      1 <0>         0.0086
     16 C14         4.0285   -4.8712   -0.1715 C.2       1 <0>        -0.2030
     17 C15         4.2650   -6.1920   -0.2289 C.2       1 <0>         0.1222
     18 N1          5.5292   -6.7093   -0.2354 N.am      1 <0>        -0.6321
     19 C16         6.6264   -5.9274   -0.1977 C.2       1 <0>         0.5500
     20 O3          7.7380   -6.4252   -0.2071 O.2       1 <0>        -0.5210
     21 H1         -1.6685    0.4676    1.4118 H         1 <0>         0.1320
     22 H2         -0.6346   -0.4389    3.4516 H         1 <0>         0.1353
     23 H3          1.5579   -1.5473    3.3367 H         1 <0>         0.1387
     24 H4          1.6795   -0.8239   -0.8899 H         1 <0>         0.1399
     25 H5         -0.5139    0.2802   -0.7522 H         1 <0>         0.1343
     26 H6          5.9344   -0.6532    0.0568 H         1 <0>         0.1387
     27 H7          8.2070   -1.5837    0.0436 H         1 <0>         0.1426
     28 H8          8.5662   -4.0082   -0.0733 H         1 <0>         0.1454
     29 H9          3.0146   -4.4991   -0.1676 H         1 <0>         0.1445
     30 H10         3.4251   -6.8697   -0.2712 H         1 <0>         0.1648
     31 H11         5.6412   -7.6718   -0.2777 H         1 <0>         0.4180
@<TRIPOS>BOND
     1    1    6 ar
     2    1    2 ar
     3    1   21 1
     4    2    3 ar
     5    2   22 1
     6    3    4 ar
     7    3   23 1
     8    4    5 ar
     9    4    7 1
    10    5    6 ar
    11    5   24 1
    12    6   25 1
    13    7    8 2
    14    7    9 1
    15    9   10 1
    16   10   15 ar
    17   10   11 ar
    18   11   12 ar
    19   11   26 1
    20   12   13 ar
    21   12   27 1
    22   13   14 ar
    23   13   28 1
    24   14   19 1
    25   14   15 ar
    26   15   16 1
    27   16   17 2
    28   16   29 1
    29   17   18 1
    30   17   30 1
    31   18   19 am
    32   18   31 1
    33   19   20 2
@<TRIPOS>MOLECULE
ZINC42833153
   34    38     0     0     0
SMALL
USER_CHARGES

@<TRIPOS>ATOM
      1 C1         -0.0164    1.3609    0.0095 C.ar      1 <0>        -0.1372
      2 C2          1.1691    2.0842    0.0021 C.ar      1 <0>        -0.1582
      3 C3          2.3861    1.4375   -0.0135 C.ar      1 <0>        -0.1104
      4 C4          2.4300    0.0480   -0.0214 C.ar      1 <0>         0.0399
      5 C5          1.2274   -0.6838   -0.0134 C.ar      1 <0>        -0.0161
      6 C6          0.0021   -0.0041    0.0020 C.ar      1 <0>        -0.0902
      7 C7          1.5790   -2.0537   -0.0238 C.2       1 <0>        -0.2284
      8 C8          2.9451   -2.1390   -0.0376 C.2       1 <0>         0.3655
      9 N1          3.4690   -0.8628   -0.0361 N.pl3     1 <0>        -0.4545
     10 C9          4.8459   -0.6791   -0.0485 C.ar      1 <0>         0.1845
     11 C10         5.4080    0.5885   -0.0469 C.ar      1 <0>        -0.1752
     12 C11         6.7814    0.7281   -0.0590 C.ar      1 <0>        -0.0874
     13 C12         7.6051   -0.3877   -0.0728 C.ar      1 <0>        -0.1715
     14 C13         7.0644   -1.6556   -0.0751 C.ar      1 <0>        -0.0377
     15 C14         5.6783   -1.8112   -0.0625 C.ar      1 <0>        -0.1559
     16 C15         5.0505   -3.1402   -0.0633 C.2       1 <0>         0.4617
     17 O1          5.8129   -4.2578   -0.0761 O.3       1 <0>        -0.6742
     18 N2          3.7424   -3.2292   -0.0510 N.2       1 <0>        -0.5878
     19 C16         0.6186   -3.2151   -0.0200 C.3       1 <0>         0.0915
     20 C17         0.2842   -3.5951   -1.4394 C.2       1 <0>         0.0786
     21 N3         -0.7074   -3.1122   -2.1739 N.2       1 <0>        -0.3978
     22 N4         -0.6554   -3.6885   -3.3261 N.2       1 <0>        -0.2215
     23 N5          0.3327   -4.5139   -3.3380 N.2       1 <0>        -0.2192
     24 N6          0.9286   -4.4721   -2.1953 N.2       1 <0>        -0.3716
     25 H1         -0.9617    1.8830    0.0259 H         1 <0>         0.1078
     26 H2          1.1370    3.1637    0.0082 H         1 <0>         0.1081
     27 H3          3.3029    2.0085   -0.0199 H         1 <0>         0.1072
     28 H4         -0.9248   -0.5584    0.0083 H         1 <0>         0.1202
     29 H5          4.7741    1.4628   -0.0365 H         1 <0>         0.1292
     30 H6          7.2186    1.7156   -0.0581 H         1 <0>         0.1194
     31 H7          8.6777   -0.2622   -0.0823 H         1 <0>         0.1185
     32 H8          7.7091   -2.5220   -0.0866 H         1 <0>         0.1357
     33 H9          1.0781   -4.0648    0.4850 H         1 <0>         0.0700
     34 H10        -0.2935   -2.9306    0.5045 H         1 <0>         0.0570
@<TRIPOS>BOND
     1    1    6 ar
     2    1    2 ar
     3    1   25 1
     4    2    3 ar
     5    2   26 1
     6    3    4 ar
     7    3   27 1
     8    4    9 1
     9    4    5 ar
    10    5    6 ar
    11    5    7 1
    12    6   28 1
    13    7    8 2
    14    7   19 1
    15    8   18 1
    16    8    9 1
    17    9   10 1
    18   10   15 ar
    19   10   11 ar
    20   11   12 ar
    21   11   29 1
    22   12   13 ar
    23   12   30 1
    24   13   14 ar
    25   13   31 1
    26   14   15 ar
    27   14   32 1
    28   15   16 1
    29   16   17 1
    30   16   18 2
    31   19   20 1
    32   19   33 1
    33   19   34 1
    34   20   24 2
    35   20   21 1
    36   21   22 1
    37   22   23 2
    38   23   24 1
@<TRIPOS>MOLECULE
ZINC28467935
   56    60     0     0     0
SMALL
USER_CHARGES

@<TRIPOS>ATOM
      1 C1         -0.0165    1.3623    0.0095 C.ar      1 <0>        -0.0804
      2 C2          1.1656    2.0925    0.0022 C.ar      1 <0>        -0.1293
      3 C3          2.3870    1.4553   -0.0133 C.ar      1 <0>        -0.0469
      4 C4          2.4318    0.0617   -0.0212 C.ar      1 <0>        -0.1441
      5 C5          1.2259   -0.6785   -0.0132 C.ar      1 <0>         0.0191
      6 C6          0.0021   -0.0041    0.0020 C.ar      1 <0>        -0.1188
      7 C7          1.3033   -2.1362   -0.0212 C.2       1 <0>        -0.1404
      8 C8          2.5107   -2.7535   -0.0360 C.2       1 <0>         0.1492
      9 N1          3.6827   -2.0213   -0.0438 N.am      1 <0>        -0.6226
     10 H1          4.5282   -2.4965   -0.0543 H         1 <0>         0.4125
     11 C9          3.6985   -0.6769   -0.0372 C.2       1 <0>         0.5561
     12 O1          4.7579   -0.0764   -0.0449 O.2       1 <0>        -0.5207
     13 C10         2.3211   -4.2234   -0.0409 C.ar      1 <0>        -0.0128
     14 C11         3.2472   -5.2707   -0.0544 C.ar      1 <0>        -0.1122
     15 C12         2.8055   -6.5771   -0.0557 C.ar      1 <0>        -0.0159
     16 C13         1.4503   -6.8565   -0.0441 C.ar      1 <0>        -0.6672
     17 C14         0.5274   -5.8245   -0.0307 C.ar      1 <0>         0.0028
     18 C15         0.9587   -4.5168   -0.0289 C.ar      1 <0>        -0.0969
     19 C16         0.2286   -3.1970   -0.0156 C.3       1 <0>        -0.0320
     20 S1          0.8978   -8.5296   -0.0471 S.o2      1 <0>         2.6967
     21 O2         -0.4173   -8.5222   -0.5853 O.2       1 <0>        -0.9505
     22 O3          1.9477   -9.3030   -0.6117 O.2       1 <0>        -0.9524
     23 N2          0.7594   -9.0023    1.5340 N.pl3     1 <0>        -1.1151
     24 C17        -0.2316   -8.3653    2.4049 C.3       1 <0>         0.1152
     25 C18        -0.4190   -9.2096    3.6670 C.3       1 <0>        -0.1245
     26 C19        -1.4539   -8.5443    4.5766 C.3       1 <0>         0.0549
     27 N3         -1.6339   -9.3549    5.7884 N.3       1 <0>        -0.5375
     28 C20        -2.2434  -10.6538    5.4677 C.3       1 <0>         0.0125
     29 C21        -2.3575  -11.4875    6.7467 C.3       1 <0>         0.0623
     30 O4         -3.1137  -10.7597    7.7183 O.3       1 <0>        -0.3852
     31 C22        -2.5482   -9.4899    8.0546 C.3       1 <0>         0.0625
     32 C23        -2.4360   -8.6359    6.7889 C.3       1 <0>         0.0172
     33 H2         -0.9631    1.8819    0.0259 H         1 <0>         0.1329
     34 H3          1.1265    3.1718    0.0083 H         1 <0>         0.1346
     35 H4          3.3013    2.0300   -0.0197 H         1 <0>         0.1415
     36 H5         -0.9240   -0.5597    0.0082 H         1 <0>         0.1356
     37 H6          4.3058   -5.0571   -0.0642 H         1 <0>         0.1361
     38 H7          3.5209   -7.3861   -0.0661 H         1 <0>         0.1488
     39 H8         -0.5298   -6.0450   -0.0221 H         1 <0>         0.1491
     40 H9         -0.3795   -3.1121    0.8850 H         1 <0>         0.1138
     41 H10        -0.3970   -3.1038   -0.9033 H         1 <0>         0.1145
     42 H11         1.3344   -9.7010    1.8834 H         1 <0>         0.4216
     43 H12         0.1148   -7.3696    2.6819 H         1 <0>         0.0681
     44 H13        -1.1817   -8.2856    1.8767 H         1 <0>         0.0822
     45 H14        -0.7654  -10.2053    3.3900 H         1 <0>         0.0747
     46 H15         0.5311   -9.2893    4.1953 H         1 <0>         0.0821
     47 H16        -1.1075   -7.5486    4.8536 H         1 <0>         0.0806
     48 H17        -2.4040   -8.4646    4.0484 H         1 <0>         0.0416
     49 H18        -3.2361  -10.4958    5.0464 H         1 <0>         0.0452
     50 H19        -1.6199  -11.1798    4.7448 H         1 <0>         0.0898
     51 H20        -2.8607  -12.4284    6.5241 H         1 <0>         0.0991
     52 H21        -1.3610  -11.6908    7.1388 H         1 <0>         0.0604
     53 H22        -3.1894   -8.9861    8.7779 H         1 <0>         0.0993
     54 H23        -1.5573   -9.6351    8.4847 H         1 <0>         0.0605
     55 H24        -1.9531   -7.6890    7.0303 H         1 <0>         0.0874
     56 H25        -3.4319   -8.4457    6.3887 H         1 <0>         0.0448
@<TRIPOS>BOND
     1    1    6 ar
     2    1    2 ar
     3    1   33 1
     4    2    3 ar
     5    2   34 1
     6    3    4 ar
     7    3   35 1
     8    4   11 1
     9    4    5 ar
    10    5    6 ar
    11    5    7 1
    12    6   36 1
    13    7   19 1
    14    7    8 2
    15    8    9 1
    16    8   13 1
    17    9   10 1
    18    9   11 am
    19   11   12 2
    20   13   18 ar
    21   13   14 ar
    22   14   15 ar
    23   14   37 1
    24   15   16 ar
    25   15   38 1
    26   16   17 ar
    27   16   20 1
    28   17   18 ar
    29   17   39 1
    30   18   19 1
    31   19   40 1
    32   19   41 1
    33   20   21 2
    34   20   22 2
    35   20   23 1
    36   23   24 1
    37   23   42 1
    38   24   25 1
    39   24   43 1
    40   24   44 1
    41   25   26 1
    42   25   45 1
    43   25   46 1
    44   26   27 1
    45   26   47 1
    46   26   48 1
    47   27   32 1
    48   27   28 1
    49   28   29 1
    50   28   49 1
    51   28   50 1
    52   29   30 1
    53   29   51 1
    54   29   52 1
    55   30   31 1
    56   31   32 1
    57   31   53 1
    58   31   54 1
    59   32   55 1
    60   32   56 1
@<TRIPOS>MOLECULE
ZINC17425942
   26    28     0     0     0
SMALL
USER_CHARGES
2-amino-5H-phenanthridin-6-one
@<TRIPOS>ATOM
      1 C1          3.7955   -0.9121   -0.0391 C.ar      1 <0>        -0.0852
      2 C2          4.9582   -0.1557   -0.0471 C.ar      1 <0>        -0.1308
      3 C3          4.9005    1.2215   -0.0391 C.ar      1 <0>        -0.0508
      4 C4          3.6611    1.8599   -0.0234 C.ar      1 <0>        -0.1394
      5 C5          2.4806    1.0893   -0.0158 C.ar      1 <0>        -0.0012
      6 C6          2.5597   -0.2992   -0.0240 C.ar      1 <0>        -0.1199
      7 C7          1.1833    1.7915    0.0004 C.ar      1 <0>        -0.0495
      8 C8         -0.0126    1.0758    0.0080 C.ar      1 <0>        -0.1591
      9 C9         -1.2193    1.7541    0.0173 C.ar      1 <0>         0.2060
     10 C10        -1.2365    3.1463    0.0307 C.ar      1 <0>        -0.1544
     11 C11        -0.0582    3.8599    0.0228 C.ar      1 <0>        -0.1070
     12 C12         1.1640    3.1941    0.0076 C.ar      1 <0>         0.1212
     13 N1          2.3459    3.9198   -0.0006 N.am      1 <0>        -0.6505
     14 H1          2.3162    5.0194    0.0046 H         1 <0>         0.4382
     15 C13         3.5526    3.3261   -0.0149 C.2       1 <0>         0.5546
     16 O1          4.5613    4.0070   -0.0213 O.2       1 <0>        -0.5334
     17 N2         -2.4223    1.0403    0.0191 N.pl3     1 <0>        -0.9000
     18 H2          3.8583   -1.9903   -0.0451 H         1 <0>         0.1317
     19 H3          5.9181   -0.6507   -0.0593 H         1 <0>         0.1329
     20 H4          5.8105    1.8030   -0.0454 H         1 <0>         0.1395
     21 H5          1.6585   -0.8944   -0.0178 H         1 <0>         0.1329
     22 H6          0.0021   -0.0041    0.0020 H         1 <0>         0.1294
     23 H7         -2.1807    3.6706    0.0425 H         1 <0>         0.1279
     24 H8         -0.0829    4.9396    0.0289 H         1 <0>         0.1319
     25 H9         -3.3814    1.5789    0.0265 H         1 <0>         0.4178
     26 H10        -2.4092   -0.0596    0.0131 H         1 <0>         0.4173
@<TRIPOS>BOND
     1    1    6 ar
     2    1    2 ar
     3    1   18 1
     4    2    3 ar
     5    2   19 1
     6    3    4 ar
     7    3   20 1
     8    4   15 1
     9    4    5 ar
    10    5    6 ar
    11    5    7 1
    12    6   21 1
    13    7   12 ar
    14    7    8 ar
    15    8    9 ar
    16    8   22 1
    17    9   10 ar
    18    9   17 1
    19   10   11 ar
    20   10   23 1
    21   11   12 ar
    22   11   24 1
    23   12   13 1
    24   13   14 1
    25   13   15 am
    26   15   16 2
    27   17   25 1
    28   17   26 1
@<TRIPOS>MOLECULE
ZINC17970819
   17    18     0     0     0
SMALL
USER_CHARGES

@<TRIPOS>ATOM
      1 C1         -0.0166    1.3734    0.0096 C.ar      1 <0>        -0.1363
      2 C2         -1.2219    2.0634    0.0190 C.ar      1 <0>        -0.0724
      3 C3         -2.4214    1.3879    0.0210 C.ar      1 <0>        -0.1096
      4 C4         -2.4286   -0.0085    0.0135 C.ar      1 <0>         0.1486
      5 C5         -1.2010   -0.7070    0.0039 C.ar      1 <0>        -0.1985
      6 C6          0.0021   -0.0041    0.0020 C.ar      1 <0>        -0.0423
      7 C7         -1.2432   -2.1768   -0.0034 C.2       1 <0>         0.5475
      8 O1         -0.2217   -2.8387   -0.0114 O.2       1 <0>        -0.5102
      9 N1         -2.4621   -2.7650   -0.0004 N.am      1 <0>        -0.6579
     10 C8         -3.5933   -2.0126    0.0085 C.2       1 <0>         0.3754
     11 N2         -3.5871   -0.7142    0.0156 N.2       1 <0>        -0.5234
     12 H1         -2.5287   -3.7327   -0.0050 H         1 <0>         0.4217
     13 H2          0.9140    1.9215    0.0037 H         1 <0>         0.1352
     14 H3         -1.2181    3.1434    0.0252 H         1 <0>         0.1362
     15 H4         -3.3523    1.9353    0.0287 H         1 <0>         0.1411
     16 H5          0.9423   -0.5353   -0.0099 H         1 <0>         0.1387
     17 H6         -4.5464   -2.5204    0.0103 H         1 <0>         0.2062
@<TRIPOS>BOND
     1    1    6 ar
     2    1   13 1
     3    1    2 ar
     4    2   14 1
     5    2    3 ar
     6    3   15 1
     7    3    4 ar
     8    4    5 ar
     9    4   11 1
    10    5    7 1
    11    5    6 ar
    12    6   16 1
    13    7    8 2
    14    7    9 am
    15    9   10 1
    16    9   12 1
    17   10   11 2
    18   10   17 1
@<TRIPOS>MOLECULE
ZINC00152996
   16    16     0     0     0
SMALL
USER_CHARGES

@<TRIPOS>ATOM
      1 C1         -0.0167    1.3794    0.0096 C.ar      1 <0>        -0.0920
      2 C2          1.1684    2.0935    0.0021 C.ar      1 <0>        -0.1271
      3 C3          2.3774    1.4292   -0.0129 C.ar      1 <0>        -0.0593
      4 C4          2.4034    0.0337   -0.0206 C.ar      1 <0>        -0.1418
      5 C5          1.2043   -0.6806   -0.0130 C.ar      1 <0>        -0.0870
      6 C6          0.0021   -0.0041    0.0020 C.ar      1 <0>        -0.1282
      7 C7          3.6955   -0.6847   -0.0372 C.2       1 <0>         0.5624
      8 O1          4.7382   -0.0600   -0.0443 O.2       1 <0>        -0.5387
      9 N1          3.7172   -2.0323   -0.0446 N.am      1 <0>        -0.8509
     10 H1         -0.9605    1.9042    0.0260 H         1 <0>         0.1291
     11 H2          1.1468    3.1732    0.0078 H         1 <0>         0.1319
     12 H3          3.3017    1.9878   -0.0191 H         1 <0>         0.1371
     13 H4          1.2176   -1.7605   -0.0193 H         1 <0>         0.1265
     14 H5         -0.9265   -0.5556    0.0079 H         1 <0>         0.1304
     15 H6          2.8851   -2.5308   -0.0391 H         1 <0>         0.4011
     16 H7          4.5649   -2.5036   -0.0556 H         1 <0>         0.4065
@<TRIPOS>BOND
     1    1    6 ar
     2    1    2 ar
     3    1   10 1
     4    2    3 ar
     5    2   11 1
     6    3    4 ar
     7    3   12 1
     8    4    5 ar
     9    4    7 1
    10    5    6 ar
    11    5   13 1
    12    6   14 1
    13    7    8 2
    14    7    9 am
    15    9   15 1
    16    9   16 1
@<TRIPOS>MOLECULE
ZINC17020551
   26    28     0     0     0
SMALL
USER_CHARGES
4-amino-5H-phenanthridin-6-one
@<TRIPOS>ATOM
      1 C1          2.4044    0.0341   -0.0212 C.ar      1 <0>        -0.0836
      2 C2          1.2091   -0.6697   -0.0131 C.ar      1 <0>        -0.1307
      3 C3          0.0021   -0.0041    0.0020 C.ar      1 <0>        -0.0508
      4 C4         -0.0168    1.3900    0.0097 C.ar      1 <0>        -0.1410
      5 C5          1.1991    2.1033    0.0019 C.ar      1 <0>         0.0008
      6 C6          2.4067    1.4136   -0.0138 C.ar      1 <0>        -0.1192
      7 C7          1.1486    3.5777    0.0108 C.ar      1 <0>        -0.0561
      8 C8          2.3232    4.3310    0.0032 C.ar      1 <0>        -0.1301
      9 C9          2.2580    5.7073    0.0117 C.ar      1 <0>        -0.0905
     10 C10         1.0297    6.3487    0.0278 C.ar      1 <0>        -0.1689
     11 C11        -0.1447    5.6162    0.0351 C.ar      1 <0>         0.1970
     12 C12        -0.0967    4.2190    0.0266 C.ar      1 <0>         0.1056
     13 N1         -1.2735    3.4858    0.0335 N.am      1 <0>        -0.6475
     14 H1         -2.2440    4.0035    0.0406 H         1 <0>         0.4270
     15 C13        -1.2809    2.1408    0.0319 C.2       1 <0>         0.5570
     16 O1         -2.3401    1.5416    0.0432 O.2       1 <0>        -0.5319
     17 N2         -1.3792    6.2736    0.0513 N.pl3     1 <0>        -0.8979
     18 H2          3.3415   -0.5027   -0.0330 H         1 <0>         0.1327
     19 H3          1.2243   -1.7495   -0.0190 H         1 <0>         0.1332
     20 H4         -0.9241   -0.5596    0.0082 H         1 <0>         0.1392
     21 H5          3.3411    1.9551   -0.0205 H         1 <0>         0.1359
     22 H6          3.2828    3.8356   -0.0089 H         1 <0>         0.1301
     23 H7          3.1681    6.2888    0.0057 H         1 <0>         0.1290
     24 H8          0.9885    7.4279    0.0343 H         1 <0>         0.1278
     25 H9         -2.3124    5.6913    0.0571 H         1 <0>         0.4070
     26 H10        -1.4169    7.3729    0.0582 H         1 <0>         0.4260
@<TRIPOS>BOND
     1    1    6 ar
     2    1    2 ar
     3    1   18 1
     4    2    3 ar
     5    2   19 1
     6    3    4 ar
     7    3   20 1
     8    4   15 1
     9    4    5 ar
    10    5    6 ar
    11    5    7 1
    12    6   21 1
    13    7   12 ar
    14    7    8 ar
    15    8    9 ar
    16    8   22 1
    17    9   10 ar
    18    9   23 1
    19   10   11 ar
    20   10   24 1
    21   11   12 ar
    22   11   17 1
    23   12   13 1
    24   13   14 1
    25   13   15 am
    26   15   16 2
    27   17   25 1
    28   17   26 1
@<TRIPOS>MOLECULE
ZINC08616043
   19    20     0     0     0
SMALL
USER_CHARGES

@<TRIPOS>ATOM
      1 C1         -0.0167    1.3839    0.0097 C.ar      1 <0>        -0.1214
      2 C2          1.1566    2.1055    0.0023 C.ar      1 <0>        -0.0555
      3 C3          2.3793    1.4344   -0.0130 C.ar      1 <0>        -0.1420
      4 C4          2.4042    0.0213   -0.0209 C.ar      1 <0>        -0.0214
      5 C5          3.7037   -0.6517   -0.0374 C.2       1 <0>        -0.1971
      6 C6          4.8275    0.0834   -0.0447 C.2       1 <0>         0.1100
      7 N1          4.8084    1.4494   -0.0371 N.am      1 <0>        -0.6333
      8 C7          3.6588    2.1526   -0.0218 C.2       1 <0>         0.5471
      9 O1          3.6816    3.3703   -0.0155 O.2       1 <0>        -0.5242
     10 C8          1.2002   -0.6930   -0.0132 C.ar      1 <0>         0.0976
     11 C9          0.0021   -0.0041    0.0020 C.ar      1 <0>        -0.1071
     12 O2          1.2094   -2.0517   -0.0210 O.3       1 <0>        -0.4891
     13 H1         -0.9629    1.9044    0.0260 H         1 <0>         0.1369
     14 H2          1.1299    3.1851    0.0080 H         1 <0>         0.1410
     15 H3          3.7583   -1.7303   -0.0435 H         1 <0>         0.1513
     16 H4          5.7810   -0.4238   -0.0565 H         1 <0>         0.1626
     17 H5         -0.9290   -0.5512    0.0080 H         1 <0>         0.1366
     18 H6          1.2206   -2.4500    0.8601 H         1 <0>         0.3916
     19 H7          5.6512    1.9297   -0.0426 H         1 <0>         0.4165
@<TRIPOS>BOND
     1    1   11 ar
     2    1    2 ar
     3    1   13 1
     4    2    3 ar
     5    2   14 1
     6    3    8 1
     7    3    4 ar
     8    4    5 1
     9    4   10 ar
    10    5    6 2
    11    5   15 1
    12    6    7 1
    13    6   16 1
    14    7    8 am
    15    7   19 1
    16    8    9 2
    17   10   11 ar
    18   10   12 1
    19   11   17 1
    20   12   18 1
@<TRIPOS>MOLECULE
ZINC00008558
   24    26     0     0     0
SMALL
USER_CHARGES

@<TRIPOS>ATOM
      1 C1         -0.0167    1.3836    0.0096 C.ar      1 <0>        -0.1545
      2 C2          1.1494    2.1166    0.0025 C.ar      1 <0>        -0.0378
      3 C3          2.3884    1.4612   -0.0129 C.ar      1 <0>        -0.1296
      4 C4          3.6127    2.1710   -0.0212 C.ar      1 <0>         0.2946
      5 C5          4.8117    1.4736   -0.0368 C.ar      1 <0>        -0.2468
      6 C6          4.8395    0.0909   -0.0449 C.ar      1 <0>         0.0561
      7 C7          3.6531   -0.6368   -0.0370 C.ar      1 <0>        -0.2386
      8 C8          2.4177    0.0524   -0.0207 C.ar      1 <0>         0.0589
      9 C9          1.2120   -0.6850   -0.0126 C.ar      1 <0>        -0.1744
     10 C10         0.0021   -0.0041    0.0020 C.ar      1 <0>         0.0060
     11 C11         1.2825   -2.1529   -0.0216 C.2       1 <0>         0.5742
     12 O1          0.2576   -2.8080   -0.0150 O.2       1 <0>        -0.5007
     13 N1          2.4758   -2.7763   -0.0376 N.am      1 <0>        -0.6681
     14 C12         3.6414   -2.1031   -0.0452 C.2       1 <0>         0.5771
     15 O2          4.6928   -2.7156   -0.0597 O.2       1 <0>        -0.5072
     16 N2          3.6137    3.5532   -0.0143 N.pl3     1 <0>        -0.8443
     17 H1         -0.9654    1.8995    0.0260 H         1 <0>         0.1398
     18 H2          1.1091    3.1958    0.0082 H         1 <0>         0.1323
     19 H3          5.7424    2.0215   -0.0431 H         1 <0>         0.1370
     20 H4          5.7871   -0.4270   -0.0578 H         1 <0>         0.1449
     21 H5         -0.9265   -0.5556    0.0082 H         1 <0>         0.1463
     22 H6          2.4963   -3.7461   -0.0433 H         1 <0>         0.4185
     23 H7          2.7741    4.0387   -0.0037 H         1 <0>         0.4050
     24 H8          4.4541    4.0376   -0.0201 H         1 <0>         0.4111
@<TRIPOS>BOND
     1    1   10 ar
     2    1    2 ar
     3    1   17 1
     4    2    3 ar
     5    2   18 1
     6    3    8 ar
     7    3    4 ar
     8    4    5 ar
     9    4   16 1
    10    5    6 ar
    11    5   19 1
    12    6    7 ar
    13    6   20 1
    14    7   14 1
    15    7    8 ar
    16    8    9 ar
    17    9   10 ar
    18    9   11 1
    19   10   21 1
    20   11   12 2
    21   11   13 am
    22   13   14 am
    23   13   22 1
    24   14   15 2
    25   16   23 1
    26   16   24 1
@<TRIPOS>MOLECULE
ZINC13834537
   31    33     0     0     0
SMALL
USER_CHARGES
2-(4-nitrophenyl)-1H-benzimidazole-4-carboxamide
@<TRIPOS>ATOM
      1 C1          0.0021   -0.0041    0.0020 C.ar      1 <0>        -0.1045
      2 C2         -0.0167    1.3784    0.0096 C.ar      1 <0>        -0.0845
      3 C3          1.1753    2.0985    0.0021 C.ar      1 <0>        -0.0843
      4 C4          2.4053    1.4047   -0.0133 C.ar      1 <0>         0.1000
      5 C5          2.4021   -0.0012   -0.0208 C.ar      1 <0>         0.0502
      6 C6          1.1997   -0.6927   -0.0131 C.ar      1 <0>        -0.0810
      7 N1          3.7288   -0.3881   -0.0363 N.pl3     1 <0>        -0.5909
      8 H1          4.0744   -1.3264   -0.0449 H         1 <0>         0.4333
      9 C7          4.4795    0.7547   -0.0377 C.2       1 <0>         0.3078
     10 N2          3.6898    1.8028   -0.0242 N.2       1 <0>        -0.4376
     11 C8          5.9573    0.8024   -0.0529 C.ar      1 <0>         0.0267
     12 C9          6.6967   -0.3813   -0.0603 C.ar      1 <0>        -0.1043
     13 C10         8.0752   -0.3297   -0.0798 C.ar      1 <0>        -0.0506
     14 C11         8.7249    0.8918   -0.0812 C.ar      1 <0>        -0.0332
     15 C12         7.9978    2.0689   -0.0681 C.ar      1 <0>        -0.0497
     16 C13         6.6188    2.0313   -0.0539 C.ar      1 <0>        -0.0681
     17 N3         10.2042    0.9396   -0.0964 N.pl3     1 <0>         0.0243
     18 O1         10.7789    2.0135   -0.0973 O.2       1 <0>        -0.1506
     19 O2         10.8469   -0.0950   -0.1080 O.3       1 <0>        -0.1547
     20 C14         1.1533    3.5719    0.0097 C.2       1 <0>         0.5574
     21 O3          2.1972    4.1957    0.0031 O.2       1 <0>        -0.5109
     22 N4         -0.0238    4.2282    0.0240 N.am      1 <0>        -0.8536
     23 H2         -0.9290   -0.5513    0.0076 H         1 <0>         0.1431
     24 H3         -0.9609    1.9027    0.0169 H         1 <0>         0.1383
     25 H4          1.1997   -1.7727   -0.0192 H         1 <0>         0.1333
     26 H5          6.1907   -1.3354   -0.0551 H         1 <0>         0.1454
     27 H6          8.6485   -1.2450   -0.0894 H         1 <0>         0.1618
     28 H7          8.5110    3.0192   -0.0693 H         1 <0>         0.1641
     29 H8          6.0524    2.9508   -0.0433 H         1 <0>         0.1672
     30 H9         -0.8565    3.7307    0.0293 H         1 <0>         0.3991
     31 H10        -0.0383    5.1981    0.0290 H         1 <0>         0.4068
@<TRIPOS>BOND
     1    1    6 ar
     2    1    2 ar
     3    1   23 1
     4    2    3 ar
     5    2   24 1
     6    3    4 ar
     7    3   20 1
     8    4   10 1
     9    4    5 ar
    10    5    6 ar
    11    5    7 1
    12    6   25 1
    13    7    8 1
    14    7    9 1
    15    9   10 2
    16    9   11 1
    17   11   16 ar
    18   11   12 ar
    19   12   13 ar
    20   12   26 1
    21   13   14 ar
    22   13   27 1
    23   14   15 ar
    24   14   17 1
    25   15   16 ar
    26   15   28 1
    27   16   29 1
    28   17   18 2
    29   17   19 1
    30   20   21 2
    31   20   22 am
    32   22   30 1
    33   22   31 1
@<TRIPOS>MOLECULE
ZINC00024215
   22    24     0     0     0
SMALL
USER_CHARGES
BLAHdione
@<TRIPOS>ATOM
      1 C1         -0.0126    1.0758    0.0080 C.ar      1 <0>        -0.1393
      2 C2          1.1701    1.7581    0.0003 C.ar      1 <0>        -0.0469
      3 C3          1.1716    3.1639    0.0079 C.ar      1 <0>        -0.0772
      4 C4          2.3621    3.9115    0.0010 C.ar      1 <0>        -0.0469
      5 C5          2.3122    5.2760    0.0101 C.ar      1 <0>        -0.1393
      6 C6          1.1027    5.9605    0.0254 C.ar      1 <0>        -0.0033
      7 C7         -0.0944    5.2599    0.0321 C.ar      1 <0>        -0.1642
      8 C8         -0.0624    3.8469    0.0233 C.ar      1 <0>         0.0090
      9 C9         -1.2768    3.1237    0.0306 C.ar      1 <0>        -0.1642
     10 C10        -1.2349    1.7373    0.0174 C.ar      1 <0>        -0.0033
     11 C11        -2.5430    3.8709    0.0468 C.2       1 <0>         0.5734
     12 O1         -3.6000    3.2695    0.0529 O.2       1 <0>        -0.4927
     13 N1         -2.5387    5.2174    0.0553 N.am      1 <0>        -0.6678
     14 C12        -1.3999    5.9361    0.0487 C.2       1 <0>         0.5734
     15 O2         -1.4516    7.1511    0.0561 O.2       1 <0>        -0.4926
     16 H1          0.0021   -0.0041    0.0020 H         1 <0>         0.1410
     17 H2          2.1050    1.2175   -0.0111 H         1 <0>         0.1423
     18 H3          3.3166    3.4064   -0.0105 H         1 <0>         0.1423
     19 H4          3.2351    5.8370    0.0054 H         1 <0>         0.1410
     20 H5          1.0949    7.0405    0.0316 H         1 <0>         0.1472
     21 H6         -2.1543    1.1705    0.0184 H         1 <0>         0.1472
     22 H7         -3.3873    5.6871    0.0662 H         1 <0>         0.4211
@<TRIPOS>BOND
     1    1   10 ar
     2    1    2 ar
     3    1   16 1
     4    2    3 ar
     5    2   17 1
     6    3    8 ar
     7    3    4 ar
     8    4    5 ar
     9    4   18 1
    10    5    6 ar
    11    5   19 1
    12    6    7 ar
    13    6   20 1
    14    7   14 1
    15    7    8 ar
    16    8    9 ar
    17    9   10 ar
    18    9   11 1
    19   10   21 1
    20   11   12 2
    21   11   13 am
    22   13   14 am
    23   13   22 1
    24   14   15 2
@<TRIPOS>MOLECULE
ZINC12359526
   18    19     0     0     0
SMALL
USER_CHARGES
isoquinolin-1-ol
@<TRIPOS>ATOM
      1 C1          3.2342    2.4257    3.5525 C.ar      1 <0>        -0.0915
      2 C2          1.9701    1.8424    3.6004 C.ar      1 <0>        -0.1215
      3 C3          1.2912    1.5412    2.4580 C.ar      1 <0>        -0.0793
      4 C4          1.8711    1.8263    1.2142 C.ar      1 <0>        -0.1243
      5 C5          3.1599    2.4157    1.1657 C.ar      1 <0>        -0.0135
      6 C6          3.8298    2.7126    2.3609 C.ar      1 <0>        -0.1156
      7 C7          3.7218    2.6874   -0.0965 C.ar      1 <0>        -0.1660
      8 C8          3.0111    2.3702   -1.2127 C.ar      1 <0>         0.1015
      9 N1          1.8086    1.8140   -1.1452 N.ar      1 <0>        -0.5083
     10 C9          1.2191    1.5307   -0.0014 C.ar      1 <0>         0.3539
     11 O1         -0.0110    0.9628    0.0073 O.3       1 <0>        -0.4756
     12 H1          3.7498    2.6543    4.4735 H         1 <0>         0.1302
     13 H2          1.5208    1.6257    4.5583 H         1 <0>         0.1302
     14 H3          0.3116    1.0894    2.5106 H         1 <0>         0.1370
     15 H4          4.8099    3.1656    2.3374 H         1 <0>         0.1351
     16 H5          4.6992    3.1397   -0.1772 H         1 <0>         0.1433
     17 H6          3.4389    2.5771   -2.1825 H         1 <0>         0.1596
     18 H7          0.0021   -0.0041    0.0020 H         1 <0>         0.4050
@<TRIPOS>BOND
     1    1    6 ar
     2    1    2 ar
     3    1   12 1
     4    2    3 ar
     5    2   13 1
     6    3    4 ar
     7    3   14 1
     8    4   10 ar
     9    4    5 ar
    10    5    6 ar
    11    5    7 ar
    12    6   15 1
    13    7    8 ar
    14    7   16 1
    15    8    9 ar
    16    8   17 1
    17    9   10 ar
    18   10   11 1
    19   11   18 1
@<TRIPOS>MOLECULE
ZINC13581538
   20    21     0     0     0
SMALL
USER_CHARGES
5-chloro-2-methyl-3H-quinazolin-4-one
@<TRIPOS>ATOM
      1 C1          3.6357    2.1658   -0.0211 C.3       1 <0>        -0.1161
      2 C2          2.3371    1.4012   -0.0127 C.2       1 <0>         0.4038
      3 N1          1.1750    2.1050    0.0021 N.am      1 <0>        -0.6532
      4 H1          1.2005    3.0746    0.0068 H         1 <0>         0.4214
      5 C3         -0.0179    1.4656    0.0101 C.2       1 <0>         0.5470
      6 O1         -1.0665    2.0837    0.0185 O.2       1 <0>        -0.4864
      7 C4          0.0021   -0.0041    0.0020 C.ar      1 <0>        -0.2022
      8 C5          1.2584   -0.6504   -0.0134 C.ar      1 <0>         0.1700
      9 N2          2.3862    0.1038   -0.0202 N.2       1 <0>        -0.5222
     10 C6          1.3102   -2.0451   -0.0218 C.ar      1 <0>        -0.1102
     11 C7          0.1401   -2.7720   -0.0150 C.ar      1 <0>        -0.0584
     12 C8         -1.0929   -2.1353    0.0001 C.ar      1 <0>        -0.1341
     13 C9         -1.1709   -0.7577    0.0087 C.ar      1 <0>         0.0346
     14 Cl1        -2.7173    0.0308    0.0270 Cl        1 <0>        -0.0299
     15 H2          4.4701    1.4645   -0.0328 H         1 <0>         0.1068
     16 H3          3.6797    2.7976   -0.9081 H         1 <0>         0.0958
     17 H4          3.6967    2.7881    0.8717 H         1 <0>         0.0958
     18 H5          2.2636   -2.5523   -0.0336 H         1 <0>         0.1471
     19 H6          0.1828   -3.8511   -0.0218 H         1 <0>         0.1458
     20 H7         -1.9990   -2.7230    0.0056 H         1 <0>         0.1447
@<TRIPOS>BOND
     1    1    2 1
     2    1   15 1
     3    1   16 1
     4    1   17 1
     5    2    9 2
     6    2    3 1
     7    3    4 1
     8    3    5 am
     9    5    6 2
    10    5    7 1
    11    7   13 ar
    12    7    8 ar
    13    8    9 1
    14    8   10 ar
    15   10   11 ar
    16   10   18 1
    17   11   12 ar
    18   11   19 1
    19   12   13 ar
    20   12   20 1
    21   13   14 1
@<TRIPOS>MOLECULE
ZINC03628257
   24    26     0     0     0
SMALL
USER_CHARGES
BLAHone
@<TRIPOS>ATOM
      1 C1         -4.4649   -1.4732   -0.6689 C.ar      1 <0>        -0.1577
      2 C2         -4.4958   -1.4233    0.7089 C.ar      1 <0>        -0.0379
      3 C3         -3.6197   -0.5770    1.3907 C.ar      1 <0>        -0.1190
      4 C4         -3.3892   -0.2908    2.8092 C.2       1 <0>        -0.1911
      5 C5         -2.3341    0.5327    2.8721 C.2       1 <0>         0.0534
      6 N1         -1.8651    0.7959    1.6103 N.pl3     1 <0>        -0.4867
      7 C6         -2.6945    0.2052    0.6774 C.ar      1 <0>         0.1291
      8 C7         -2.7368    0.2165   -0.7247 C.ar      1 <0>        -0.1488
      9 C8         -3.6053   -0.6613   -1.3820 C.ar      1 <0>        -0.0316
     10 C9         -1.9097    1.1236   -1.5245 C.2       1 <0>         0.5624
     11 O1         -2.3738    1.5266   -2.5737 O.2       1 <0>        -0.5371
     12 N2         -0.6759    1.5467   -1.1888 N.am      1 <0>        -0.7227
     13 C10        -0.0127    1.0858    0.0080 C.3       1 <0>         0.0961
     14 C11        -0.6806    1.5531    1.2747 C.3       1 <0>         0.0855
     15 H1         -5.1187   -2.1533   -1.1947 H         1 <0>         0.1335
     16 H2         -5.1948   -2.0366    1.2581 H         1 <0>         0.1310
     17 H3         -3.9603   -0.6703    3.6436 H         1 <0>         0.1535
     18 H4         -1.9141    0.9313    3.7837 H         1 <0>         0.1722
     19 H5         -3.6037   -0.7042   -2.4612 H         1 <0>         0.1359
     20 H6         -0.2202    2.1781   -1.7672 H         1 <0>         0.4091
     21 H7          0.0021   -0.0041    0.0020 H         1 <0>         0.0779
     22 H8          1.0150    1.4488    0.0001 H         1 <0>         0.1107
     23 H9          0.0300    1.4684    2.0969 H         1 <0>         0.1043
     24 H10        -0.9553    2.6016    1.1593 H         1 <0>         0.0779
@<TRIPOS>BOND
     1    1    9 ar
     2    1    2 ar
     3    1   15 1
     4    2    3 ar
     5    2   16 1
     6    3    7 ar
     7    3    4 1
     8    4    5 2
     9    4   17 1
    10    5    6 1
    11    5   18 1
    12    6   14 1
    13    6    7 1
    14    7    8 ar
    15    8    9 ar
    16    8   10 1
    17    9   19 1
    18   10   11 2
    19   10   12 am
    20   12   13 1
    21   12   20 1
    22   13   14 1
    23   13   21 1
    24   13   22 1
    25   14   23 1
    26   14   24 1
@<TRIPOS>MOLECULE
ZINC00008960
   40    42     0     0     0
SMALL
USER_CHARGES
2-dimethylamino-N-(6-oxo-5H-phenanthridin-2-yl)-acetamide
@<TRIPOS>ATOM
      1 C1          1.1674    5.8942   -1.3942 C.3       1 <0>        -0.0425
      2 C2         -0.1491    4.6003   -2.9611 C.3       1 <0>        -0.0532
      3 C3          0.1854    3.7914   -0.7036 C.3       1 <0>        -0.0257
      4 C4         -1.0982    3.0019   -0.7027 C.2       1 <0>         0.4972
      5 O1         -2.0498    3.3907   -1.3464 O.2       1 <0>        -0.5127
      6 N1         -1.1906    1.8667    0.0178 N.am      1 <0>        -0.6403
      7 C5         -2.4162    1.1951    0.1127 C.ar      1 <0>         0.0895
      8 C6         -2.4429   -0.1936    0.2052 C.ar      1 <0>        -0.0833
      9 C7         -3.6420   -0.8650    0.2990 C.ar      1 <0>        -0.1372
     10 C8         -4.8417   -0.1590    0.3022 C.ar      1 <0>         0.1873
     11 C9         -4.8165    1.2405    0.2090 C.ar      1 <0>        -0.0793
     12 C10        -3.5994    1.9133    0.1201 C.ar      1 <0>        -0.0594
     13 C11        -6.0898    1.9855    0.2121 C.ar      1 <0>        -0.0055
     14 C12        -6.1250    3.3728    0.1213 C.ar      1 <0>        -0.1189
     15 C13        -7.3398    4.0264    0.1285 C.ar      1 <0>        -0.0807
     16 C14        -8.5249    3.3120    0.2245 C.ar      1 <0>        -0.1229
     17 C15        -8.5108    1.9366    0.3154 C.ar      1 <0>        -0.0452
     18 C16        -7.2932    1.2575    0.3102 C.ar      1 <0>        -0.1382
     19 C17        -7.2309   -0.2085    0.4047 C.2       1 <0>         0.5574
     20 O2         -8.2597   -0.8530    0.4897 O.2       1 <0>        -0.5078
     21 N2         -6.0446   -0.8418    0.3973 N.am      1 <0>        -0.6455
     22 H1         -6.0295   -1.8396    0.4626 H         1 <0>         0.4255
     23 H2          2.0872    5.3817   -1.6760 H         1 <0>         0.1262
     24 H3          1.0260    6.7651   -2.0341 H         1 <0>         0.1289
     25 H4          1.2339    6.2143   -0.3544 H         1 <0>         0.1239
     26 H5         -1.0398    3.9798   -3.0605 H         1 <0>         0.1356
     27 H6         -0.2626    5.4987   -3.5679 H         1 <0>         0.1262
     28 H7          0.7230    4.0410   -3.2998 H         1 <0>         0.1217
     29 H8          0.4221    4.1012    0.3143 H         1 <0>         0.1627
     30 H9          0.9932    3.1711   -1.0918 H         1 <0>         0.1635
     31 H10        -0.4084    1.5147    0.4707 H         1 <0>         0.4214
     32 H11        -1.5165   -0.7488    0.2031 H         1 <0>         0.1400
     33 H12        -3.6515   -1.9426    0.3700 H         1 <0>         0.1456
     34 H13        -3.5795    2.9911    0.0531 H         1 <0>         0.1441
     35 H14        -5.2062    3.9354    0.0456 H         1 <0>         0.1304
     36 H15        -7.3685    5.1038    0.0584 H         1 <0>         0.1344
     37 H16        -9.4679    3.8385    0.2285 H         1 <0>         0.1382
     38 H17        -9.4380    1.3879    0.3898 H         1 <0>         0.1444
     39 N3          0.0052    4.9934   -1.5447 N.4       1 <0>        -0.3843
     40 H18        -0.8418    5.4885   -1.2418 H         1 <0>         0.4386
@<TRIPOS>BOND
     1    1   23 1
     2    1   24 1
     3    1   25 1
     4    1   39 1
     5    2   26 1
     6    2   27 1
     7    2   28 1
     8    2   39 1
     9    3    4 1
    10    3   29 1
    11    3   30 1
    12    3   39 1
    13    4    5 2
    14    4    6 am
    15    6    7 1
    16    6   31 1
    17    7   12 ar
    18    7    8 ar
    19    8    9 ar
    20    8   32 1
    21    9   10 ar
    22    9   33 1
    23   10   21 1
    24   10   11 ar
    25   11   12 ar
    26   11   13 1
    27   12   34 1
    28   13   18 ar
    29   13   14 ar
    30   14   15 ar
    31   14   35 1
    32   15   16 ar
    33   15   36 1
    34   16   17 ar
    35   16   37 1
    36   17   18 ar
    37   17   38 1
    38   18   19 1
    39   19   20 2
    40   19   21 am
    41   21   22 1
    42   39   40 1
@<TRIPOS>MOLECULE
ZINC03821234
   50    53     0     0     0
SMALL
USER_CHARGES
4-[[3-(1,4-diazepan-1-ylcarbonyl)-4-fluoro-phenyl]methyl]-2H-phthalazin-1-one
@<TRIPOS>ATOM
      1 C1         -3.2637    5.3963   -4.4376 C.ar      1 <0>        -0.0860
      2 C2         -4.5753    4.9474   -4.3514 C.ar      1 <0>        -0.0927
      3 C3         -5.0732    4.4535   -3.1656 C.ar      1 <0>        -0.1004
      4 C4         -4.2501    4.4159   -2.0408 C.ar      1 <0>        -0.1649
      5 C5         -2.9175    4.8789   -2.1312 C.ar      1 <0>        -0.0455
      6 C6         -2.4428    5.3805   -3.3445 C.ar      1 <0>        -0.0927
      7 C7         -2.0730    4.8158   -0.9383 C.ar      1 <0>         0.0989
      8 N1         -2.5554    4.3522    0.1761 N.ar      1 <0>        -0.2444
      9 N2         -3.8694    3.8997    0.2980 N.ar      1 <0>        -0.3643
     10 H1         -6.3448    3.5779   -1.4931 H         1 <0>         0.4253
     11 C8         -4.7224    3.9063   -0.7476 C.ar      1 <0>         0.3661
     12 O1         -5.8626    3.4970   -0.6208 O.3       1 <0>        -0.3828
     13 C9         -0.6511    5.3121   -0.9948 C.3       1 <0>        -0.0282
     14 C10        -0.0060    5.1431    0.3566 C.ar      1 <0>        -0.0715
     15 C11        -0.0816    6.1631    1.2898 C.ar      1 <0>        -0.0442
     16 C12         0.5066    6.0179    2.5320 C.ar      1 <0>        -0.1451
     17 C13         1.1714    4.8481    2.8527 C.ar      1 <0>         0.1431
     18 C14         1.2549    3.8167    1.9123 C.ar      1 <0>        -0.1773
     19 C15         0.6571    3.9731    0.6598 C.ar      1 <0>        -0.0555
     20 C16         1.9665    2.5657    2.2440 C.2       1 <0>         0.5651
     21 O2          3.1232    2.6047    2.6159 O.2       1 <0>        -0.4931
     22 N3          1.3335    1.3809    2.1344 N.am      1 <0>        -0.6223
     23 C17         2.1051    0.1411    2.3498 C.3       1 <0>         0.0970
     24 C18         1.3031   -0.8800    3.1741 C.3       1 <0>        -0.1564
     25 C19         0.5519   -0.1659    4.2760 C.3       1 <0>         0.0009
     26 C20        -0.9136    1.4058    3.1117 C.3       1 <0>        -0.0389
     27 C21        -0.0784    1.3727    1.8092 C.3       1 <0>         0.0820
     28 F1          1.7416    4.7042    4.0689 F         1 <0>        -0.1265
     29 H2         -2.8916    5.7763   -5.3776 H         1 <0>         0.1406
     30 H3         -5.2104    4.9824   -5.2243 H         1 <0>         0.1411
     31 H4         -6.0927    4.1021   -3.1069 H         1 <0>         0.1376
     32 H5         -1.4292    5.7455   -3.4215 H         1 <0>         0.1434
     33 H6         -0.6450    6.3665   -1.2709 H         1 <0>         0.1076
     34 H7         -0.0955    4.7389   -1.7369 H         1 <0>         0.1041
     35 H8         -0.6026    7.0771    1.0456 H         1 <0>         0.1408
     36 H9          0.4438    6.8177    3.2549 H         1 <0>         0.1479
     37 H10         0.7146    3.1791   -0.0701 H         1 <0>         0.1368
     38 H11         3.0270    0.3819    2.8791 H         1 <0>         0.1104
     39 H12         2.3538   -0.2969    1.3833 H         1 <0>         0.0873
     40 H13         1.9854   -1.6081    3.6129 H         1 <0>         0.1261
     41 H14         0.5937   -1.3934    2.5250 H         1 <0>         0.0900
     42 H15         1.0847    0.7448    4.5494 H         1 <0>         0.1327
     43 H16         0.4732   -0.8173    5.1464 H         1 <0>         0.1349
     44 H17        -1.9617    1.5763    2.8653 H         1 <0>         0.1478
     45 H18        -0.5573    2.2146    3.7496 H         1 <0>         0.1310
     46 H19        -0.3162    0.4687    1.2487 H         1 <0>         0.1020
     47 H20        -0.3162    2.2473    1.2036 H         1 <0>         0.1354
     48 N4         -0.8249    0.1471    3.8055 N.4       1 <0>        -0.5088
     49 H21        -1.4494    0.1790    4.6199 H         1 <0>         0.4367
     50 H22        -1.1303   -0.5982    3.1690 H         1 <0>         0.4290
@<TRIPOS>BOND
     1    1    6 ar
     2    1    2 ar
     3    1   29 1
     4    2    3 ar
     5    2   30 1
     6    3    4 ar
     7    3   31 1
     8    4   11 ar
     9    4    5 ar
    10    5    6 ar
    11    5    7 ar
    12    6   32 1
    13    7   13 1
    14    7    8 ar
    15    8    9 ar
    16    9   11 ar
    17   10   12 1
    18   11   12 1
    19   13   14 1
    20   13   33 1
    21   13   34 1
    22   14   19 ar
    23   14   15 ar
    24   15   16 ar
    25   15   35 1
    26   16   17 ar
    27   16   36 1
    28   17   18 ar
    29   17   28 1
    30   18   19 ar
    31   18   20 1
    32   19   37 1
    33   20   21 2
    34   20   22 am
    35   22   27 1
    36   22   23 1
    37   23   24 1
    38   23   38 1
    39   23   39 1
    40   24   25 1
    41   24   40 1
    42   24   41 1
    43   25   42 1
    44   25   43 1
    45   25   48 1
    46   26   27 1
    47   26   44 1
    48   26   45 1
    49   26   48 1
    50   27   46 1
    51   27   47 1
    52   48   49 1
    53   48   50 1
@<TRIPOS>MOLECULE
ZINC08793749
   20    21     0     0     0
SMALL
USER_CHARGES

@<TRIPOS>ATOM
      1 C1         -0.0127    1.0858    0.0080 C.3       1 <0>        -0.1148
      2 C2         -0.7416    1.5850   -1.2129 C.2       1 <0>         0.3962
      3 N1         -1.2185    0.7107   -2.0459 N.2       1 <0>        -0.5213
      4 H1         -0.4964    3.5327   -0.7241 H         1 <0>         0.4196
      5 C3         -1.8861    1.0857   -3.1657 C.ar      1 <0>         0.1539
      6 C4         -2.3988    0.1458   -4.0622 C.ar      1 <0>        -0.1115
      7 C5         -3.0695    0.5713   -5.1866 C.ar      1 <0>        -0.0710
      8 C6         -3.2429    1.9255   -5.4419 C.ar      1 <0>        -0.1389
      9 C7         -2.7459    2.8716   -4.5727 C.ar      1 <0>        -0.0404
     10 C8         -2.0647    2.4619   -3.4282 C.ar      1 <0>        -0.2025
     11 C9         -1.5124    3.4258   -2.4648 C.2       1 <0>         0.5504
     12 O1         -1.6315    4.6256   -2.6317 O.2       1 <0>        -0.5100
     13 N2         -0.8708    2.9268   -1.3826 N.am      1 <0>        -0.6539
     14 H2          0.0021   -0.0041    0.0020 H         1 <0>         0.1058
     15 H3          1.0099    1.4631    0.0003 H         1 <0>         0.0942
     16 H4         -0.5229    1.4373    0.9048 H         1 <0>         0.0942
     17 H5         -2.2695   -0.9099   -3.8745 H         1 <0>         0.1408
     18 H6         -3.4654   -0.1569   -5.8789 H         1 <0>         0.1361
     19 H7         -3.7717    2.2394   -6.3297 H         1 <0>         0.1349
     20 H8         -2.8835    3.9232   -4.7766 H         1 <0>         0.1384
@<TRIPOS>BOND
     1    1   14 1
     2    1   15 1
     3    1   16 1
     4    1    2 1
     5    2    3 2
     6    2   13 1
     7    3    5 1
     8    4   13 1
     9    5   10 ar
    10    5    6 ar
    11    6    7 ar
    12    6   17 1
    13    7    8 ar
    14    7   18 1
    15    8    9 ar
    16    8   19 1
    17    9   10 ar
    18    9   20 1
    19   10   11 1
    20   11   12 2
    21   11   13 am
@<TRIPOS>MOLECULE
ZINC01590754
   17    17     0     0     0
SMALL
USER_CHARGES

@<TRIPOS>ATOM
      1 C1         -0.0167    1.3782    0.0096 C.ar      1 <0>        -0.1095
      2 C2          1.1664    2.0887    0.0021 C.ar      1 <0>        -0.0961
      3 C3          2.3864    1.4111   -0.0131 C.ar      1 <0>        -0.1235
      4 C4          2.4038    0.0160   -0.0207 C.ar      1 <0>        -0.0863
      5 C5          1.2110   -0.6869   -0.0131 C.ar      1 <0>         0.1005
      6 C6          0.0021   -0.0041    0.0020 C.ar      1 <0>        -0.1183
      7 O1          1.2234   -2.0460   -0.0209 O.3       1 <0>        -0.4952
      8 C7          3.6560    2.1690   -0.0216 C.2       1 <0>         0.5629
      9 O2          4.7173    1.5766   -0.0349 O.2       1 <0>        -0.5358
     10 N1          3.6364    3.5166   -0.0147 N.am      1 <0>        -0.8492
     11 H1         -0.9601    1.9037    0.0260 H         1 <0>         0.1363
     12 H2          1.1482    3.1686    0.0077 H         1 <0>         0.1305
     13 H3          3.3448   -0.5140   -0.0329 H         1 <0>         0.1437
     14 H4         -0.9269   -0.5548    0.0079 H         1 <0>         0.1358
     15 H5          1.2356   -2.4443    0.8602 H         1 <0>         0.3948
     16 H6          2.7895    3.9893   -0.0041 H         1 <0>         0.4017
     17 H7          4.4693    4.0137   -0.0203 H         1 <0>         0.4077
@<TRIPOS>BOND
     1    1    6 ar
     2    1    2 ar
     3    1   11 1
     4    2    3 ar
     5    2   12 1
     6    3    4 ar
     7    3    8 1
     8    4    5 ar
     9    4   13 1
    10    5    6 ar
    11    5    7 1
    12    6   14 1
    13    7   15 1
    14    8    9 2
    15    8   10 am
    16   10   16 1
    17   10   17 1
@<TRIPOS>MOLECULE
ZINC00150158
   18    19     0     0     0
SMALL
USER_CHARGES

@<TRIPOS>ATOM
      1 C1         -0.0166    1.3749    0.0096 C.ar      1 <0>        -0.1541
      2 C2          1.1694    2.0931    0.0021 C.ar      1 <0>        -0.0437
      3 C3          2.3865    1.4416   -0.0130 C.ar      1 <0>        -0.1647
      4 C4          2.4252    0.0557   -0.0208 C.ar      1 <0>         0.1976
      5 C5          1.2234   -0.6735   -0.0133 C.ar      1 <0>        -0.1994
      6 C6          0.0021   -0.0041    0.0020 C.ar      1 <0>        -0.0130
      7 C7          1.3009   -2.1453   -0.0214 C.2       1 <0>         0.5661
      8 O1          0.2913   -2.8230   -0.0158 O.2       1 <0>        -0.4901
      9 N1          2.5223   -2.7219   -0.0358 N.am      1 <0>        -0.6607
     10 H1          2.5915   -3.6894   -0.0416 H         1 <0>         0.4349
     11 C8          3.6419   -1.9818   -0.0425 C.2       1 <0>         0.7085
     12 O2          4.7159   -2.5515   -0.0555 O.2       1 <0>        -0.5410
     13 N2          3.6268   -0.6377   -0.0356 N.am      1 <0>        -0.6436
     14 H2          4.4640   -0.1479   -0.0410 H         1 <0>         0.4369
     15 H3         -0.9610    1.8986    0.0260 H         1 <0>         0.1389
     16 H4          1.1408    3.1727    0.0079 H         1 <0>         0.1396
     17 H5          3.3052    2.0094   -0.0191 H         1 <0>         0.1415
     18 H6         -0.9234   -0.5607    0.0079 H         1 <0>         0.1463
@<TRIPOS>BOND
     1    1    6 ar
     2    1    2 ar
     3    1   15 1
     4    2    3 ar
     5    2   16 1
     6    3    4 ar
     7    3   17 1
     8    4   13 1
     9    4    5 ar
    10    5    6 ar
    11    5    7 1
    12    6   18 1
    13    7    8 2
    14    7    9 am
    15    9   10 1
    16    9   11 am
    17   11   12 2
    18   11   13 am
    19   13   14 1
@<TRIPOS>MOLECULE
ZINC03871459
   20    21     0     0     0
SMALL
USER_CHARGES

@<TRIPOS>ATOM
      1 C1         -0.0167    1.3834    0.0096 C.ar      1 <0>        -0.0838
      2 C2          1.1565    2.1055    0.0023 C.ar      1 <0>        -0.1078
      3 C3          2.3801    1.4358   -0.0129 C.ar      1 <0>        -0.1081
      4 C4          2.4069    0.0230   -0.0207 C.ar      1 <0>        -0.0696
      5 C5          3.7068   -0.6484   -0.0372 C.2       1 <0>        -0.1913
      6 C6          4.8300    0.0878   -0.0445 C.2       1 <0>         0.0974
      7 N1          4.8093    1.4540   -0.0365 N.am      1 <0>        -0.6327
      8 H1          5.6514    1.9353   -0.0420 H         1 <0>         0.4145
      9 C7          3.6587    2.1556   -0.0217 C.2       1 <0>         0.5453
     10 O1          3.6799    3.3734   -0.0158 O.2       1 <0>        -0.5267
     11 C8          1.2022   -0.6935   -0.0130 C.ar      1 <0>         0.2138
     12 C9          0.0021   -0.0041    0.0020 C.ar      1 <0>        -0.1701
     13 N2          1.2127   -2.0889   -0.0210 N.pl3     1 <0>        -0.8717
     14 H2         -0.9630    1.9038    0.0260 H         1 <0>         0.1307
     15 H3          1.1290    3.1852    0.0080 H         1 <0>         0.1346
     16 H4          3.7625   -1.7270   -0.0432 H         1 <0>         0.1395
     17 H5          5.7840   -0.4183   -0.0566 H         1 <0>         0.1584
     18 H6         -0.9289   -0.5514    0.0079 H         1 <0>         0.1269
     19 H7          2.0563   -2.5675   -0.0319 H         1 <0>         0.3991
     20 H8          0.3763   -2.5802   -0.0156 H         1 <0>         0.4016
@<TRIPOS>BOND
     1    1   12 ar
     2    1    2 ar
     3    1   14 1
     4    2    3 ar
     5    2   15 1
     6    3    9 1
     7    3    4 ar
     8    4    5 1
     9    4   11 ar
    10    5    6 2
    11    5   16 1
    12    6    7 1
    13    6   17 1
    14    7    8 1
    15    7    9 am
    16    9   10 2
    17   11   12 ar
    18   11   13 1
    19   12   18 1
    20   13   19 1
    21   13   20 1
@<TRIPOS>MOLECULE
ZINC40845883
   41    43     0     0     0
SMALL
USER_CHARGES

@<TRIPOS>ATOM
      1 C1         -0.0187    1.5258    0.0104 C.3       1 <0>        -0.1831
      2 C2          0.0021   -0.0041    0.0020 C.3       1 <0>         0.0278
      3 C3         -1.4333   -0.5336    0.0129 C.3       1 <0>        -0.1851
      4 N1          0.6897   -0.4778   -1.2066 N.4       1 <0>        -0.3960
      5 C4          2.1105   -0.0452   -1.1904 C.3       1 <0>        -0.0032
      6 C5          2.7963   -1.0443   -2.1557 C.3       1 <0>        -0.1461
      7 C6          2.0619   -2.3718   -1.8585 C.3       1 <0>        -0.0195
      8 H1          2.6380   -2.9738   -1.1557 H         1 <0>         0.1498
      9 C7          0.7186   -1.9564   -1.2305 C.3       1 <0>        -0.0031
     10 C8          1.8300   -3.1385   -3.1350 C.2       1 <0>         0.2517
     11 N2          1.5909   -2.5754   -4.3510 N.pl3     1 <0>        -0.5827
     12 H2          1.5402   -1.6262   -4.5445 H         1 <0>         0.4289
     13 C9          1.4343   -3.6001   -5.2546 C.ar      1 <0>         0.1140
     14 C10         1.1734   -3.6552   -6.6309 C.ar      1 <0>        -0.1436
     15 C11         1.0715   -4.8943   -7.2612 C.ar      1 <0>        -0.0429
     16 C12         1.2265   -6.0613   -6.5348 C.ar      1 <0>        -0.1334
     17 C13         1.4828   -6.0194   -5.1811 C.ar      1 <0>        -0.0204
     18 C14         1.5901   -4.7901   -4.5258 C.ar      1 <0>         0.0321
     19 N3          1.8345   -4.4353   -3.2373 N.2       1 <0>        -0.4549
     20 C15         1.0075   -2.4111   -7.4062 C.2       1 <0>         0.5717
     21 O1          1.0970   -1.3327   -6.8517 O.2       1 <0>        -0.5629
     22 N4          0.7569   -2.4699   -8.7291 N.am      1 <0>        -0.8417
     23 H3          1.0039    1.9031    0.0027 H         1 <0>         0.0814
     24 H4         -0.5459    1.8868   -0.8726 H         1 <0>         0.0803
     25 H5         -0.5289    1.8773    0.9072 H         1 <0>         0.1064
     26 H6          0.5293   -0.3651    0.8851 H         1 <0>         0.1393
     27 H7         -1.9605   -0.1726   -0.8702 H         1 <0>         0.0799
     28 H8         -1.4185   -1.6235    0.0069 H         1 <0>         0.0812
     29 H9         -1.9435   -0.1821    0.9097 H         1 <0>         0.1066
     30 H10         2.2062    0.9753   -1.5612 H         1 <0>         0.1416
     31 H11         2.5276   -0.1318   -0.1870 H         1 <0>         0.1426
     32 H12         2.6457   -0.7440   -3.1927 H         1 <0>         0.0951
     33 H13         3.8589   -1.1322   -1.9290 H         1 <0>         0.1320
     34 H14         0.6474   -2.3456   -0.2148 H         1 <0>         0.1480
     35 H15        -0.1063   -2.3342   -1.8345 H         1 <0>         0.1342
     36 H16         0.8703   -4.9435   -8.3211 H         1 <0>         0.1415
     37 H17         1.1454   -7.0157   -7.0337 H         1 <0>         0.1474
     38 H18         1.6009   -6.9384   -4.6261 H         1 <0>         0.1436
     39 H19         0.6855   -3.3302   -9.1715 H         1 <0>         0.4058
     40 H20         0.6478   -1.6519   -9.2389 H         1 <0>         0.4111
     41 H21         0.2271   -0.1255   -2.0312 H         1 <0>         0.4244
@<TRIPOS>BOND
     1    1    2 1
     2    1   23 1
     3    1   24 1
     4    1   25 1
     5    2    3 1
     6    2    4 1
     7    2   26 1
     8    3   27 1
     9    3   28 1
    10    3   29 1
    11    4    9 1
    12    4    5 1
    13    4   41 1
    14    5    6 1
    15    5   30 1
    16    5   31 1
    17    6    7 1
    18    6   32 1
    19    6   33 1
    20    7    8 1
    21    7    9 1
    22    7   10 1
    23    9   34 1
    24    9   35 1
    25   10   19 2
    26   10   11 1
    27   11   12 1
    28   11   13 1
    29   13   18 ar
    30   13   14 ar
    31   14   15 ar
    32   14   20 1
    33   15   16 ar
    34   15   36 1
    35   16   17 ar
    36   16   37 1
    37   17   18 ar
    38   17   38 1
    39   18   19 1
    40   20   21 2
    41   20   22 am
    42   22   39 1
    43   22   40 1
@<TRIPOS>MOLECULE
ZINC01512423
   26    28     0     0     0
SMALL
USER_CHARGES
6-oxo-5H-phenanthridine-1-carboxylic acid
@<TRIPOS>ATOM
      1 C1         -0.4733    1.1022   -1.7719 C.ar      1 <0>        -0.0871
      2 C2          0.5796    1.8141   -2.3273 C.ar      1 <0>        -0.1379
      3 C3          0.5886    3.1928   -2.2989 C.ar      1 <0>        -0.0658
      4 C4         -0.4707    3.8772   -1.7063 C.ar      1 <0>        -0.1535
      5 C5         -1.5408    3.1518   -1.1419 C.ar      1 <0>         0.0045
      6 C6         -1.5341    1.7611   -1.1856 C.ar      1 <0>        -0.1222
      7 C7         -2.6464    3.9022   -0.5220 C.ar      1 <0>        -0.0833
      8 C8         -3.7386    3.2283    0.0546 C.ar      1 <0>        -0.0378
      9 C9         -4.7703    3.9638    0.6346 C.ar      1 <0>        -0.1300
     10 C10        -4.7171    5.3454    0.6396 C.ar      1 <0>        -0.0769
     11 C11        -3.6490    6.0122    0.0753 C.ar      1 <0>        -0.1753
     12 C12        -2.6036    5.3022   -0.5109 C.ar      1 <0>         0.1667
     13 N1         -1.5375    5.9834   -1.0748 N.am      1 <0>        -0.6397
     14 H1         -1.5365    6.9531   -1.0518 H         1 <0>         0.4097
     15 C13        -0.5032    5.3466   -1.6526 C.2       1 <0>         0.5626
     16 O1          0.4108    5.9899   -2.1337 O.2       1 <0>        -0.5404
     17 C14        -3.7907    1.7540    0.0462 C.2       1 <0>         0.5031
     18 O2         -4.4238    1.1733   -0.8129 O.co2     1 <0>        -0.6185
     19 H2         -0.4647    0.0227   -1.8026 H         1 <0>         0.1277
     20 H3          1.4007    1.2833   -2.7862 H         1 <0>         0.1257
     21 H4          1.4126    3.7393   -2.7335 H         1 <0>         0.1324
     22 H5         -2.3528    1.2005   -0.7590 H         1 <0>         0.1911
     23 H6         -5.6121    3.4544    1.0800 H         1 <0>         0.1275
     24 H7         -5.5205    5.9090    1.0905 H         1 <0>         0.1277
     25 H8         -3.6234    7.0918    0.0879 H         1 <0>         0.1263
     26 O3         -3.1360    1.0513    0.9913 O.co2     1 <0>        -0.7366
@<TRIPOS>BOND
     1    1    6 ar
     2    1    2 ar
     3    1   19 1
     4    2    3 ar
     5    2   20 1
     6    3    4 ar
     7    3   21 1
     8    4   15 1
     9    4    5 ar
    10    5    6 ar
    11    5    7 1
    12    6   22 1
    13    7   12 ar
    14    7    8 ar
    15    8    9 ar
    16    8   17 1
    17    9   10 ar
    18    9   23 1
    19   10   11 ar
    20   10   24 1
    21   11   12 ar
    22   11   25 1
    23   12   13 1
    24   13   14 1
    25   13   15 am
    26   15   16 2
    27   17   18 2
    28   17   26 1
@<TRIPOS>MOLECULE
ZINC00060264
   36    38     0     0     0
SMALL
USER_CHARGES
3-phenyl-N-(4-phenylthiazol-2-yl)-prop-2-enamide
@<TRIPOS>ATOM
      1 C1         -1.0989   -4.9357   -0.0149 C.ar      1 <0>        -0.1011
      2 C2         -2.3088   -4.2637    0.0007 C.ar      1 <0>        -0.1235
      3 C3         -2.3358   -2.8851    0.0089 C.ar      1 <0>        -0.0881
      4 C4         -1.1365   -2.1659    0.0013 C.ar      1 <0>        -0.0889
      5 C5          0.0818   -2.8522   -0.0199 C.ar      1 <0>        -0.0960
      6 C6          0.0923   -4.2310   -0.0220 C.ar      1 <0>        -0.1235
      7 C7         -1.1565   -0.6941    0.0094 C.2       1 <0>         0.0119
      8 C8          0.0021   -0.0041    0.0020 C.2       1 <0>        -0.2244
      9 C9         -0.0178    1.4593    0.0101 C.2       1 <0>         0.5538
     10 O1         -1.0799    2.0535    0.0183 O.2       1 <0>        -0.5034
     11 N1          1.1401    2.1490    0.0027 N.am      1 <0>        -0.6050
     12 C10         1.1213    3.5368    0.0103 C.2       1 <0>         0.3172
     13 N2          2.1322    4.3860    0.0053 N.2       1 <0>        -0.5323
     14 C11         1.9305    5.6952    0.0135 C.2       1 <0>         0.1179
     15 C12         0.6510    6.1767    0.0276 C.2       1 <0>        -0.2409
     16 S1         -0.2780    4.6489    0.0217 S.3       1 <0>         0.1207
     17 C13         3.0820    6.6299    0.0080 C.ar      1 <0>        -0.0256
     18 C14         2.8653    8.0068    0.0115 C.ar      1 <0>        -0.1041
     19 C15         3.9406    8.8719    0.0117 C.ar      1 <0>        -0.1205
     20 C16         5.2315    8.3748   -0.0025 C.ar      1 <0>        -0.1144
     21 C17         5.4525    7.0093   -0.0113 C.ar      1 <0>        -0.1236
     22 C18         4.3849    6.1348   -0.0064 C.ar      1 <0>        -0.0871
     23 H1         -1.0843   -6.0156   -0.0212 H         1 <0>         0.1267
     24 H2         -3.2342   -4.8206    0.0062 H         1 <0>         0.1288
     25 H3         -3.2807   -2.3622    0.0214 H         1 <0>         0.1305
     26 H4          1.0121   -2.3036   -0.0300 H         1 <0>         0.1288
     27 H5          1.0324   -4.7625   -0.0339 H         1 <0>         0.1281
     28 H6         -2.0990   -0.1669    0.0212 H         1 <0>         0.1410
     29 H7          0.9446   -0.5313   -0.0098 H         1 <0>         0.1395
     30 H8          1.9866    1.6755   -0.0079 H         1 <0>         0.4284
     31 H9          0.2988    7.1976    0.0355 H         1 <0>         0.1991
     32 H10         1.8579    8.3960    0.0181 H         1 <0>         0.1250
     33 H11         3.7740    9.9389    0.0189 H         1 <0>         0.1261
     34 H12         6.0700    9.0555   -0.0065 H         1 <0>         0.1233
     35 H13         6.4624    6.6268   -0.0225 H         1 <0>         0.1244
     36 H14         4.5586    5.0689   -0.0132 H         1 <0>         0.1311
@<TRIPOS>BOND
     1    1    6 ar
     2    1    2 ar
     3    1   23 1
     4    2    3 ar
     5    2   24 1
     6    3    4 ar
     7    3   25 1
     8    4    5 ar
     9    4    7 1
    10    5    6 ar
    11    5   26 1
    12    6   27 1
    13    7    8 2
    14    7   28 1
    15    8    9 1
    16    8   29 1
    17    9   10 2
    18    9   11 am
    19   11   12 1
    20   11   30 1
    21   12   16 1
    22   12   13 2
    23   13   14 1
    24   14   15 2
    25   14   17 1
    26   15   16 1
    27   15   31 1
    28   17   22 ar
    29   17   18 ar
    30   18   19 ar
    31   18   32 1
    32   19   20 ar
    33   19   33 1
    34   20   21 ar
    35   20   34 1
    36   21   22 ar
    37   21   35 1
    38   22   36 1
@<TRIPOS>MOLECULE
ZINC08580818
   24    26     0     0     0
SMALL
USER_CHARGES

@<TRIPOS>ATOM
      1 C1         -0.0166    1.3754    0.0096 C.ar      1 <0>        -0.0802
      2 C2          1.1677    2.0974    0.0022 C.ar      1 <0>        -0.1312
      3 C3          2.3848    1.4501   -0.0133 C.ar      1 <0>        -0.0474
      4 C4          2.4248    0.0566   -0.0211 C.ar      1 <0>        -0.1448
      5 C5          1.2199   -0.6754   -0.0131 C.ar      1 <0>         0.0031
      6 C6          0.0021   -0.0041    0.0020 C.ar      1 <0>        -0.1225
      7 C7          1.2937   -2.1486   -0.0224 C.ar      1 <0>        -0.1009
      8 C8          0.1332   -2.9209   -0.0157 C.ar      1 <0>        -0.0652
      9 C9          0.2250   -4.2960   -0.0251 C.ar      1 <0>        -0.1445
     10 C10         1.4665   -4.9123   -0.0411 C.ar      1 <0>        -0.0720
     11 C11         2.6220   -4.1607   -0.0479 C.ar      1 <0>        -0.1598
     12 C12         2.5509   -2.7708   -0.0386 C.ar      1 <0>         0.1780
     13 N1          3.7143   -2.0194   -0.0459 N.am      1 <0>        -0.6420
     14 C13         3.7004   -0.6746   -0.0380 C.2       1 <0>         0.5581
     15 O1          4.7501   -0.0591   -0.0449 O.2       1 <0>        -0.5211
     16 H1         -0.9618    1.8978    0.0260 H         1 <0>         0.1335
     17 H2          1.1361    3.1769    0.0082 H         1 <0>         0.1344
     18 H3          3.3024    2.0196   -0.0197 H         1 <0>         0.1404
     19 H4         -0.9241   -0.5596    0.0082 H         1 <0>         0.1353
     20 H5         -0.8352   -2.4429   -0.0028 H         1 <0>         0.1347
     21 H6         -0.6734   -4.8954   -0.0195 H         1 <0>         0.1318
     22 H7          1.5291   -5.9905   -0.0480 H         1 <0>         0.1329
     23 H8          3.5841   -4.6512   -0.0604 H         1 <0>         0.1336
     24 H9          4.5685   -2.4789   -0.0567 H         1 <0>         0.4159
@<TRIPOS>BOND
     1    1    6 ar
     2    1    2 ar
     3    1   16 1
     4    2    3 ar
     5    2   17 1
     6    3    4 ar
     7    3   18 1
     8    4   14 1
     9    4    5 ar
    10    5    6 ar
    11    5    7 1
    12    6   19 1
    13    7   12 ar
    14    7    8 ar
    15    8    9 ar
    16    8   20 1
    17    9   10 ar
    18    9   21 1
    19   10   11 ar
    20   10   22 1
    21   11   12 ar
    22   11   23 1
    23   12   13 1
    24   13   14 am
    25   13   24 1
    26   14   15 2
@<TRIPOS>MOLECULE
ZINC34031449
   44    46     0     0     0
SMALL
USER_CHARGES
2-(1-propyl-4-piperidyl)-1H-benzimidazole-4-carboxamide
@<TRIPOS>ATOM
      1 C1         -2.8413    1.0248    4.9885 C.3       1 <0>        -0.1589
      2 C2         -2.1338    0.6721    3.6786 C.3       1 <0>        -0.1509
      3 C3         -2.7943    1.4266    2.5230 C.3       1 <0>        -0.0082
      4 N1         -2.1150    1.0879    1.2653 N.4       1 <0>        -0.4004
      5 C4         -0.7306    1.5801    1.2659 C.3       1 <0>        -0.0062
      6 C5         -0.0127    1.0858    0.0080 C.3       1 <0>        -0.1393
      7 C6         -0.7548    1.5938   -1.2312 C.3       1 <0>        -0.0167
      8 C7         -2.2060    1.1076   -1.1825 C.3       1 <0>        -0.1464
      9 C8         -2.8612    1.6013    0.1094 C.3       1 <0>        -0.0001
     10 C9         -0.0856    1.0620   -2.4723 C.2       1 <0>         0.2547
     11 N2         -0.3279   -0.1538   -3.0280 N.pl3     1 <0>        -0.6071
     12 H1         -1.0599   -0.8332   -2.5670 H         1 <0>         0.4440
     13 C10         0.4779   -0.2589   -4.1453 C.ar      1 <0>         0.0578
     14 C11         0.6739   -1.2431   -5.1033 C.ar      1 <0>        -0.0875
     15 C12         1.5828   -1.0466   -6.1246 C.ar      1 <0>        -0.1017
     16 C13         2.3073    0.1283   -6.2071 C.ar      1 <0>        -0.0862
     17 C14         2.1303    1.1322   -5.2586 C.ar      1 <0>        -0.0808
     18 C15         1.2044    0.9414   -4.2113 C.ar      1 <0>         0.0946
     19 N3          0.8146    1.6984   -3.1668 N.2       1 <0>        -0.4510
     20 C16         2.9036    2.3840   -5.3481 C.2       1 <0>         0.5574
     21 O1          2.7447    3.2576   -4.5172 O.2       1 <0>        -0.5240
     22 N4          3.7866    2.5604   -6.3509 N.am      1 <0>        -0.8748
     23 H2         -2.3664    0.4823    5.8193 H         1 <0>         0.0778
     24 H3         -3.9011    0.7380    4.9215 H         1 <0>         0.0675
     25 H4         -2.7650    2.1076    5.1664 H         1 <0>         0.0675
     26 H5         -1.0740    0.9589    3.7456 H         1 <0>         0.0861
     27 H6         -2.2101   -0.4107    3.5007 H         1 <0>         0.0860
     28 H7         -3.8541    1.1398    2.4561 H         1 <0>         0.1318
     29 H8         -2.7180    2.5094    2.7009 H         1 <0>         0.1286
     30 H9         -0.7325    2.6800    1.2786 H         1 <0>         0.1327
     31 H10        -0.2081    1.2041    2.1579 H         1 <0>         0.1376
     32 H11         1.0192    1.4668    0.0011 H         1 <0>         0.1233
     33 H12         0.0026   -0.0141    0.0028 H         1 <0>         0.0896
     34 H13        -0.7261    2.6929   -1.2649 H         1 <0>         0.1266
     35 H14        -2.7550    1.5047   -2.0491 H         1 <0>         0.1218
     36 H15        -2.2254    0.0081   -1.2086 H         1 <0>         0.0869
     37 H16        -3.8997    1.2413    0.1541 H         1 <0>         0.1371
     38 H17        -2.8533    2.7011    0.1269 H         1 <0>         0.1330
     39 H18         0.1144   -2.1654   -5.0504 H         1 <0>         0.1307
     40 H19         1.7287   -1.8180   -6.8662 H         1 <0>         0.1433
     41 H20         3.0145    0.2678   -7.0114 H         1 <0>         0.1390
     42 H21         4.3636    3.4945   -6.4177 H         1 <0>         0.4295
     43 H22         3.9302    1.7703   -7.1026 H         1 <0>         0.4171
     44 H23        -2.0815   -0.0084    1.1818 H         1 <0>         0.4386
@<TRIPOS>BOND
     1    1    2 1
     2    1   23 1
     3    1   24 1
     4    1   25 1
     5    2    3 1
     6    2   26 1
     7    2   27 1
     8    3    4 1
     9    3   28 1
    10    3   29 1
    11    4    9 1
    12    4    5 1
    13    4   44 1
    14    5    6 1
    15    5   30 1
    16    5   31 1
    17    6    7 1
    18    6   32 1
    19    6   33 1
    20    7    8 1
    21    7   10 1
    22    7   34 1
    23    8    9 1
    24    8   35 1
    25    8   36 1
    26    9   37 1
    27    9   38 1
    28   10   19 2
    29   10   11 1
    30   11   12 1
    31   11   13 1
    32   13   18 ar
    33   13   14 ar
    34   14   15 ar
    35   14   39 1
    36   15   16 ar
    37   15   40 1
    38   16   17 ar
    39   16   41 1
    40   17   18 ar
    41   17   20 1
    42   18   19 1
    43   20   21 2
    44   20   22 am
    45   22   42 1
    46   22   43 1
@<TRIPOS>MOLECULE
ZINC21148053
   31    33     0     0     0
SMALL
USER_CHARGES
1,3-dimethyl-6,7,8,9-tetrahydro-4H-pyrazolo[5,4-c]isoquinolin-5-one
@<TRIPOS>ATOM
      1 C1         -0.7565    2.6265    4.7271 C.3       1 <0>        -0.0981
      2 C2         -0.9988    2.2330    3.2927 C.2       1 <0>         0.1381
      3 C3         -2.2492    2.2328    2.6313 C.2       1 <0>        -0.2684
      4 C4         -3.5638    2.5668    3.0505 C.2       1 <0>         0.0783
      5 C5         -4.5789    2.4700    2.1623 C.2       1 <0>        -0.2234
      6 C6         -4.3146    2.0281    0.8453 C.2       1 <0>         0.5547
      7 O1         -5.2352    1.9365    0.0503 O.2       1 <0>        -0.5372
      8 N1         -3.0713    1.7066    0.4513 N.am      1 <0>        -0.6223
      9 H1         -2.8928    1.3593   -0.5771 H         1 <0>         0.4362
     10 C7         -2.0211    1.8082    1.3229 C.2       1 <0>         0.3480
     11 N2         -0.6984    1.5583    1.2133 N.pl3     1 <0>        -0.3795
     12 N3         -0.0928    1.8331    2.4453 N.2       1 <0>        -0.2748
     13 C8         -0.0127    1.0858    0.0080 C.3       1 <0>         0.0896
     14 C9         -6.0024    2.8166    2.5120 C.3       1 <0>        -0.0527
     15 C10        -6.1959    2.8380    4.0267 C.3       1 <0>        -0.1234
     16 C11        -5.1020    3.7213    4.6392 C.3       1 <0>        -0.1225
     17 C12        -3.7621    3.0065    4.4762 C.3       1 <0>        -0.0979
     18 H2         -1.7091    2.9189    5.1930 H         1 <0>         0.0951
     19 H3         -0.0561    3.4740    4.7615 H         1 <0>         0.0850
     20 H4         -0.3274    1.7738    5.2737 H         1 <0>         0.0853
     21 H5          1.0611    0.9721    0.2178 H         1 <0>         0.1076
     22 H6         -0.1526    1.8154   -0.8032 H         1 <0>         0.0824
     23 H7         -0.4318    0.1151   -0.2955 H         1 <0>         0.0826
     24 H8         -6.2477    3.8099    2.1081 H         1 <0>         0.0731
     25 H9         -6.6797    2.0666    2.0775 H         1 <0>         0.0781
     26 H10        -7.1887    3.2481    4.2637 H         1 <0>         0.0719
     27 H11        -6.1186    1.8139    4.4208 H         1 <0>         0.0661
     28 H12        -5.0788    4.6901    4.1187 H         1 <0>         0.0689
     29 H13        -5.3160    3.8833    5.7059 H         1 <0>         0.0734
     30 H14        -3.7456    2.1271    5.1368 H         1 <0>         0.0920
     31 H15        -2.9542    3.6957    4.7631 H         1 <0>         0.0937
@<TRIPOS>BOND
     1    1    2 1
     2    1   18 1
     3    1   19 1
     4    1   20 1
     5    2   12 2
     6    2    3 1
     7    3   10 2
     8    3    4 1
     9    4   17 1
    10    4    5 2
    11    5    6 1
    12    5   14 1
    13    6    7 2
    14    6    8 am
    15    8    9 1
    16    8   10 1
    17   10   11 1
    18   11   12 1
    19   11   13 1
    20   13   21 1
    21   13   22 1
    22   13   23 1
    23   14   15 1
    24   14   24 1
    25   14   25 1
    26   15   16 1
    27   15   26 1
    28   15   27 1
    29   16   17 1
    30   16   28 1
    31   16   29 1
    32   17   30 1
    33   17   31 1
@<TRIPOS>MOLECULE
ZINC08649468
   26    28     0     0     0
SMALL
USER_CHARGES
4-nitro-5H-phenanthridin-6-one
@<TRIPOS>ATOM
      1 C1          2.4393    0.1203   -0.8478 C.ar      1 <0>        -0.0777
      2 C2          1.2551   -0.5559   -1.1014 C.ar      1 <0>        -0.1228
      3 C3          0.0479    0.1094   -1.0812 C.ar      1 <0>        -0.0447
      4 C4          0.0176    1.4750   -0.8026 C.ar      1 <0>        -0.1411
      5 C5          1.2223    2.1604   -0.5447 C.ar      1 <0>        -0.0034
      6 C6          2.4302    1.4716   -0.5697 C.ar      1 <0>        -0.1163
      7 C7          1.1593    3.6050   -0.2526 C.ar      1 <0>        -0.1002
      8 C8          2.3206    4.3305    0.0090 C.ar      1 <0>        -0.0165
      9 C9          2.2395    5.6794    0.2796 C.ar      1 <0>        -0.1422
     10 C10         1.0079    6.3155    0.2924 C.ar      1 <0>        -0.0132
     11 C11        -0.1480    5.6101    0.0351 C.ar      1 <0>        -0.0862
     12 C12        -0.0877    4.2472   -0.2405 C.ar      1 <0>         0.2515
     13 N1         -1.2512    3.5419   -0.4990 N.am      1 <0>        -0.6579
     14 H1         -2.2216    4.0599   -0.4914 H         1 <0>         0.4520
     15 C13        -1.2475    2.2234   -0.7647 C.2       1 <0>         0.5611
     16 O1         -2.2974    1.6472   -0.9806 O.2       1 <0>        -0.5010
     17 N2         -1.4559    6.3032    0.0523 N.pl3     1 <0>         0.0297
     18 O2         -1.5507    7.4357   -0.3858 O.2       1 <0>        -0.1207
     19 O3         -2.4371    5.7409    0.5045 O.3       1 <0>        -0.1775
     20 H2          3.3767   -0.4157   -0.8678 H         1 <0>         0.1376
     21 H3          1.2791   -1.6139   -1.3171 H         1 <0>         0.1382
     22 H4         -0.8696   -0.4247   -1.2798 H         1 <0>         0.1442
     23 H5          3.3560    1.9918   -0.3732 H         1 <0>         0.1383
     24 H6          3.2811    3.8368   -0.0001 H         1 <0>         0.1542
     25 H7          3.1383    6.2426    0.4827 H         1 <0>         0.1569
     26 H8          0.9536    7.3728    0.5054 H         1 <0>         0.1577
@<TRIPOS>BOND
     1    1    6 ar
     2    1    2 ar
     3    1   20 1
     4    2    3 ar
     5    2   21 1
     6    3    4 ar
     7    3   22 1
     8    4   15 1
     9    4    5 ar
    10    5    6 ar
    11    5    7 1
    12    6   23 1
    13    7   12 ar
    14    7    8 ar
    15    8    9 ar
    16    8   24 1
    17    9   10 ar
    18    9   25 1
    19   10   11 ar
    20   10   26 1
    21   11   12 ar
    22   11   17 1
    23   12   13 1
    24   13   14 1
    25   13   15 am
    26   15   16 2
    27   17   18 2
    28   17   19 1
@<TRIPOS>MOLECULE
ZINC40934498
   24    25     0     0     0
SMALL
USER_CHARGES

@<TRIPOS>ATOM
      1 C1         -0.0184    1.5028    0.0103 C.3       1 <0>        -0.1093
      2 C2          0.0021   -0.0041    0.0020 C.ar      1 <0>         0.1646
      3 C3          0.0054   -0.6757   -1.2176 C.ar      1 <0>        -0.1710
      4 C4          0.0244   -2.0416   -1.2430 C.ar      1 <0>        -0.0534
      5 C5          0.0400   -2.7288   -0.0142 C.ar      1 <0>        -0.1192
      6 C6          0.0604   -4.1326    0.0357 C.ar      1 <0>        -0.0616
      7 C7          0.0757   -4.7733    1.2388 C.ar      1 <0>        -0.1340
      8 C8          0.0715   -4.0600    2.4308 C.ar      1 <0>        -0.0576
      9 C9          0.0516   -2.6731    2.4266 C.ar      1 <0>        -0.1184
     10 C10         0.0355   -1.9822    1.1883 C.ar      1 <0>         0.1693
     11 N1          0.0217   -0.6495    1.1445 N.ar      1 <0>        -0.4460
     12 C11         0.0468   -1.9247    3.6970 C.2       1 <0>         0.5568
     13 O1          0.0293   -0.7089    3.6863 O.2       1 <0>        -0.4994
     14 N2          0.0617   -2.5882    4.8700 N.am      1 <0>        -0.8573
     15 H1          1.0042    1.8801    0.0026 H         1 <0>         0.0827
     16 H2         -0.5455    1.8639   -0.8728 H         1 <0>         0.0775
     17 H3         -0.5286    1.8543    0.9071 H         1 <0>         0.0826
     18 H4         -0.0073   -0.1177   -2.1422 H         1 <0>         0.1405
     19 H5          0.0269   -2.5793   -2.1796 H         1 <0>         0.1430
     20 H6          0.0636   -4.7048   -0.8802 H         1 <0>         0.1359
     21 H7          0.0909   -5.8529    1.2657 H         1 <0>         0.1363
     22 H8          0.0835   -4.5912    3.3711 H         1 <0>         0.1347
     23 H9          0.0757   -3.5581    4.8785 H         1 <0>         0.3972
     24 H10         0.0586   -2.0959    5.7058 H         1 <0>         0.4058
@<TRIPOS>BOND
     1    1    2 1
     2    1   15 1
     3    1   16 1
     4    1   17 1
     5    2   11 ar
     6    2    3 ar
     7    3    4 ar
     8    3   18 1
     9    4    5 ar
    10    4   19 1
    11    5   10 ar
    12    5    6 ar
    13    6    7 ar
    14    6   20 1
    15    7    8 ar
    16    7   21 1
    17    8    9 ar
    18    8   22 1
    19    9   10 ar
    20    9   12 1
    21   10   11 ar
    22   12   13 2
    23   12   14 am
    24   14   23 1
    25   14   24 1
