@<TRIPOS>MOLECULE
ZINC18145500
   21    22     0     0     0
SMALL
USER_CHARGES

@<TRIPOS>ATOM
      1 C1         -0.0184    1.5028    0.0103 C.3       1 <0>        -0.1142
      2 C2          0.0021   -0.0041    0.0020 C.2       1 <0>         0.3934
      3 N1         -1.1856   -0.6654    0.0043 N.am      1 <0>        -0.6534
      4 H1         -2.0154   -0.1632    0.0111 H         1 <0>         0.4203
      5 C3         -1.2205   -2.0184   -0.0033 C.2       1 <0>         0.5516
      6 O1         -2.2767   -2.6237   -0.0022 O.2       1 <0>        -0.5075
      7 C4          0.0670   -2.7287   -0.0136 C.ar      1 <0>        -0.1882
      8 C5          0.1405   -4.1208   -0.0224 C.ar      1 <0>        -0.0487
      9 C6          1.3722   -4.7377   -0.0322 C.ar      1 <0>        -0.1213
     10 C7          2.5396   -3.9864   -0.0329 C.ar      1 <0>        -0.0994
     11 C8          2.4912   -2.6060   -0.0243 C.ar      1 <0>         0.1155
     12 C9          1.2492   -1.9575   -0.0147 C.ar      1 <0>         0.1284
     13 N2          1.1530   -0.6046   -0.0122 N.2       1 <0>        -0.5097
     14 O2          3.6410   -1.8815   -0.0256 O.3       1 <0>        -0.4785
     15 H2          1.0042    1.8801    0.0026 H         1 <0>         0.1061
     16 H3         -0.5455    1.8639   -0.8728 H         1 <0>         0.0943
     17 H4         -0.5286    1.8543    0.9071 H         1 <0>         0.0946
     18 H5         -0.7631   -4.7123   -0.0212 H         1 <0>         0.1420
     19 H6          1.4302   -5.8161   -0.0391 H         1 <0>         0.1404
     20 H7          3.4965   -4.4870   -0.0400 H         1 <0>         0.1424
     21 H8          3.9694   -1.6664   -0.9093 H         1 <0>         0.3920
@<TRIPOS>BOND
     1    1    2 1
     2    1   15 1
     3    1   16 1
     4    1   17 1
     5    2   13 2
     6    2    3 1
     7    3    4 1
     8    3    5 am
     9    5    6 2
    10    5    7 1
    11    7   12 ar
    12    7    8 ar
    13    8    9 ar
    14    8   18 1
    15    9   10 ar
    16    9   19 1
    17   10   11 ar
    18   10   20 1
    19   11   12 ar
    20   11   14 1
    21   12   13 1
    22   14   21 1
@<TRIPOS>MOLECULE
ZINC18145500
   20    21     0     0     0
SMALL
USER_CHARGES

@<TRIPOS>ATOM
      1 C1         -0.0184    1.5028    0.0103 C.3       1 <0>        -0.1123
      2 C2          0.0021   -0.0041    0.0020 C.2       1 <0>         0.4190
      3 N1         -1.1725   -0.6571    0.0043 N.pl3     1 <0>        -0.5807
      4 C3         -1.2066   -2.0383   -0.0030 C.ar      1 <0>         0.0115
      5 C4          0.0130   -2.7375   -0.0128 C.ar      1 <0>        -0.1520
      6 C5          0.0192   -4.1308   -0.0200 C.ar      1 <0>        -0.1814
      7 C6         -1.1766   -4.8159   -0.0173 C.ar      1 <0>        -0.0802
      8 C7         -2.3820   -4.1297   -0.0076 C.ar      1 <0>        -0.2427
      9 C8         -2.4059   -2.7465   -0.0004 C.ar      1 <0>         0.2555
     10 O1         -3.5924   -2.0827    0.0095 O.3       1 <0>        -0.7270
     11 C9          1.2585   -1.9494   -0.0148 C.2       1 <0>         0.5298
     12 N2          1.1588   -0.6066   -0.0123 N.2       1 <0>        -0.6293
     13 O2          2.3473   -2.4974   -0.0227 O.2       1 <0>        -0.5273
     14 H1          1.0042    1.8801    0.0026 H         1 <0>         0.0995
     15 H2         -0.5455    1.8639   -0.8728 H         1 <0>         0.0867
     16 H3         -0.5286    1.8543    0.9071 H         1 <0>         0.0868
     17 H4          0.9548   -4.6702   -0.0279 H         1 <0>         0.1142
     18 H5         -1.1751   -5.8959   -0.0231 H         1 <0>         0.1039
     19 H6         -3.3110   -4.6806   -0.0056 H         1 <0>         0.1069
     20 H7         -2.0024   -0.1550    0.0114 H         1 <0>         0.4192
@<TRIPOS>BOND
     1    1    2 1
     2    1   14 1
     3    1   15 1
     4    1   16 1
     5    2   12 2
     6    2    3 1
     7    3    4 1
     8    3   20 1
     9    4    9 ar
    10    4    5 ar
    11    5    6 ar
    12    5   11 1
    13    6    7 ar
    14    6   17 1
    15    7    8 ar
    16    7   18 1
    17    8    9 ar
    18    8   19 1
    19    9   10 1
    20   11   12 1
    21   11   13 2
@<TRIPOS>MOLECULE
ZINC16577257
   30    32     0     0     0
SMALL
USER_CHARGES

@<TRIPOS>ATOM
      1 C1         -0.0127    1.0858    0.0080 C.3       1 <0>        -0.1067
      2 C2         -0.7416    1.5850   -1.2129 C.ar      1 <0>        -0.0750
      3 C3         -2.0909    1.7949   -1.1672 C.ar      1 <0>        -0.0761
      4 C4         -2.7808    2.2546   -2.2816 C.ar      1 <0>        -0.1317
      5 C5         -2.1162    2.5103   -3.4614 C.ar      1 <0>        -0.0470
      6 C6         -0.7398    2.3036   -3.5301 C.ar      1 <0>        -0.1971
      7 C7         -0.0382    1.8403   -2.3937 C.ar      1 <0>         0.1575
      8 N1          1.2937    1.6498   -2.4761 N.2       1 <0>        -0.5080
      9 H1          1.8950    2.5022   -5.5160 H         1 <0>         0.4171
     10 C8          1.9547    1.8873   -3.5797 C.2       1 <0>         0.4407
     11 N2          1.3584    2.3416   -4.7240 N.am      1 <0>        -0.6518
     12 C9          0.0229    2.5589   -4.7608 C.2       1 <0>         0.5533
     13 O1         -0.5239    2.9622   -5.7708 O.2       1 <0>        -0.5090
     14 C10         3.4143    1.6542   -3.5906 C.ar      1 <0>        -0.0753
     15 C11         4.1550    1.9016   -4.7476 C.ar      1 <0>        -0.0941
     16 C12         5.5169    1.6820   -4.7511 C.ar      1 <0>        -0.1201
     17 C13         6.1487    1.2172   -3.6113 C.ar      1 <0>        -0.0905
     18 C14         5.4204    0.9700   -2.4612 C.ar      1 <0>        -0.1244
     19 C15         4.0589    1.1913   -2.4423 C.ar      1 <0>        -0.0528
     20 H2          0.0021   -0.0041    0.0020 H         1 <0>         0.0723
     21 H3          1.0099    1.4631    0.0003 H         1 <0>         0.0779
     22 H4         -0.5229    1.4373    0.9048 H         1 <0>         0.0667
     23 H5         -2.6290    1.6001   -0.2513 H         1 <0>         0.1351
     24 H6         -3.8475    2.4128   -2.2230 H         1 <0>         0.1352
     25 H7         -2.6573    2.8674   -4.3251 H         1 <0>         0.1387
     26 H8          3.6629    2.2638   -5.6382 H         1 <0>         0.1239
     27 H9          6.0912    1.8730   -5.6456 H         1 <0>         0.1327
     28 H10         7.2151    1.0462   -3.6196 H         1 <0>         0.1305
     29 H11         5.9196    0.6069   -1.5750 H         1 <0>         0.1337
     30 H12         3.4923    1.0026   -1.5425 H         1 <0>         0.1443
@<TRIPOS>BOND
     1    1   20 1
     2    1   21 1
     3    1   22 1
     4    1    2 1
     5    2    3 ar
     6    2    7 ar
     7    3    4 ar
     8    3   23 1
     9    4    5 ar
    10    4   24 1
    11    5    6 ar
    12    5   25 1
    13    6   12 1
    14    6    7 ar
    15    7    8 1
    16    8   10 2
    17    9   11 1
    18   10   14 1
    19   10   11 1
    20   11   12 am
    21   12   13 2
    22   14   19 ar
    23   14   15 ar
    24   15   16 ar
    25   15   26 1
    26   16   17 ar
    27   16   27 1
    28   17   18 ar
    29   17   28 1
    30   18   19 ar
    31   18   29 1
    32   19   30 1
@<TRIPOS>MOLECULE
ZINC13782468
   33    35     0     0     0
SMALL
USER_CHARGES
8-methoxy-2-(4-nitrophenyl)-3H-quinazolin-4-one
@<TRIPOS>ATOM
      1 C1         -0.1590    4.0837    0.0247 C.3       1 <0>         0.0205
      2 O1          1.1289    3.4648    0.0095 O.3       1 <0>        -0.2923
      3 C2          1.1605    2.1063    0.0023 C.ar      1 <0>         0.1517
      4 C3         -0.0167    1.3837    0.0096 C.ar      1 <0>        -0.1729
      5 C4          0.0021   -0.0041    0.0020 C.ar      1 <0>        -0.0823
      6 C5          1.1971   -0.6903   -0.0131 C.ar      1 <0>        -0.0805
      7 C6          2.3982    0.0162   -0.0208 C.ar      1 <0>        -0.1525
      8 C7          2.3886    1.4291   -0.0132 C.ar      1 <0>         0.1174
      9 N1          3.5602    2.0952   -0.0213 N.2       1 <0>        -0.4705
     10 C8          4.7074    1.4674   -0.0361 C.2       1 <0>         0.4095
     11 N2          4.8113    0.1025   -0.0449 N.am      1 <0>        -0.6495
     12 H1          5.6872   -0.3142   -0.0558 H         1 <0>         0.4187
     13 C9          3.6994   -0.6689   -0.0375 C.2       1 <0>         0.5564
     14 O2          3.7734   -1.8839   -0.0451 O.2       1 <0>        -0.4995
     15 C10         5.9493    2.2688   -0.0442 C.ar      1 <0>        -0.0113
     16 C11         7.1928    1.6346   -0.0542 C.ar      1 <0>        -0.0978
     17 C12         8.3480    2.3886   -0.0661 C.ar      1 <0>        -0.0520
     18 C13         8.2761    3.7703   -0.0585 C.ar      1 <0>        -0.0257
     19 C14         7.0469    4.4052   -0.0433 C.ar      1 <0>        -0.0547
     20 C15         5.8839    3.6631   -0.0361 C.ar      1 <0>        -0.0566
     21 N3          9.5199    4.5729   -0.0661 N.pl3     1 <0>         0.0226
     22 O3          9.4597    5.7893   -0.0590 O.2       1 <0>        -0.1492
     23 O4         10.6034    4.0168   -0.0795 O.3       1 <0>        -0.1516
     24 H2         -0.7174    3.7825   -0.8616 H         1 <0>         0.0592
     25 H3         -0.7007    3.7734    0.9183 H         1 <0>         0.0592
     26 H4         -0.0414    5.1673    0.0291 H         1 <0>         0.1069
     27 H5         -0.9628    1.9047    0.0170 H         1 <0>         0.1440
     28 H6         -0.9289   -0.5515    0.0076 H         1 <0>         0.1418
     29 H7          1.2027   -1.7703   -0.0193 H         1 <0>         0.1446
     30 H8          7.2503    0.5561   -0.0560 H         1 <0>         0.1488
     31 H9          9.3107    1.8992   -0.0773 H         1 <0>         0.1637
     32 H10         6.9977    5.4840   -0.0374 H         1 <0>         0.1645
     33 H11         4.9250    4.1599   -0.0239 H         1 <0>         0.1697
@<TRIPOS>BOND
     1    1    2 1
     2    1   24 1
     3    1   25 1
     4    1   26 1
     5    2    3 1
     6    3    8 ar
     7    3    4 ar
     8    4    5 ar
     9    4   27 1
    10    5    6 ar
    11    5   28 1
    12    6    7 ar
    13    6   29 1
    14    7   13 1
    15    7    8 ar
    16    8    9 1
    17    9   10 2
    18   10   11 1
    19   10   15 1
    20   11   12 1
    21   11   13 am
    22   13   14 2
    23   15   20 ar
    24   15   16 ar
    25   16   17 ar
    26   16   30 1
    27   17   18 ar
    28   17   31 1
    29   18   19 ar
    30   18   21 1
    31   19   20 ar
    32   19   32 1
    33   20   33 1
    34   21   22 2
    35   21   23 1
@<TRIPOS>MOLECULE
ZINC03803136
   23    24     0     0     0
SMALL
USER_CHARGES
5-methyl-3,4-dihydro-2H-isoquinolin-1-one
@<TRIPOS>ATOM
      1 C1         -0.0623    5.3619    0.0336 C.3       1 <0>        -0.1177
      2 C2         -0.0518    3.8550    0.0242 C.ar      1 <0>        -0.0923
      3 C3          1.1519    3.1704    0.0084 C.ar      1 <0>        -0.0907
      4 C4          1.1715    1.7872    0.0005 C.ar      1 <0>        -0.1268
      5 C5         -0.0126    1.0758    0.0080 C.ar      1 <0>        -0.0610
      6 C6         -1.2247    1.7599    0.0174 C.ar      1 <0>        -0.1362
      7 C7         -1.2392    3.1572    0.0319 C.ar      1 <0>        -0.0527
      8 C8         -2.5608    3.8780    0.0499 C.3       1 <0>        -0.1053
      9 C9         -3.5955    3.0874   -0.7475 C.3       1 <0>         0.1136
     10 N1         -3.6382    1.6934   -0.3144 N.am      1 <0>        -0.7272
     11 C10        -2.5133    1.0345    0.0294 C.2       1 <0>         0.5653
     12 O1         -2.5579   -0.1397    0.3406 O.2       1 <0>        -0.5340
     13 H1         -0.0748    5.7316   -0.9917 H         1 <0>         0.0740
     14 H2         -0.9498    5.7158    0.5582 H         1 <0>         0.0700
     15 H3          0.8300    5.7284    0.5411 H         1 <0>         0.0703
     16 H4          2.0816    3.7200    0.0026 H         1 <0>         0.1288
     17 H5          2.1151    1.2620   -0.0113 H         1 <0>         0.1317
     18 H6          0.0021   -0.0041    0.0020 H         1 <0>         0.1356
     19 H7         -2.9014    3.9839    1.0799 H         1 <0>         0.0886
     20 H8         -2.4402    4.8664   -0.3935 H         1 <0>         0.1000
     21 H9         -4.5780    3.5370   -0.6036 H         1 <0>         0.0913
     22 H10        -3.3366    3.1247   -1.8056 H         1 <0>         0.0684
     23 H11        -4.4911    1.2332   -0.2736 H         1 <0>         0.4061
@<TRIPOS>BOND
     1    1    2 1
     2    1   13 1
     3    1   14 1
     4    1   15 1
     5    2    7 ar
     6    2    3 ar
     7    3    4 ar
     8    3   16 1
     9    4    5 ar
    10    4   17 1
    11    5    6 ar
    12    5   18 1
    13    6   11 1
    14    6    7 ar
    15    7    8 1
    16    8    9 1
    17    8   19 1
    18    8   20 1
    19    9   10 1
    20    9   21 1
    21    9   22 1
    22   10   11 am
    23   10   23 1
    24   11   12 2
@<TRIPOS>MOLECULE
ZINC13864705
   29    31     0     0     0
SMALL
USER_CHARGES

@<TRIPOS>ATOM
      1 C1         -0.0167    1.3826    0.0096 C.ar      1 <0>        -0.0807
      2 C2          1.1608    2.0990    0.0022 C.ar      1 <0>        -0.1811
      3 C3          2.3783    1.4216   -0.0130 C.ar      1 <0>        -0.1516
      4 C4          2.4013    0.0167   -0.0207 C.ar      1 <0>         0.0178
      5 C5          1.2025   -0.6920   -0.0130 C.ar      1 <0>         0.2552
      6 C6          0.0021   -0.0041    0.0020 C.ar      1 <0>        -0.2431
      7 O1          1.2117   -2.0516   -0.0208 O.3       1 <0>        -0.7271
      8 N1          3.6270   -0.6238   -0.0363 N.pl3     1 <0>        -0.5831
      9 C7          4.7793    0.0996   -0.0439 C.2       1 <0>         0.4734
     10 N2          4.7983    1.4159   -0.0370 N.2       1 <0>        -0.6244
     11 C8          3.6677    2.1376   -0.0219 C.2       1 <0>         0.5320
     12 O2          3.7051    3.3565   -0.0154 O.2       1 <0>        -0.5303
     13 C9          6.0643   -0.6230   -0.0600 C.ar      1 <0>        -0.1283
     14 C10         6.0818   -2.0213   -0.0730 C.ar      1 <0>        -0.0414
     15 C11         7.2828   -2.6926   -0.0880 C.ar      1 <0>        -0.2033
     16 C12         8.4797   -1.9814   -0.0902 C.ar      1 <0>         0.2352
     17 C13         8.4658   -0.5894   -0.0773 C.ar      1 <0>        -0.2099
     18 C14         7.2682    0.0883   -0.0681 C.ar      1 <0>         0.0007
     19 N3          9.6919   -2.6632   -0.1049 N.pl3     1 <0>        -0.8725
     20 H1         -0.9616    1.9054    0.0260 H         1 <0>         0.1033
     21 H2          1.1399    3.1788    0.0079 H         1 <0>         0.1141
     22 H3         -0.9286   -0.5519    0.0083 H         1 <0>         0.1065
     23 H4          5.1537   -2.5736   -0.0708 H         1 <0>         0.1271
     24 H5          7.2971   -3.7725   -0.0976 H         1 <0>         0.1259
     25 H6          9.3961   -0.0406   -0.0791 H         1 <0>         0.1258
     26 H7          7.2581    1.1682   -0.0630 H         1 <0>         0.1454
     27 H8          9.7028   -3.6331   -0.1136 H         1 <0>         0.3985
     28 H9         10.5264   -2.1687   -0.1065 H         1 <0>         0.3988
     29 H10         3.6653   -1.5930   -0.0415 H         1 <0>         0.4170
@<TRIPOS>BOND
     1    1    6 ar
     2    1    2 ar
     3    1   20 1
     4    2    3 ar
     5    2   21 1
     6    3   11 1
     7    3    4 ar
     8    4    5 ar
     9    4    8 1
    10    5    6 ar
    11    5    7 1
    12    6   22 1
    13    8    9 1
    14    8   29 1
    15    9   10 2
    16    9   13 1
    17   10   11 1
    18   11   12 2
    19   13   18 ar
    20   13   14 ar
    21   14   15 ar
    22   14   23 1
    23   15   16 ar
    24   15   24 1
    25   16   17 ar
    26   16   19 1
    27   17   18 ar
    28   17   25 1
    29   18   26 1
    30   19   27 1
    31   19   28 1
@<TRIPOS>MOLECULE
ZINC13782466
   31    33     0     0     0
SMALL
USER_CHARGES
8-methoxy-2-phenyl-3H-quinazolin-4-one
@<TRIPOS>ATOM
      1 C1         -0.1590    4.0837    0.0256 C.3       1 <0>         0.0215
      2 O1          1.1289    3.4648    0.0099 O.3       1 <0>        -0.2926
      3 C2          1.1605    2.1063    0.0023 C.ar      1 <0>         0.1425
      4 C3         -0.0167    1.3837    0.0096 C.ar      1 <0>        -0.1714
      5 C4          0.0021   -0.0041    0.0020 C.ar      1 <0>        -0.0926
      6 C5          1.1971   -0.6903   -0.0136 C.ar      1 <0>        -0.0782
      7 C6          2.3982    0.0162   -0.0213 C.ar      1 <0>        -0.1633
      8 C7          2.3886    1.4291   -0.0131 C.ar      1 <0>         0.1299
      9 N1          3.5602    2.0952   -0.0203 N.2       1 <0>        -0.4900
     10 C8          4.7074    1.4674   -0.0347 C.2       1 <0>         0.4291
     11 N2          4.8113    0.1026   -0.0435 N.am      1 <0>        -0.6506
     12 H1          5.6872   -0.3142   -0.0538 H         1 <0>         0.4178
     13 C9          3.6994   -0.6689   -0.0375 C.2       1 <0>         0.5554
     14 O2          3.7734   -1.8839   -0.0447 O.2       1 <0>        -0.5067
     15 C10         5.9493    2.2688   -0.0422 C.ar      1 <0>        -0.0720
     16 C11         7.1928    1.6346   -0.0517 C.ar      1 <0>        -0.0952
     17 C12         8.3480    2.3886   -0.0640 C.ar      1 <0>        -0.1206
     18 C13         8.2761    3.7703   -0.0555 C.ar      1 <0>        -0.0921
     19 C14         7.0469    4.4052   -0.0408 C.ar      1 <0>        -0.1242
     20 C15         5.8839    3.6631   -0.0341 C.ar      1 <0>        -0.0531
     21 H2         -0.7005    3.7731    0.9191 H         1 <0>         0.0576
     22 H3         -0.0413    5.1673    0.0303 H         1 <0>         0.1050
     23 H4         -0.7175    3.7828   -0.8607 H         1 <0>         0.0576
     24 H5         -0.9628    1.9047    0.0170 H         1 <0>         0.1413
     25 H6         -0.9289   -0.5515    0.0080 H         1 <0>         0.1389
     26 H7          1.2027   -1.7703   -0.0195 H         1 <0>         0.1419
     27 H8          7.2503    0.5561   -0.0536 H         1 <0>         0.1237
     28 H9          9.3107    1.8992   -0.0762 H         1 <0>         0.1321
     29 H10         9.1836    4.3559   -0.0606 H         1 <0>         0.1298
     30 H11         6.9977    5.4840   -0.0341 H         1 <0>         0.1330
     31 H12         4.9250    4.1599   -0.0230 H         1 <0>         0.1456
@<TRIPOS>BOND
     1    1    2 1
     2    1   21 1
     3    1   22 1
     4    1   23 1
     5    2    3 1
     6    3    8 ar
     7    3    4 ar
     8    4    5 ar
     9    4   24 1
    10    5    6 ar
    11    5   25 1
    12    6    7 ar
    13    6   26 1
    14    7   13 1
    15    7    8 ar
    16    8    9 1
    17    9   10 2
    18   10   11 1
    19   10   15 1
    20   11   12 1
    21   11   13 am
    22   13   14 2
    23   15   20 ar
    24   15   16 ar
    25   16   17 ar
    26   16   27 1
    27   17   18 ar
    28   17   28 1
    29   18   19 ar
    30   18   29 1
    31   19   20 ar
    32   19   30 1
    33   20   31 1
@<TRIPOS>MOLECULE
ZINC13782477
   28    30     0     0     0
SMALL
USER_CHARGES

@<TRIPOS>ATOM
      1 C1         -0.0167    1.3826    0.0096 C.ar      1 <0>        -0.0785
      2 C2          1.1608    2.0990    0.0022 C.ar      1 <0>        -0.1806
      3 C3          2.3782    1.4217   -0.0130 C.ar      1 <0>        -0.1493
      4 C4          2.4013    0.0167   -0.0207 C.ar      1 <0>         0.0146
      5 C5          1.2025   -0.6921   -0.0130 C.ar      1 <0>         0.2568
      6 C6          0.0021   -0.0041    0.0020 C.ar      1 <0>        -0.2411
      7 O1          1.2116   -2.0516   -0.0205 O.3       1 <0>        -0.7247
      8 N1          3.6269   -0.6237   -0.0363 N.pl3     1 <0>        -0.5775
      9 C7          4.7789    0.0995   -0.0439 C.2       1 <0>         0.4620
     10 N2          4.7983    1.4154   -0.0370 N.2       1 <0>        -0.6182
     11 C8          3.6677    2.1375   -0.0219 C.2       1 <0>         0.5319
     12 O2          3.7053    3.3563   -0.0162 O.2       1 <0>        -0.5253
     13 C9          6.0645   -0.6238   -0.0600 C.ar      1 <0>        -0.0732
     14 C10         6.0822   -2.0214   -0.0730 C.ar      1 <0>        -0.0771
     15 C11         7.2844   -2.6926   -0.0880 C.ar      1 <0>        -0.1482
     16 C12         8.4793   -1.9823   -0.0898 C.ar      1 <0>         0.1229
     17 C13         8.4661   -0.5924   -0.0764 C.ar      1 <0>        -0.1539
     18 C14         7.2683    0.0867   -0.0682 C.ar      1 <0>        -0.0346
     19 O3          9.6621   -2.6478   -0.1041 O.3       1 <0>        -0.4992
     20 H1         -0.9616    1.9054    0.0260 H         1 <0>         0.1047
     21 H2          1.1399    3.1788    0.0079 H         1 <0>         0.1153
     22 H3         -0.9286   -0.5519    0.0079 H         1 <0>         0.1079
     23 H4          5.1543   -2.5741   -0.0709 H         1 <0>         0.1330
     24 H5          7.2991   -3.7725   -0.0980 H         1 <0>         0.1355
     25 H6          9.3967   -0.0444   -0.0772 H         1 <0>         0.1355
     26 H7          7.2589    1.1666   -0.0630 H         1 <0>         0.1513
     27 H8          9.9987   -2.8325   -0.9916 H         1 <0>         0.3921
     28 H9          3.6653   -1.5929   -0.0415 H         1 <0>         0.4180
@<TRIPOS>BOND
     1    1    6 ar
     2    1    2 ar
     3    1   20 1
     4    2    3 ar
     5    2   21 1
     6    3   11 1
     7    3    4 ar
     8    4    5 ar
     9    4    8 1
    10    5    6 ar
    11    5    7 1
    12    6   22 1
    13    8    9 1
    14    8   28 1
    15    9   10 2
    16    9   13 1
    17   10   11 1
    18   11   12 2
    19   13   18 ar
    20   13   14 ar
    21   14   15 ar
    22   14   23 1
    23   15   16 ar
    24   15   24 1
    25   16   17 ar
    26   16   19 1
    27   17   18 ar
    28   17   25 1
    29   18   26 1
    30   19   27 1
@<TRIPOS>MOLECULE
ZINC01546076
   49    51     0     0     0
SMALL
USER_CHARGES
5-[4-(1-piperidyl)butoxy]-3,4-dihydro-2H-isoquinolin-1-one
@<TRIPOS>ATOM
      1 C1          1.1724    1.7861    0.0005 C.ar      1 <0>        -0.0892
      2 C2         -0.0126    1.0758    0.0080 C.ar      1 <0>        -0.0855
      3 C3         -1.2256    1.7587    0.0174 C.ar      1 <0>        -0.0975
      4 C4         -1.2422    3.1554    0.0319 C.ar      1 <0>        -0.0799
      5 C5         -0.0510    3.8567    0.0238 C.ar      1 <0>         0.1184
      6 C6          1.1559    3.1684    0.0079 C.ar      1 <0>        -0.1790
      7 O1         -0.0604    5.2158    0.0318 O.3       1 <0>        -0.3102
      8 C7          1.2083    5.8734    0.0231 C.3       1 <0>         0.0579
      9 C8          0.9974    7.3887    0.0340 C.3       1 <0>        -0.1173
     10 C9          2.3557    8.0928    0.0247 C.3       1 <0>        -0.1477
     11 C10         2.1448    9.6081    0.0356 C.3       1 <0>        -0.0038
     12 C11         4.1872   10.0199    1.2683 C.3       1 <0>        -0.0065
     13 C12         5.5930   10.6157    1.1643 C.3       1 <0>        -0.1474
     14 C13         5.4861   12.1241    0.9231 C.3       1 <0>        -0.1397
     15 C14         4.6718   12.3731   -0.3494 C.3       1 <0>        -0.1479
     16 C15         3.2927   11.7263   -0.2015 C.3       1 <0>        -0.0016
     17 C16        -2.5645    3.8747    0.0494 C.3       1 <0>        -0.0929
     18 C17        -3.5983    3.0827   -0.7478 C.3       1 <0>         0.1120
     19 N1         -3.6391    1.6887   -0.3143 N.am      1 <0>        -0.7250
     20 C18        -2.5134    1.0314    0.0295 C.2       1 <0>         0.5642
     21 O2         -2.5563   -0.1428    0.3407 O.2       1 <0>        -0.5246
     22 H1          2.1152    1.2594   -0.0116 H         1 <0>         0.1369
     23 H2          0.0021   -0.0041    0.0020 H         1 <0>         0.1419
     24 H3          2.0865    3.7165    0.0017 H         1 <0>         0.1306
     25 H4          1.7760    5.5792    0.9058 H         1 <0>         0.0659
     26 H5          1.7585    5.5895   -0.8740 H         1 <0>         0.0663
     27 H6          0.4296    7.6829   -0.8488 H         1 <0>         0.0873
     28 H7          0.4472    7.6725    0.9311 H         1 <0>         0.0870
     29 H8          2.9235    7.7986    0.9075 H         1 <0>         0.0904
     30 H9          2.9060    7.8089   -0.8724 H         1 <0>         0.0906
     31 H10         1.5771    9.9023   -0.8471 H         1 <0>         0.1316
     32 H11         1.5946    9.8919    0.9327 H         1 <0>         0.1331
     33 H12         3.6611   10.4749    2.1075 H         1 <0>         0.1303
     34 H13         4.2596    8.9437    1.4258 H         1 <0>         0.1282
     35 H14         6.1246   10.1512    0.3338 H         1 <0>         0.0871
     36 H15         6.1359   10.4330    2.0916 H         1 <0>         0.1117
     37 H16         6.4843   12.5457    0.8052 H         1 <0>         0.0941
     38 H17         4.9896   12.5952    1.7714 H         1 <0>         0.0818
     39 H18         5.1889   11.9362   -1.2037 H         1 <0>         0.0873
     40 H19         4.5559   13.4460   -0.5032 H         1 <0>         0.1122
     41 H20         2.7155   11.8896   -1.1115 H         1 <0>         0.1283
     42 H21         2.7709   12.1734    0.6447 H         1 <0>         0.1300
     43 H22        -2.9053    3.9807    1.0793 H         1 <0>         0.0876
     44 H23        -2.4448    4.8631   -0.3943 H         1 <0>         0.0995
     45 H24        -4.5813    3.5311   -0.6039 H         1 <0>         0.0935
     46 H25        -3.3395    3.1201   -1.8060 H         1 <0>         0.0690
     47 H26        -4.4914    1.2274   -0.2734 H         1 <0>         0.4093
     48 N2          3.4642   10.2724    0.0036 N.4       1 <0>        -0.3944
     49 H27         4.0119    9.8885   -0.7754 H         1 <0>         0.4262
@<TRIPOS>BOND
     1    1    6 ar
     2    1    2 ar
     3    1   22 1
     4    2    3 ar
     5    2   23 1
     6    3   20 1
     7    3    4 ar
     8    4    5 ar
     9    4   17 1
    10    5    6 ar
    11    5    7 1
    12    6   24 1
    13    7    8 1
    14    8    9 1
    15    8   25 1
    16    8   26 1
    17    9   10 1
    18    9   27 1
    19    9   28 1
    20   10   11 1
    21   10   29 1
    22   10   30 1
    23   11   31 1
    24   11   32 1
    25   11   48 1
    26   12   13 1
    27   12   33 1
    28   12   34 1
    29   12   48 1
    30   13   14 1
    31   13   35 1
    32   13   36 1
    33   14   15 1
    34   14   37 1
    35   14   38 1
    36   15   16 1
    37   15   39 1
    38   15   40 1
    39   16   41 1
    40   16   42 1
    41   16   48 1
    42   17   18 1
    43   17   43 1
    44   17   44 1
    45   18   19 1
    46   18   45 1
    47   18   46 1
    48   19   20 am
    49   19   47 1
    50   20   21 2
    51   48   49 1
@<TRIPOS>MOLECULE
ZINC08671637
   31    33     0     0     0
SMALL
USER_CHARGES

@<TRIPOS>ATOM
      1 C1         -0.7036   -0.0143    1.3571 C.ar      1 <0>        -0.0801
      2 C2         -0.1236   -0.5264    2.5042 C.ar      1 <0>        -0.1304
      3 C3          1.1061   -1.1482    2.4406 C.ar      1 <0>        -0.0530
      4 C4          1.7657   -1.2602    1.2149 C.ar      1 <0>        -0.1271
      5 C5          1.1746   -0.7411    0.0612 C.ar      1 <0>        -0.0616
      6 C6         -0.0555   -0.1217    0.1393 C.ar      1 <0>        -0.1323
      7 C7          3.0829   -1.9243    1.1391 C.2       1 <0>         0.5049
      8 O1          3.5948   -2.3746    2.1446 O.2       1 <0>        -0.4823
      9 O2          3.7165   -2.0306   -0.0449 O.3       1 <0>        -0.2849
     10 C8          4.9703   -2.5542   -0.0527 C.ar      1 <0>         0.0738
     11 C9          6.0733   -1.7230    0.0054 C.ar      1 <0>        -0.0773
     12 C10         7.3577   -2.2492   -0.0020 C.ar      1 <0>        -0.1249
     13 C11         7.5623   -3.6099   -0.0674 C.ar      1 <0>        -0.0387
     14 C12         6.4664   -4.4706   -0.1264 C.ar      1 <0>        -0.1452
     15 C13         5.1562   -3.9405   -0.1138 C.ar      1 <0>         0.0086
     16 C14         4.0285   -4.8712   -0.1715 C.2       1 <0>        -0.2030
     17 C15         4.2650   -6.1920   -0.2289 C.2       1 <0>         0.1222
     18 N1          5.5292   -6.7093   -0.2354 N.am      1 <0>        -0.6321
     19 C16         6.6264   -5.9274   -0.1977 C.2       1 <0>         0.5500
     20 O3          7.7380   -6.4252   -0.2071 O.2       1 <0>        -0.5210
     21 H1         -1.6685    0.4676    1.4118 H         1 <0>         0.1320
     22 H2         -0.6346   -0.4389    3.4516 H         1 <0>         0.1353
     23 H3          1.5579   -1.5473    3.3367 H         1 <0>         0.1387
     24 H4          1.6795   -0.8239   -0.8899 H         1 <0>         0.1399
     25 H5         -0.5139    0.2802   -0.7522 H         1 <0>         0.1343
     26 H6          5.9344   -0.6532    0.0568 H         1 <0>         0.1387
     27 H7          8.2070   -1.5837    0.0436 H         1 <0>         0.1426
     28 H8          8.5662   -4.0082   -0.0733 H         1 <0>         0.1454
     29 H9          3.0146   -4.4991   -0.1676 H         1 <0>         0.1445
     30 H10         3.4251   -6.8697   -0.2712 H         1 <0>         0.1648
     31 H11         5.6412   -7.6718   -0.2777 H         1 <0>         0.4180
@<TRIPOS>BOND
     1    1    6 ar
     2    1    2 ar
     3    1   21 1
     4    2    3 ar
     5    2   22 1
     6    3    4 ar
     7    3   23 1
     8    4    5 ar
     9    4    7 1
    10    5    6 ar
    11    5   24 1
    12    6   25 1
    13    7    8 2
    14    7    9 1
    15    9   10 1
    16   10   15 ar
    17   10   11 ar
    18   11   12 ar
    19   11   26 1
    20   12   13 ar
    21   12   27 1
    22   13   14 ar
    23   13   28 1
    24   14   19 1
    25   14   15 ar
    26   15   16 1
    27   16   17 2
    28   16   29 1
    29   17   18 1
    30   17   30 1
    31   18   19 am
    32   18   31 1
    33   19   20 2
@<TRIPOS>MOLECULE
ZINC00020439
   29    31     0     0     0
SMALL
USER_CHARGES

@<TRIPOS>ATOM
      1 C1         -0.0168    1.3871    0.0097 C.ar      1 <0>        -0.1691
      2 C2          1.1427    2.1052    0.0025 C.ar      1 <0>        -0.0351
      3 C3          2.3732    1.4386   -0.0128 C.ar      1 <0>        -0.2158
      4 C4          2.4059    0.0223   -0.0207 C.ar      1 <0>         0.1697
      5 C5          1.1946   -0.6937   -0.0130 C.ar      1 <0>         0.0792
      6 C6          0.0021   -0.0041    0.0020 C.ar      1 <0>        -0.1086
      7 O1          1.2011   -2.0524   -0.0199 O.3       1 <0>        -0.4832
      8 N1          3.5932   -0.5962   -0.0348 N.ar      1 <0>        -0.5818
      9 C7          4.7109    0.1051   -0.0413 C.ar      1 <0>         0.3812
     10 N2          4.7245    1.4376   -0.0343 N.ar      1 <0>        -0.6247
     11 C8          3.6039    2.1384   -0.0203 C.ar      1 <0>         0.4716
     12 O2          3.6323    3.4911   -0.0138 O.3       1 <0>        -0.6593
     13 C9          6.0046   -0.6192   -0.0564 C.ar      1 <0>         0.0389
     14 C10         6.0261   -2.0129   -0.0694 C.ar      1 <0>        -0.0794
     15 C11         7.2332   -2.6816   -0.0834 C.ar      1 <0>        -0.0669
     16 C12         8.4203   -1.9715   -0.0842 C.ar      1 <0>        -0.0529
     17 C13         8.4052   -0.5884   -0.0709 C.ar      1 <0>        -0.0657
     18 C14         7.2040    0.0911   -0.0636 C.ar      1 <0>        -0.0758
     19 N3          9.7119   -2.6945   -0.0988 N.pl3     1 <0>         0.0392
     20 O3          9.7278   -3.9034   -0.1100 O.2       1 <0>        -0.1695
     21 O4         10.7508   -2.0762   -0.0995 O.3       1 <0>        -0.1684
     22 H1         -0.9638    1.9061    0.0260 H         1 <0>         0.1195
     23 H2          1.1114    3.1848    0.0081 H         1 <0>         0.1281
     24 H3         -0.9297   -0.5501    0.0083 H         1 <0>         0.1235
     25 H4          5.0998   -2.5684   -0.0680 H         1 <0>         0.1607
     26 H5          7.2511   -3.7614   -0.0934 H         1 <0>         0.1520
     27 H6          9.3351   -0.0391   -0.0713 H         1 <0>         0.1527
     28 H7          7.1933    1.1711   -0.0581 H         1 <0>         0.1631
     29 H8          1.2112   -2.4502    0.8615 H         1 <0>         0.3769
@<TRIPOS>BOND
     1    1    6 ar
     2    1    2 ar
     3    1   22 1
     4    2    3 ar
     5    2   23 1
     6    3   11 ar
     7    3    4 ar
     8    4    5 ar
     9    4    8 ar
    10    5    6 ar
    11    5    7 1
    12    6   24 1
    13    7   29 1
    14    8    9 ar
    15    9   10 ar
    16    9   13 1
    17   10   11 ar
    18   11   12 1
    19   13   18 ar
    20   13   14 ar
    21   14   15 ar
    22   14   25 1
    23   15   16 ar
    24   15   26 1
    25   16   17 ar
    26   16   19 1
    27   17   18 ar
    28   17   27 1
    29   18   28 1
    30   19   20 2
    31   19   21 1
@<TRIPOS>MOLECULE
ZINC00020439
   29    31     0     0     0
SMALL
USER_CHARGES

@<TRIPOS>ATOM
      1 C1         -0.0167    1.3837    0.0096 C.ar      1 <0>        -0.0576
      2 C2          1.1591    2.1024    0.0023 C.ar      1 <0>        -0.1870
      3 C3          2.3791    1.4290   -0.0130 C.ar      1 <0>        -0.1161
      4 C4          2.4078    0.0163   -0.0209 C.ar      1 <0>        -0.0236
      5 C5          1.1986   -0.6942   -0.0137 C.ar      1 <0>         0.3062
      6 C6          0.0021   -0.0041    0.0020 C.ar      1 <0>        -0.2393
      7 O1          1.2040   -2.0531   -0.0212 O.3       1 <0>        -0.6679
      8 N1          3.5969   -0.6178   -0.0346 N.2       1 <0>        -0.3899
      9 C7          4.7267    0.0409   -0.0409 C.2       1 <0>         0.2711
     10 N2          4.7937    1.4080   -0.0337 N.am      1 <0>        -0.6482
     11 C8          3.6612    2.1491   -0.0203 C.2       1 <0>         0.5479
     12 O2          3.7025    3.3657   -0.0145 O.2       1 <0>        -0.5415
     13 C9          5.9899   -0.7265   -0.0561 C.ar      1 <0>         0.0411
     14 C10         7.2157   -0.0589   -0.0573 C.ar      1 <0>        -0.1240
     15 C11         8.3910   -0.7812   -0.0710 C.ar      1 <0>        -0.0484
     16 C12         8.3565   -2.1643   -0.0835 C.ar      1 <0>        -0.0617
     17 C13         7.1448   -2.8323   -0.0823 C.ar      1 <0>        -0.0494
     18 C14         5.9622   -2.1221   -0.0633 C.ar      1 <0>        -0.0801
     19 N3          9.6214   -2.9328   -0.0986 N.pl3     1 <0>         0.0395
     20 O3         10.6817   -2.3519   -0.1000 O.2       1 <0>        -0.1699
     21 O4          9.5944   -4.1415   -0.1095 O.3       1 <0>        -0.1651
     22 H1         -0.9622    1.9055    0.0260 H         1 <0>         0.1110
     23 H2          1.1353    3.1821    0.0080 H         1 <0>         0.1166
     24 H3         -0.9294   -0.5506    0.0083 H         1 <0>         0.1134
     25 H4          7.2441    1.0207   -0.0480 H         1 <0>         0.1428
     26 H5          9.3401   -0.2659   -0.0723 H         1 <0>         0.1538
     27 H6          7.1247   -3.9120   -0.0924 H         1 <0>         0.1563
     28 H7          5.0171   -2.6447   -0.0579 H         1 <0>         0.1683
     29 H8          5.6579    1.8484   -0.0383 H         1 <0>         0.4019
@<TRIPOS>BOND
     1    1    6 ar
     2    1    2 ar
     3    1   22 1
     4    2    3 ar
     5    2   23 1
     6    3   11 1
     7    3    4 ar
     8    4    5 ar
     9    4    8 1
    10    5    6 ar
    11    5    7 1
    12    6   24 1
    13    8    9 2
    14    9   10 1
    15    9   13 1
    16   10   11 am
    17   10   29 1
    18   11   12 2
    19   13   18 ar
    20   13   14 ar
    21   14   15 ar
    22   14   25 1
    23   15   16 ar
    24   15   26 1
    25   16   17 ar
    26   16   19 1
    27   17   18 ar
    28   17   27 1
    29   18   28 1
    30   19   20 2
    31   19   21 1
@<TRIPOS>MOLECULE
ZINC00020439
   29    31     0     0     0
SMALL
USER_CHARGES

@<TRIPOS>ATOM
      1 C1         -0.0167    1.3827    0.0096 C.ar      1 <0>        -0.0749
      2 C2          1.1607    2.0991    0.0022 C.ar      1 <0>        -0.1793
      3 C3          2.3782    1.4218   -0.0130 C.ar      1 <0>        -0.1457
      4 C4          2.4013    0.0166   -0.0208 C.ar      1 <0>         0.0102
      5 C5          1.2023   -0.6921   -0.0132 C.ar      1 <0>         0.2592
      6 C6          0.0021   -0.0041    0.0020 C.ar      1 <0>        -0.2374
      7 O1          1.2114   -2.0517   -0.0207 O.3       1 <0>        -0.7204
      8 N1          3.6267   -0.6234   -0.0365 N.pl3     1 <0>        -0.5687
      9 C7          4.7780    0.0991   -0.0436 C.2       1 <0>         0.4457
     10 N2          4.7983    1.4139   -0.0363 N.2       1 <0>        -0.6096
     11 C8          3.6677    2.1372   -0.0220 C.2       1 <0>         0.5322
     12 O2          3.7059    3.3559   -0.0162 O.2       1 <0>        -0.5173
     13 C9          6.0652   -0.6258   -0.0599 C.ar      1 <0>        -0.0037
     14 C10         6.0837   -2.0220   -0.0734 C.ar      1 <0>        -0.0980
     15 C11         7.2891   -2.6925   -0.0885 C.ar      1 <0>        -0.0538
     16 C12         8.4781   -1.9847   -0.0898 C.ar      1 <0>        -0.0391
     17 C13         8.4670   -0.6011   -0.0765 C.ar      1 <0>        -0.0596
     18 C14         7.2687    0.0821   -0.0676 C.ar      1 <0>        -0.0548
     19 N3          9.7678   -2.7110   -0.1051 N.pl3     1 <0>         0.0342
     20 O3          9.7806   -3.9199   -0.1163 O.2       1 <0>        -0.1591
     21 O4         10.8083   -2.0954   -0.1063 O.3       1 <0>        -0.1579
     22 H1         -0.9617    1.9055    0.0260 H         1 <0>         0.1070
     23 H2          1.1397    3.1789    0.0079 H         1 <0>         0.1172
     24 H3         -0.9287   -0.5519    0.0083 H         1 <0>         0.1102
     25 H4          5.1564   -2.5756   -0.0716 H         1 <0>         0.1524
     26 H5          7.3049   -3.7723   -0.0989 H         1 <0>         0.1606
     27 H6          9.3987   -0.0548   -0.0776 H         1 <0>         0.1606
     28 H7          7.2615    1.1621   -0.0617 H         1 <0>         0.1704
     29 H8          3.6650   -1.5926   -0.0421 H         1 <0>         0.4190
@<TRIPOS>BOND
     1    1    6 ar
     2    1    2 ar
     3    1   22 1
     4    2    3 ar
     5    2   23 1
     6    3   11 1
     7    3    4 ar
     8    4    5 ar
     9    4    8 1
    10    5    6 ar
    11    5    7 1
    12    6   24 1
    13    8    9 1
    14    8   29 1
    15    9   10 2
    16    9   13 1
    17   10   11 1
    18   11   12 2
    19   13   18 ar
    20   13   14 ar
    21   14   15 ar
    22   14   25 1
    23   15   16 ar
    24   15   26 1
    25   16   17 ar
    26   16   19 1
    27   17   18 ar
    28   17   27 1
    29   18   28 1
    30   19   20 2
    31   19   21 1
@<TRIPOS>MOLECULE
ZINC13782471
   32    34     0     0     0
SMALL
USER_CHARGES
4-(8-methoxy-4-oxo-3H-quinazolin-2-yl)benzonitrile
@<TRIPOS>ATOM
      1 C1         -0.1587    4.0836    0.0247 C.3       1 <0>         0.0211
      2 O1          1.1292    3.4646    0.0095 O.3       1 <0>        -0.2920
      3 C2          1.1607    2.1062    0.0023 C.ar      1 <0>         0.1465
      4 C3         -0.0167    1.3835    0.0096 C.ar      1 <0>        -0.1724
      5 C4          0.0021   -0.0041    0.0020 C.ar      1 <0>        -0.0883
      6 C5          1.1973   -0.6905   -0.0131 C.ar      1 <0>        -0.0796
      7 C6          2.3983    0.0157   -0.0208 C.ar      1 <0>        -0.1583
      8 C7          2.3889    1.4288   -0.0132 C.ar      1 <0>         0.1249
      9 N1          3.5602    2.0946   -0.0213 N.2       1 <0>        -0.4810
     10 C8          4.7074    1.4669   -0.0361 C.2       1 <0>         0.4197
     11 N2          4.8115    0.1017   -0.0449 N.am      1 <0>        -0.6501
     12 H1          5.6873   -0.3150   -0.0562 H         1 <0>         0.4185
     13 C9          3.6995   -0.6697   -0.0375 C.2       1 <0>         0.5559
     14 O2          3.7734   -1.8847   -0.0443 O.2       1 <0>        -0.5038
     15 C10         5.9489    2.2682   -0.0442 C.ar      1 <0>        -0.0389
     16 C11         7.1918    1.6304   -0.0542 C.ar      1 <0>        -0.0964
     17 C12         8.3484    2.3767   -0.0667 C.ar      1 <0>        -0.0698
     18 C13         8.2793    3.7724   -0.0581 C.ar      1 <0>        -0.0009
     19 C14         7.0361    4.4101   -0.0427 C.ar      1 <0>        -0.0728
     20 C15         5.8797    3.6635   -0.0361 C.ar      1 <0>        -0.0549
     21 C16         9.4825    4.5489   -0.0646 C.1       1 <0>         0.2455
     22 N3         10.4369    5.1649   -0.0697 N.1       1 <0>        -0.4003
     23 H2         -0.7171    3.7824   -0.8616 H         1 <0>         0.0581
     24 H3         -0.7004    3.7733    0.9182 H         1 <0>         0.0581
     25 H4         -0.0410    5.1672    0.0291 H         1 <0>         0.1057
     26 H5         -0.9628    1.9045    0.0169 H         1 <0>         0.1420
     27 H6         -0.9289   -0.5515    0.0076 H         1 <0>         0.1396
     28 H7          1.2027   -1.7705   -0.0193 H         1 <0>         0.1428
     29 H8          7.2451    0.5517   -0.0560 H         1 <0>         0.1358
     30 H9          9.3092    1.8835   -0.0786 H         1 <0>         0.1436
     31 H10         6.9825    5.4888   -0.0365 H         1 <0>         0.1443
     32 H11         4.9188    4.1564   -0.0242 H         1 <0>         0.1574
@<TRIPOS>BOND
     1    1    2 1
     2    1   23 1
     3    1   24 1
     4    1   25 1
     5    2    3 1
     6    3    8 ar
     7    3    4 ar
     8    4    5 ar
     9    4   26 1
    10    5    6 ar
    11    5   27 1
    12    6    7 ar
    13    6   28 1
    14    7   13 1
    15    7    8 ar
    16    8    9 1
    17    9   10 2
    18   10   11 1
    19   10   15 1
    20   11   12 1
    21   11   13 am
    22   13   14 2
    23   15   20 ar
    24   15   16 ar
    25   16   17 ar
    26   16   29 1
    27   17   18 ar
    28   17   30 1
    29   18   19 ar
    30   18   21 1
    31   19   20 ar
    32   19   31 1
    33   20   32 1
    34   21   22 3
@<TRIPOS>MOLECULE
ZINC13782473
   35    37     0     0     0
SMALL
USER_CHARGES
8-methoxy-2-(4-methoxyphenyl)-3H-quinazolin-4-one
@<TRIPOS>ATOM
      1 C1         10.6531    3.7877   -0.0837 C.3       1 <0>         0.0230
      2 O1          9.4178    4.5059   -0.0670 O.3       1 <0>        -0.3111
      3 C2          8.2769    3.7699   -0.0599 C.ar      1 <0>         0.1575
      4 C3          7.0419    4.4064   -0.0437 C.ar      1 <0>        -0.1572
      5 C4          5.8820    3.6633   -0.0361 C.ar      1 <0>        -0.0107
      6 C5          5.9486    2.2679   -0.0446 C.ar      1 <0>        -0.1128
      7 C6          7.1924    1.6318   -0.0551 C.ar      1 <0>        -0.0505
      8 C7          8.3475    2.3823   -0.0685 C.ar      1 <0>        -0.2114
      9 C8          4.7079    1.4675   -0.0366 C.2       1 <0>         0.4365
     10 N1          4.8114    0.1023   -0.0458 N.am      1 <0>        -0.6517
     11 H1          5.6870   -0.3148   -0.0574 H         1 <0>         0.4168
     12 C9          3.6990   -0.6686   -0.0384 C.2       1 <0>         0.5557
     13 O2          3.7727   -1.8836   -0.0456 O.2       1 <0>        -0.5079
     14 C10         2.3983    0.0168   -0.0213 C.ar      1 <0>        -0.1659
     15 C11         1.1966   -0.6901   -0.0136 C.ar      1 <0>        -0.0777
     16 C12         0.0021   -0.0041    0.0020 C.ar      1 <0>        -0.0947
     17 C13        -0.0168    1.3843    0.0097 C.ar      1 <0>        -0.1710
     18 C14         1.1600    2.1066    0.0023 C.ar      1 <0>         0.1407
     19 C15         2.3886    1.4293   -0.0132 C.ar      1 <0>         0.1339
     20 N2          3.5598    2.0957   -0.0213 N.2       1 <0>        -0.4946
     21 O3          1.1283    3.4652    0.0095 O.3       1 <0>        -0.2925
     22 C16        -0.1596    4.0840    0.0247 C.3       1 <0>         0.0216
     23 H2         10.7178    3.1555    0.8019 H         1 <0>         0.0595
     24 H3         10.6999    3.1662   -0.9779 H         1 <0>         0.0595
     25 H4         11.4837    4.4935   -0.0878 H         1 <0>         0.1045
     26 H5          6.9912    5.4852   -0.0374 H         1 <0>         0.1421
     27 H6          4.9224    4.1588   -0.0231 H         1 <0>         0.1536
     28 H7          7.2481    0.5533   -0.0573 H         1 <0>         0.1271
     29 H8          9.3094    1.8913   -0.0811 H         1 <0>         0.1380
     30 H9          1.2021   -1.7700   -0.0201 H         1 <0>         0.1413
     31 H10        -0.9289   -0.5515    0.0080 H         1 <0>         0.1382
     32 H11        -0.9628    1.9053    0.0170 H         1 <0>         0.1408
     33 H12        -0.7180    3.7828   -0.8616 H         1 <0>         0.0572
     34 H13        -0.7013    3.7737    0.9183 H         1 <0>         0.0573
     35 H14        -0.0421    5.1677    0.0291 H         1 <0>         0.1048
@<TRIPOS>BOND
     1    1    2 1
     2    1   23 1
     3    1   24 1
     4    1   25 1
     5    2    3 1
     6    3    8 ar
     7    3    4 ar
     8    4    5 ar
     9    4   26 1
    10    5    6 ar
    11    5   27 1
    12    6    7 ar
    13    6    9 1
    14    7    8 ar
    15    7   28 1
    16    8   29 1
    17    9   20 2
    18    9   10 1
    19   10   11 1
    20   10   12 am
    21   12   13 2
    22   12   14 1
    23   14   19 ar
    24   14   15 ar
    25   15   16 ar
    26   15   30 1
    27   16   17 ar
    28   16   31 1
    29   17   18 ar
    30   17   32 1
    31   18   19 ar
    32   18   21 1
    33   19   20 1
    34   21   22 1
    35   22   33 1
    36   22   34 1
    37   22   35 1
@<TRIPOS>MOLECULE
ZINC00020441
   27    29     0     0     0
SMALL
USER_CHARGES

@<TRIPOS>ATOM
      1 C1         -0.0167    1.3795    0.0096 C.ar      1 <0>        -0.1014
      2 C2          1.1683    2.0939    0.0021 C.ar      1 <0>        -0.1301
      3 C3          2.3774    1.4301   -0.0130 C.ar      1 <0>        -0.0523
      4 C4          2.4037    0.0340   -0.0208 C.ar      1 <0>        -0.0647
      5 C5          1.2041   -0.6806   -0.0131 C.ar      1 <0>        -0.0949
      6 C6          0.0021   -0.0041    0.0020 C.ar      1 <0>        -0.1242
      7 C7          3.6949   -0.6838   -0.0374 C.2       1 <0>         0.4615
      8 N1          3.6814   -2.0429   -0.0501 N.pl3     1 <0>        -0.5777
      9 C8          4.8679   -2.7525   -0.0659 C.ar      1 <0>         0.0149
     10 C9          6.0776   -2.0371   -0.0685 C.ar      1 <0>        -0.1499
     11 C10         7.2917   -2.7204   -0.0838 C.ar      1 <0>        -0.1806
     12 C11         7.2971   -4.0986   -0.0963 C.ar      1 <0>        -0.0788
     13 C12         6.1054   -4.8079   -0.0943 C.ar      1 <0>        -0.2413
     14 C13         4.8911   -4.1450   -0.0787 C.ar      1 <0>         0.2565
     15 O1          3.7276   -4.8485   -0.0759 O.3       1 <0>        -0.7249
     16 C14         6.0127   -0.5639   -0.0541 C.2       1 <0>         0.5317
     17 N2          4.8048    0.0213   -0.0447 N.2       1 <0>        -0.6184
     18 O2          7.0315    0.1062   -0.0557 O.2       1 <0>        -0.5258
     19 H1         -0.9605    1.9042    0.0260 H         1 <0>         0.1244
     20 H2          1.1465    3.1736    0.0078 H         1 <0>         0.1285
     21 H3          3.3016    1.9889   -0.0192 H         1 <0>         0.1456
     22 H4          1.2173   -1.7605   -0.0194 H         1 <0>         0.1275
     23 H5         -0.9265   -0.5555    0.0079 H         1 <0>         0.1285
     24 H6          8.2230   -2.1734   -0.0862 H         1 <0>         0.1152
     25 H7          8.2370   -4.6304   -0.1082 H         1 <0>         0.1046
     26 H8          6.1254   -5.8877   -0.1046 H         1 <0>         0.1078
     27 H9          2.8353   -2.5172   -0.0478 H         1 <0>         0.4181
@<TRIPOS>BOND
     1    1    6 ar
     2    1    2 ar
     3    1   19 1
     4    2    3 ar
     5    2   20 1
     6    3    4 ar
     7    3   21 1
     8    4    5 ar
     9    4    7 1
    10    5    6 ar
    11    5   22 1
    12    6   23 1
    13    7   17 2
    14    7    8 1
    15    8    9 1
    16    8   27 1
    17    9   14 ar
    18    9   10 ar
    19   10   11 ar
    20   10   16 1
    21   11   12 ar
    22   11   24 1
    23   12   13 ar
    24   12   25 1
    25   13   14 ar
    26   13   26 1
    27   14   15 1
    28   16   17 1
    29   16   18 2
@<TRIPOS>MOLECULE
ZINC03871459
   20    21     0     0     0
SMALL
USER_CHARGES

@<TRIPOS>ATOM
      1 C1         -0.0167    1.3834    0.0096 C.ar      1 <0>        -0.0838
      2 C2          1.1565    2.1055    0.0023 C.ar      1 <0>        -0.1078
      3 C3          2.3801    1.4358   -0.0129 C.ar      1 <0>        -0.1081
      4 C4          2.4069    0.0230   -0.0207 C.ar      1 <0>        -0.0696
      5 C5          3.7068   -0.6484   -0.0372 C.2       1 <0>        -0.1913
      6 C6          4.8300    0.0878   -0.0445 C.2       1 <0>         0.0974
      7 N1          4.8093    1.4540   -0.0365 N.am      1 <0>        -0.6327
      8 H1          5.6514    1.9353   -0.0420 H         1 <0>         0.4145
      9 C7          3.6587    2.1556   -0.0217 C.2       1 <0>         0.5453
     10 O1          3.6799    3.3734   -0.0158 O.2       1 <0>        -0.5267
     11 C8          1.2022   -0.6935   -0.0130 C.ar      1 <0>         0.2138
     12 C9          0.0021   -0.0041    0.0020 C.ar      1 <0>        -0.1701
     13 N2          1.2127   -2.0889   -0.0210 N.pl3     1 <0>        -0.8717
     14 H2         -0.9630    1.9038    0.0260 H         1 <0>         0.1307
     15 H3          1.1290    3.1852    0.0080 H         1 <0>         0.1346
     16 H4          3.7625   -1.7270   -0.0432 H         1 <0>         0.1395
     17 H5          5.7840   -0.4183   -0.0566 H         1 <0>         0.1584
     18 H6         -0.9289   -0.5514    0.0079 H         1 <0>         0.1269
     19 H7          2.0563   -2.5675   -0.0319 H         1 <0>         0.3991
     20 H8          0.3763   -2.5802   -0.0156 H         1 <0>         0.4016
@<TRIPOS>BOND
     1    1   12 ar
     2    1    2 ar
     3    1   14 1
     4    2    3 ar
     5    2   15 1
     6    3    9 1
     7    3    4 ar
     8    4    5 1
     9    4   11 ar
    10    5    6 2
    11    5   16 1
    12    6    7 1
    13    6   17 1
    14    7    8 1
    15    7    9 am
    16    9   10 2
    17   11   12 ar
    18   11   13 1
    19   12   18 1
    20   13   19 1
    21   13   20 1
