@<TRIPOS>MOLECULE
ZINC15804848
   60    63     0     0     0
SMALL
USER_CHARGES

@<TRIPOS>ATOM
      1 C1          0.7885    0.7681    0.1686 C.3       1 <0>        -0.1514
      2 C2          0.6896   -0.7514    0.0193 C.3       1 <0>        -0.1184
      3 C3          1.2603   -1.1687   -1.3375 C.3       1 <0>        -0.1329
      4 C4          1.1614   -2.6882   -1.4869 C.3       1 <0>         0.1207
      5 N1          1.7080   -3.0878   -2.7861 N.am      1 <0>        -0.5071
      6 C5          0.8797   -3.1516   -3.8949 C.2       1 <0>         0.3281
      7 C6          1.4217   -3.5332   -5.1157 C.2       1 <0>        -0.1557
      8 C7          2.7966   -3.8438   -5.1907 C.2       1 <0>         0.5964
      9 O1          3.2953   -4.1805   -6.2496 O.2       1 <0>        -0.5132
     10 N2          3.5520   -3.7631   -4.0756 N.am      1 <0>        -0.5463
     11 C8          3.0155   -3.3871   -2.9019 C.2       1 <0>         0.7004
     12 O2          3.7281   -3.3202   -1.9188 O.2       1 <0>        -0.5110
     13 C9          4.9797   -4.0841   -4.1465 C.3       1 <0>         0.1601
     14 C10         5.7601   -2.8353   -4.4663 C.ar      1 <0>        -0.1587
     15 C11         6.1818   -2.5960   -5.7607 C.ar      1 <0>        -0.0623
     16 C12         6.8976   -1.4507   -6.0544 C.ar      1 <0>        -0.1389
     17 C13         7.1928   -0.5430   -5.0540 C.ar      1 <0>        -0.0788
     18 C14         6.7720   -0.7799   -3.7594 C.ar      1 <0>        -0.1648
     19 C15         6.0502   -1.9245   -3.4649 C.ar      1 <0>         0.1226
     20 F1          5.6341   -2.1548   -2.2004 F         1 <0>        -0.1124
     21 N3          0.3827   -3.5083   -6.0244 N.pl3     1 <0>        -0.5144
     22 H1          0.4362   -3.7256   -6.9682 H         1 <0>         0.4352
     23 C16        -0.7199   -3.1258   -5.3513 C.2       1 <0>         0.3017
     24 N4         -0.4197   -2.9168   -4.0947 N.2       1 <0>        -0.4827
     25 C17        -2.0914   -2.9626   -5.9542 C.3       1 <0>         0.0023
     26 C18        -3.0808   -3.8006   -5.1863 C.ar      1 <0>        -0.1029
     27 C19        -3.3169   -5.1094   -5.5649 C.ar      1 <0>        -0.0885
     28 C20        -4.2231   -5.8801   -4.8631 C.ar      1 <0>        -0.1227
     29 C21        -4.8971   -5.3393   -3.7760 C.ar      1 <0>         0.1517
     30 C22        -4.6574   -4.0247   -3.3981 C.ar      1 <0>        -0.1462
     31 C23        -3.7464   -3.2608   -4.1010 C.ar      1 <0>        -0.0669
     32 N5         -5.8161   -6.1173   -3.0632 N.am      1 <0>        -0.6775
     33 C24        -5.6135   -7.4426   -2.9257 C.2       1 <0>         0.5098
     34 O3         -4.5888   -7.9453   -3.3360 O.2       1 <0>        -0.5228
     35 C25        -6.6602   -8.3000   -2.2620 C.3       1 <0>        -0.1746
     36 H2          1.8332    1.0722    0.1049 H         1 <0>         0.0538
     37 H3          0.2208    1.2492   -0.6279 H         1 <0>         0.0535
     38 H4          0.3818    1.0654    1.1353 H         1 <0>         0.0562
     39 H5          1.2572   -1.2325    0.8158 H         1 <0>         0.0657
     40 H6         -0.3552   -1.0555    0.0830 H         1 <0>         0.0654
     41 H7          0.6927   -0.6876   -2.1340 H         1 <0>         0.0674
     42 H8          2.3051   -0.8646   -1.4013 H         1 <0>         0.0681
     43 H9          1.7291   -3.1693   -0.6904 H         1 <0>         0.0995
     44 H10         0.1166   -2.9923   -1.4232 H         1 <0>         0.0975
     45 H11         5.3103   -4.4836   -3.1877 H         1 <0>         0.1141
     46 H12         5.1468   -4.8268   -4.9266 H         1 <0>         0.1147
     47 H13         5.9521   -3.3045   -6.5429 H         1 <0>         0.1375
     48 H14         7.2270   -1.2648   -7.0660 H         1 <0>         0.1315
     49 H15         7.7528    0.3512   -5.2845 H         1 <0>         0.1336
     50 H16         7.0029   -0.0709   -2.9780 H         1 <0>         0.1364
     51 H17        -2.3874   -1.9147   -5.9052 H         1 <0>         0.1145
     52 H18        -2.0716   -3.2862   -6.9949 H         1 <0>         0.1005
     53 H19        -2.7924   -5.5294   -6.4104 H         1 <0>         0.1238
     54 H20        -4.4076   -6.9020   -5.1597 H         1 <0>         0.1338
     55 H21        -5.1802   -3.6012   -2.5533 H         1 <0>         0.1275
     56 H22        -3.5565   -2.2397   -3.8051 H         1 <0>         0.1316
     57 H23        -6.5990   -5.7027   -2.6681 H         1 <0>         0.4127
     58 H24        -7.5932   -8.2329   -2.8216 H         1 <0>         0.0931
     59 H25        -6.3221   -9.3360   -2.2421 H         1 <0>         0.0974
     60 H26        -6.8224   -7.9511   -1.2421 H         1 <0>         0.0922
@<TRIPOS>BOND
     1    1    2 1
     2    1   36 1
     3    1   37 1
     4    1   38 1
     5    2    3 1
     6    2   39 1
     7    2   40 1
     8    3    4 1
     9    3   41 1
    10    3   42 1
    11    4    5 1
    12    4   43 1
    13    4   44 1
    14    5   11 am
    15    5    6 1
    16    6   24 1
    17    6    7 2
    18    7    8 1
    19    7   21 1
    20    8    9 2
    21    8   10 am
    22   10   11 am
    23   10   13 1
    24   11   12 2
    25   13   14 1
    26   13   45 1
    27   13   46 1
    28   14   19 ar
    29   14   15 ar
    30   15   16 ar
    31   15   47 1
    32   16   17 ar
    33   16   48 1
    34   17   18 ar
    35   17   49 1
    36   18   19 ar
    37   18   50 1
    38   19   20 1
    39   21   22 1
    40   21   23 1
    41   23   24 2
    42   23   25 1
    43   25   26 1
    44   25   51 1
    45   25   52 1
    46   26   31 ar
    47   26   27 ar
    48   27   28 ar
    49   27   53 1
    50   28   29 ar
    51   28   54 1
    52   29   30 ar
    53   29   32 1
    54   30   31 ar
    55   30   55 1
    56   31   56 1
    57   32   33 am
    58   32   57 1
    59   33   34 2
    60   33   35 1
    61   35   58 1
    62   35   59 1
    63   35   60 1
