@<TRIPOS>MOLECULE
ZINC19624649
   31    33     0     0     0
SMALL
USER_CHARGES
(1S)-1-(4-fluorophenyl)-1,2,3,4-tetrahydroisoquinoline
@<TRIPOS>ATOM
      1 C1          1.2026   -0.6852   -0.0089 C.ar      1 <0>        -0.1154
      2 C2          2.3927    0.0186   -0.0126 C.ar      1 <0>        -0.1235
      3 C3          2.3750    1.3987   -0.0072 C.ar      1 <0>        -0.1085
      4 C4          1.1693    2.0848    0.0021 C.ar      1 <0>        -0.0761
      5 C5         -0.0167    1.3825    0.0096 C.ar      1 <0>        -0.0664
      6 C6          0.0021   -0.0041    0.0020 C.ar      1 <0>        -0.1226
      7 C7         -1.3508    2.0834    0.0324 C.3       1 <0>        -0.0810
      8 C8         -1.1789    3.5458   -0.3803 C.3       1 <0>         0.0459
      9 N1         -0.0937    4.1327    0.4218 N.3       1 <0>        -0.6644
     10 C9          1.2012    3.5907   -0.0018 C.3       1 <0>         0.1624
     11 H1          1.3906    3.9528   -1.0231 H         1 <0>         0.0611
     12 C10         2.2734    4.0679    0.9435 C.ar      1 <0>        -0.0877
     13 C11         2.0254    4.1137    2.3027 C.ar      1 <0>        -0.0541
     14 C12         3.0099    4.5458    3.1711 C.ar      1 <0>        -0.1571
     15 C13         4.2409    4.9441    2.6782 C.ar      1 <0>         0.0999
     16 C14         4.4862    4.9032    1.3161 C.ar      1 <0>        -0.1555
     17 C15         3.5023    4.4649    0.4502 C.ar      1 <0>        -0.0874
     18 F1          5.2018    5.3728    3.5256 F         1 <0>        -0.1399
     19 H2          1.2123   -1.7651   -0.0141 H         1 <0>         0.1226
     20 H3          3.3342   -0.5104   -0.0193 H         1 <0>         0.1225
     21 H4          3.3051    1.9475   -0.0100 H         1 <0>         0.1215
     22 H5         -0.9275   -0.5539    0.0050 H         1 <0>         0.1221
     23 H6         -2.0377    1.5873   -0.6691 H         1 <0>         0.0791
     24 H7         -1.7702    2.0405    1.0484 H         1 <0>         0.0855
     25 H8         -0.9258    3.5977   -1.4495 H         1 <0>         0.0379
     26 H9         -2.1170    4.0908   -0.1987 H         1 <0>         0.0858
     27 H10        -0.0877    5.2245    0.2875 H         1 <0>         0.3505
     28 H11         1.0634    3.8078    2.6865 H         1 <0>         0.1406
     29 H12         2.8173    4.5776    4.2333 H         1 <0>         0.1355
     30 H13         5.4460    5.2140    0.9305 H         1 <0>         0.1358
     31 H14         3.6935    4.4329   -0.6122 H         1 <0>         0.1309
@<TRIPOS>BOND
     1    1    6 ar
     2    1    2 ar
     3    1   19 1
     4    2    3 ar
     5    2   20 1
     6    3    4 ar
     7    3   21 1
     8    4   10 1
     9    4    5 ar
    10    5    6 ar
    11    5    7 1
    12    6   22 1
    13    7    8 1
    14    7   23 1
    15    7   24 1
    16    8    9 1
    17    8   25 1
    18    8   26 1
    19    9   10 1
    20    9   27 1
    21   10   11 1
    22   10   12 1
    23   12   17 ar
    24   12   13 ar
    25   13   14 ar
    26   13   28 1
    27   14   15 ar
    28   14   29 1
    29   15   16 ar
    30   15   18 1
    31   16   17 ar
    32   16   30 1
    33   17   31 1
@<TRIPOS>MOLECULE
ZINC19624653
   31    33     0     0     0
SMALL
USER_CHARGES
(1R)-1-(4-fluorophenyl)-1,2,3,4-tetrahydroisoquinoline
@<TRIPOS>ATOM
      1 C1         -1.2184    1.7522    0.0173 C.ar      1 <0>        -0.1148
      2 C2         -0.0126    1.0758    0.0080 C.ar      1 <0>        -0.1220
      3 C3          1.1723    1.7834    0.0004 C.ar      1 <0>        -0.1048
      4 C4          1.1610    3.1707    0.0057 C.ar      1 <0>        -0.1126
      5 C5         -0.0414    3.8444    0.0178 C.ar      1 <0>        -0.0772
      6 C6         -1.2314    3.1324    0.0281 C.ar      1 <0>        -0.1192
      7 C7         -0.1046    5.3502    0.0176 C.3       1 <0>        -0.1217
      8 C8          1.2517    5.9295    0.4208 C.3       1 <0>         0.0446
      9 N1          2.2938    5.2957   -0.4026 N.3       1 <0>        -0.6558
     10 C9          2.4798    3.8984    0.0013 C.3       1 <0>         0.1591
     11 H1          2.9011    3.9036    1.0174 H         1 <0>         0.1028
     12 C10         3.4189    3.2218   -0.9637 C.ar      1 <0>        -0.0767
     13 C11         3.3099    3.4665   -2.3199 C.ar      1 <0>        -0.0756
     14 C12         4.1736    2.8502   -3.2054 C.ar      1 <0>        -0.1487
     15 C13         5.1416    1.9793   -2.7347 C.ar      1 <0>         0.0976
     16 C14         5.2465    1.7310   -1.3766 C.ar      1 <0>        -0.1496
     17 C15         4.3850    2.3524   -0.4925 C.ar      1 <0>        -0.0842
     18 F1          5.9835    1.3727   -3.5998 F         1 <0>        -0.1391
     19 H2         -2.1478    1.2020    0.0203 H         1 <0>         0.1230
     20 H3          0.0021   -0.0041    0.0020 H         1 <0>         0.1228
     21 H4          2.1137    1.2542   -0.0099 H         1 <0>         0.1228
     22 H5         -2.1733    3.6607    0.0403 H         1 <0>         0.1220
     23 H6         -0.3654    5.7061   -0.9900 H         1 <0>         0.0804
     24 H7         -0.8691    5.6852    0.7341 H         1 <0>         0.0833
     25 H8          1.2505    7.0167    0.2533 H         1 <0>         0.0889
     26 H9          1.4369    5.7228    1.4852 H         1 <0>         0.0774
     27 H10         1.9948    5.3274   -1.4607 H         1 <0>         0.3405
     28 H11         2.5520    4.1426   -2.6872 H         1 <0>         0.1295
     29 H12         4.0909    3.0447   -4.2645 H         1 <0>         0.1366
     30 H13         6.0014    1.0521   -1.0083 H         1 <0>         0.1373
     31 H14         4.4664    2.1586    0.5668 H         1 <0>         0.1337
@<TRIPOS>BOND
     1    1    6 ar
     2    1    2 ar
     3    1   19 1
     4    2    3 ar
     5    2   20 1
     6    3    4 ar
     7    3   21 1
     8    4   10 1
     9    4    5 ar
    10    5    6 ar
    11    5    7 1
    12    6   22 1
    13    7    8 1
    14    7   23 1
    15    7   24 1
    16    8    9 1
    17    8   25 1
    18    8   26 1
    19    9   10 1
    20    9   27 1
    21   10   11 1
    22   10   12 1
    23   12   17 ar
    24   12   13 ar
    25   13   14 ar
    26   13   28 1
    27   14   15 ar
    28   14   29 1
    29   15   16 ar
    30   15   18 1
    31   16   17 ar
    32   16   30 1
    33   17   31 1
@<TRIPOS>MOLECULE
ZINC23625302
   31    33     0     0     0
SMALL
USER_CHARGES
(3R)-3-phenyl-1,2,3,4-tetrahydroisoquinoline
@<TRIPOS>ATOM
      1 C1         -1.2377    3.1328    0.0290 C.ar      1 <0>        -0.1220
      2 C2         -1.2190    1.7507    0.0173 C.ar      1 <0>        -0.1186
      3 C3         -0.0126    1.0758    0.0080 C.ar      1 <0>        -0.1141
      4 C4          1.1750    1.7832    0.0004 C.ar      1 <0>        -0.0709
      5 C5          1.1563    3.1654    0.0081 C.ar      1 <0>        -0.1026
      6 C6         -0.0501    3.8402    0.0223 C.ar      1 <0>        -0.1194
      7 C7          2.4902    1.0476   -0.0156 C.3       1 <0>         0.1181
      8 H1          2.3403    0.0306    0.3757 H         1 <0>         0.0920
      9 C8          3.0472    1.0223   -1.4393 C.3       1 <0>        -0.1061
     10 C9          4.4642    0.5091   -1.4285 C.ar      1 <0>        -0.0809
     11 C10         5.0206    0.0777   -2.6233 C.ar      1 <0>        -0.1172
     12 C11         6.3167   -0.3960   -2.6582 C.ar      1 <0>        -0.1185
     13 C12         7.0644   -0.4399   -1.4961 C.ar      1 <0>        -0.1209
     14 C13         6.5112   -0.0119   -0.3063 C.ar      1 <0>        -0.1125
     15 C14         5.2080    0.4623   -0.2691 C.ar      1 <0>        -0.1188
     16 C15         4.6453    0.9091    1.0548 C.3       1 <0>         0.0854
     17 N1          3.4554    1.7415    0.8518 N.3       1 <0>        -0.6553
     18 H2         -2.1802    3.6600    0.0398 H         1 <0>         0.1209
     19 H3         -2.1469    1.1980    0.0188 H         1 <0>         0.1219
     20 H4          0.0021   -0.0041    0.0020 H         1 <0>         0.1201
     21 H5          2.0841    3.7181    0.0025 H         1 <0>         0.1203
     22 H6         -0.0647    4.9201    0.0280 H         1 <0>         0.1217
     23 H7          2.4276    0.3619   -2.0637 H         1 <0>         0.0834
     24 H8          3.0338    2.0400   -1.8564 H         1 <0>         0.0830
     25 H9          4.4368    0.1124   -3.5312 H         1 <0>         0.1214
     26 H10         6.7455   -0.7317   -3.5909 H         1 <0>         0.1229
     27 H11         8.0794   -0.8081   -1.5193 H         1 <0>         0.1229
     28 H12         7.0961   -0.0466    0.6010 H         1 <0>         0.1232
     29 H13         4.3675    0.0277    1.6513 H         1 <0>         0.0881
     30 H14         5.4029    1.4944    1.5965 H         1 <0>         0.0916
     31 H15         3.7557    2.6894    0.3814 H         1 <0>         0.3410
@<TRIPOS>BOND
     1    1    6 ar
     2    1    2 ar
     3    1   18 1
     4    2    3 ar
     5    2   19 1
     6    3    4 ar
     7    3   20 1
     8    4    5 ar
     9    4    7 1
    10    5    6 ar
    11    5   21 1
    12    6   22 1
    13    7    8 1
    14    7   17 1
    15    7    9 1
    16    9   10 1
    17    9   23 1
    18    9   24 1
    19   10   15 ar
    20   10   11 ar
    21   11   12 ar
    22   11   25 1
    23   12   13 ar
    24   12   26 1
    25   13   14 ar
    26   13   27 1
    27   14   15 ar
    28   14   28 1
    29   15   16 1
    30   16   17 1
    31   16   29 1
    32   16   30 1
    33   17   31 1
@<TRIPOS>MOLECULE
ZINC23625302
   32    34     0     0     0
SMALL
USER_CHARGES
(3R)-3-phenyl-1,2,3,4-tetrahydroisoquinoline
@<TRIPOS>ATOM
      1 C1         -1.2377    3.1328    0.0290 C.ar      1 <0>        -0.0912
      2 C2         -1.2190    1.7507    0.0173 C.ar      1 <0>        -0.1053
      3 C3         -0.0126    1.0758    0.0080 C.ar      1 <0>        -0.0879
      4 C4          1.1750    1.7832    0.0004 C.ar      1 <0>        -0.1437
      5 C5          1.1563    3.1654    0.0081 C.ar      1 <0>        -0.1212
      6 C6         -0.0501    3.8402    0.0223 C.ar      1 <0>        -0.1051
      7 C7          2.4902    1.0476   -0.0156 C.3       1 <0>         0.0976
      8 H1          2.3403    0.0306    0.3757 H         1 <0>         0.1429
      9 C8          3.0472    1.0223   -1.4393 C.3       1 <0>        -0.0954
     10 C9          4.4642    0.5091   -1.4285 C.ar      1 <0>        -0.0893
     11 C10         5.0206    0.0777   -2.6233 C.ar      1 <0>        -0.1058
     12 C11         6.3167   -0.3960   -2.6582 C.ar      1 <0>        -0.0923
     13 C12         7.0644   -0.4399   -1.4961 C.ar      1 <0>        -0.1056
     14 C13         6.5112   -0.0119   -0.3063 C.ar      1 <0>        -0.0939
     15 C14         5.2080    0.4623   -0.2691 C.ar      1 <0>        -0.1366
     16 C15         4.6453    0.9091    1.0548 C.3       1 <0>         0.0527
     17 N1          3.4554    1.7415    0.8518 N.4       1 <0>        -0.5355
     18 H2         -2.1802    3.6600    0.0398 H         1 <0>         0.1359
     19 H3         -2.1469    1.1980    0.0188 H         1 <0>         0.1370
     20 H4          0.0021   -0.0041    0.0020 H         1 <0>         0.1331
     21 H5          2.0841    3.7181    0.0025 H         1 <0>         0.1201
     22 H6         -0.0647    4.9201    0.0280 H         1 <0>         0.1354
     23 H7          2.4276    0.3619   -2.0637 H         1 <0>         0.1219
     24 H8          3.0338    2.0400   -1.8564 H         1 <0>         0.1054
     25 H9          4.4368    0.1124   -3.5312 H         1 <0>         0.1340
     26 H10         6.7455   -0.7317   -3.5909 H         1 <0>         0.1365
     27 H11         8.0794   -0.8081   -1.5193 H         1 <0>         0.1370
     28 H12         7.0961   -0.0466    0.6010 H         1 <0>         0.1344
     29 H13         4.3675    0.0277    1.6513 H         1 <0>         0.1369
     30 H14         5.4029    1.4944    1.5965 H         1 <0>         0.1422
     31 H15         3.7557    2.6894    0.3814 H         1 <0>         0.4484
     32 H16         2.9900    1.9474    1.8270 H         1 <0>         0.4574
@<TRIPOS>BOND
     1    1    6 ar
     2    1    2 ar
     3    1   18 1
     4    2    3 ar
     5    2   19 1
     6    3    4 ar
     7    3   20 1
     8    4    5 ar
     9    4    7 1
    10    5    6 ar
    11    5   21 1
    12    6   22 1
    13    7    8 1
    14    7   17 1
    15    7    9 1
    16    9   10 1
    17    9   23 1
    18    9   24 1
    19   10   15 ar
    20   10   11 ar
    21   11   12 ar
    22   11   25 1
    23   12   13 ar
    24   12   26 1
    25   13   14 ar
    26   13   27 1
    27   14   15 ar
    28   14   28 1
    29   15   16 1
    30   16   17 1
    31   16   29 1
    32   16   30 1
    33   17   31 1
    34   17   32 1
@<TRIPOS>MOLECULE
ZINC23625305
   31    33     0     0     0
SMALL
USER_CHARGES
(3S)-3-phenyl-1,2,3,4-tetrahydroisoquinoline
@<TRIPOS>ATOM
      1 C1          1.1750    1.7832    0.0004 C.ar      1 <0>        -0.1184
      2 C2         -0.0126    1.0758    0.0080 C.ar      1 <0>        -0.1231
      3 C3         -1.2190    1.7507    0.0173 C.ar      1 <0>        -0.0941
      4 C4         -1.2377    3.1328    0.0303 C.ar      1 <0>        -0.0893
      5 C5         -0.0501    3.8402    0.0223 C.ar      1 <0>        -0.1134
      6 C6          1.1563    3.1654    0.0076 C.ar      1 <0>        -0.1217
      7 C7         -2.5528    3.8685    0.0469 C.3       1 <0>         0.1205
      8 H1         -2.4023    4.8886   -0.3363 H         1 <0>         0.0515
      9 C8         -3.1139    3.8854    1.4691 C.3       1 <0>        -0.0662
     10 C9         -4.5309    4.3988    1.4573 C.ar      1 <0>        -0.0700
     11 C10        -5.0907    4.8232    2.6530 C.ar      1 <0>        -0.1205
     12 C11        -6.3872    5.2959    2.6871 C.ar      1 <0>        -0.1189
     13 C12        -7.1315    5.3467    1.5231 C.ar      1 <0>        -0.1221
     14 C13        -6.5746    4.9265    0.3322 C.ar      1 <0>        -0.1157
     15 C14        -5.2713    4.4524    0.2960 C.ar      1 <0>        -0.0818
     16 C15        -4.7048    4.0134   -1.0288 C.3       1 <0>         0.0872
     17 N1         -3.5141    3.1824   -0.8310 N.3       1 <0>        -0.6635
     18 H2          2.1175    1.2560   -0.0115 H         1 <0>         0.1210
     19 H3          0.0021   -0.0041    0.0020 H         1 <0>         0.1223
     20 H4         -2.1469    1.1980    0.0188 H         1 <0>         0.1316
     21 H5         -0.0647    4.9201    0.0280 H         1 <0>         0.1193
     22 H6          2.0841    3.7181    0.0014 H         1 <0>         0.1218
     23 H7         -3.1018    2.8652    1.8802 H         1 <0>         0.0872
     24 H8         -2.4960    4.5420    2.0993 H         1 <0>         0.0792
     25 H9         -4.5095    4.7830    3.5624 H         1 <0>         0.1216
     26 H10        -6.8191    5.6248    3.6207 H         1 <0>         0.1225
     27 H11        -8.1466    5.7148    1.5456 H         1 <0>         0.1228
     28 H12        -7.1569    4.9666   -0.5765 H         1 <0>         0.1219
     29 H13        -5.4601    3.4293   -1.5751 H         1 <0>         0.0926
     30 H14        -4.4273    4.8983   -1.6203 H         1 <0>         0.0466
     31 H15        -3.0454    2.9883   -1.8070 H         1 <0>         0.3494
@<TRIPOS>BOND
     1    1    6 ar
     2    1    2 ar
     3    1   18 1
     4    2    3 ar
     5    2   19 1
     6    3    4 ar
     7    3   20 1
     8    4    5 ar
     9    4    7 1
    10    5    6 ar
    11    5   21 1
    12    6   22 1
    13    7    8 1
    14    7   17 1
    15    7    9 1
    16    9   10 1
    17    9   23 1
    18    9   24 1
    19   10   15 ar
    20   10   11 ar
    21   11   12 ar
    22   11   25 1
    23   12   13 ar
    24   12   26 1
    25   13   14 ar
    26   13   27 1
    27   14   15 ar
    28   14   28 1
    29   15   16 1
    30   16   17 1
    31   16   29 1
    32   16   30 1
    33   17   31 1
@<TRIPOS>MOLECULE
ZINC23625305
   32    34     0     0     0
SMALL
USER_CHARGES
(3S)-3-phenyl-1,2,3,4-tetrahydroisoquinoline
@<TRIPOS>ATOM
      1 C1          1.1750    1.7832    0.0004 C.ar      1 <0>        -0.0912
      2 C2         -0.0126    1.0758    0.0080 C.ar      1 <0>        -0.1051
      3 C3         -1.2190    1.7507    0.0173 C.ar      1 <0>        -0.1210
      4 C4         -1.2377    3.1328    0.0303 C.ar      1 <0>        -0.1437
      5 C5         -0.0501    3.8402    0.0223 C.ar      1 <0>        -0.0879
      6 C6          1.1563    3.1654    0.0076 C.ar      1 <0>        -0.1054
      7 C7         -2.5528    3.8685    0.0469 C.3       1 <0>         0.0975
      8 H1         -2.4023    4.8886   -0.3363 H         1 <0>         0.1426
      9 C8         -3.1139    3.8854    1.4691 C.3       1 <0>        -0.0952
     10 C9         -4.5309    4.3988    1.4573 C.ar      1 <0>        -0.0893
     11 C10        -5.0907    4.8232    2.6530 C.ar      1 <0>        -0.1059
     12 C11        -6.3872    5.2959    2.6871 C.ar      1 <0>        -0.0923
     13 C12        -7.1315    5.3467    1.5231 C.ar      1 <0>        -0.1057
     14 C13        -6.5746    4.9265    0.3322 C.ar      1 <0>        -0.0939
     15 C14        -5.2713    4.4524    0.2960 C.ar      1 <0>        -0.1364
     16 C15        -4.7048    4.0134   -1.0288 C.3       1 <0>         0.0524
     17 N1         -3.5141    3.1824   -0.8310 N.4       1 <0>        -0.5353
     18 H2          2.1175    1.2560   -0.0115 H         1 <0>         0.1359
     19 H3          0.0021   -0.0041    0.0020 H         1 <0>         0.1354
     20 H4         -2.1469    1.1980    0.0188 H         1 <0>         0.1202
     21 H5         -0.0647    4.9201    0.0280 H         1 <0>         0.1331
     22 H6          2.0841    3.7181    0.0014 H         1 <0>         0.1370
     23 H7         -3.1018    2.8652    1.8802 H         1 <0>         0.1053
     24 H8         -2.4960    4.5420    2.0993 H         1 <0>         0.1220
     25 H9         -4.5095    4.7830    3.5624 H         1 <0>         0.1341
     26 H10        -6.8191    5.6248    3.6207 H         1 <0>         0.1365
     27 H11        -8.1466    5.7148    1.5456 H         1 <0>         0.1370
     28 H12        -7.1569    4.9666   -0.5765 H         1 <0>         0.1344
     29 H13        -5.4601    3.4293   -1.5751 H         1 <0>         0.1421
     30 H14        -4.4273    4.8983   -1.6203 H         1 <0>         0.1368
     31 H15        -3.0454    2.9883   -1.8070 H         1 <0>         0.4576
     32 H16        -3.8139    2.2287   -0.3721 H         1 <0>         0.4482
@<TRIPOS>BOND
     1    1    6 ar
     2    1    2 ar
     3    1   18 1
     4    2    3 ar
     5    2   19 1
     6    3    4 ar
     7    3   20 1
     8    4    5 ar
     9    4    7 1
    10    5    6 ar
    11    5   21 1
    12    6   22 1
    13    7    8 1
    14    7   17 1
    15    7    9 1
    16    9   10 1
    17    9   23 1
    18    9   24 1
    19   10   15 ar
    20   10   11 ar
    21   11   12 ar
    22   11   25 1
    23   12   13 ar
    24   12   26 1
    25   13   14 ar
    26   13   27 1
    27   14   15 ar
    28   14   28 1
    29   15   16 1
    30   16   17 1
    31   16   29 1
    32   16   30 1
    33   17   31 1
    34   17   32 1
@<TRIPOS>MOLECULE
ZINC19370039
   31    33     0     0     0
SMALL
USER_CHARGES
(1R)-1-phenyl-1,2,3,4-tetrahydroisoquinoline
@<TRIPOS>ATOM
      1 C1         -1.8705   -3.5482   -2.6795 C.ar      1 <0>        -0.1183
      2 C2         -2.1108   -3.5091   -1.3187 C.ar      1 <0>        -0.1224
      3 C3         -1.1244   -3.0711   -0.4550 C.ar      1 <0>        -0.1175
      4 C4          0.1024   -2.6726   -0.9520 C.ar      1 <0>        -0.0765
      5 C5          0.3409   -2.7067   -2.3132 C.ar      1 <0>        -0.0835
      6 C6         -0.6440   -3.1488   -3.1765 C.ar      1 <0>        -0.1242
      7 C7          1.1778   -2.1951   -0.0103 C.3       1 <0>         0.1612
      8 H1          0.9927   -2.5579    1.0115 H         1 <0>         0.0581
      9 C8          1.2083   -0.6892   -0.0133 C.ar      1 <0>        -0.0741
     10 C9          0.0021   -0.0041    0.0020 C.ar      1 <0>        -0.1077
     11 C10        -0.0166    1.3759    0.0096 C.ar      1 <0>        -0.1241
     12 C11         1.1728    2.0808    0.0020 C.ar      1 <0>        -0.1164
     13 C12         2.3738    1.4007   -0.0150 C.ar      1 <0>        -0.1231
     14 C13         2.3937    0.0141   -0.0250 C.ar      1 <0>        -0.0673
     15 C14         3.7283   -0.6855   -0.0537 C.3       1 <0>        -0.0806
     16 C15         3.5595   -2.1482    0.3586 C.3       1 <0>         0.0450
     17 N1          2.4715   -2.7358   -0.4391 N.3       1 <0>        -0.6634
     18 H2         -2.6409   -3.8911   -3.3543 H         1 <0>         0.1206
     19 H3         -3.0691   -3.8212   -0.9304 H         1 <0>         0.1216
     20 H4         -1.3121   -3.0406    0.6081 H         1 <0>         0.1190
     21 H5          1.2978   -2.3911   -2.7018 H         1 <0>         0.1291
     22 H6         -0.4562   -3.1796   -4.2396 H         1 <0>         0.1214
     23 H7         -0.9276   -0.5537    0.0077 H         1 <0>         0.1218
     24 H8         -0.9586    1.9042    0.0169 H         1 <0>         0.1221
     25 H9          1.1622    3.1607    0.0091 H         1 <0>         0.1223
     26 H10         3.3029    1.9513   -0.0206 H         1 <0>         0.1218
     27 H11         4.1435   -0.6415   -1.0714 H         1 <0>         0.0850
     28 H12         4.4176   -0.1892    0.6453 H         1 <0>         0.0786
     29 H13         4.4973   -2.6921    0.1726 H         1 <0>         0.0851
     30 H14         3.3111   -2.2012    1.4289 H         1 <0>         0.0370
     31 H15         2.4757   -3.8274   -0.3036 H         1 <0>         0.3494
@<TRIPOS>BOND
     1    1    6 ar
     2    1    2 ar
     3    1   18 1
     4    2    3 ar
     5    2   19 1
     6    3    4 ar
     7    3   20 1
     8    4    5 ar
     9    4    7 1
    10    5    6 ar
    11    5   21 1
    12    6   22 1
    13    7    8 1
    14    7   17 1
    15    7    9 1
    16    9   14 ar
    17    9   10 ar
    18   10   11 ar
    19   10   23 1
    20   11   12 ar
    21   11   24 1
    22   12   13 ar
    23   12   25 1
    24   13   14 ar
    25   13   26 1
    26   14   15 1
    27   15   16 1
    28   15   27 1
    29   15   28 1
    30   16   17 1
    31   16   29 1
    32   16   30 1
    33   17   31 1
@<TRIPOS>MOLECULE
ZINC19370042
   31    33     0     0     0
SMALL
USER_CHARGES

@<TRIPOS>ATOM
      1 C1         -0.0167    1.3781    0.0096 C.ar      1 <0>        -0.1207
      2 C2          1.1709    2.0855    0.0021 C.ar      1 <0>        -0.1162
      3 C3          2.3773    1.4107   -0.0130 C.ar      1 <0>        -0.1139
      4 C4          2.3960    0.0285   -0.0201 C.ar      1 <0>        -0.0695
      5 C5          1.2084   -0.6789   -0.0117 C.ar      1 <0>        -0.1065
      6 C6          0.0021   -0.0041    0.0020 C.ar      1 <0>        -0.1157
      7 C7          3.7112   -0.7071   -0.0376 C.3       1 <0>         0.1672
      8 H1          4.4938   -0.0375   -0.3943 H         1 <0>         0.1006
      9 C8          4.0448   -1.1637    1.3585 C.ar      1 <0>        -0.1117
     10 C9          3.8184   -0.2889    2.4111 C.ar      1 <0>        -0.1044
     11 C10         4.1131   -0.6642    3.7061 C.ar      1 <0>        -0.1227
     12 C11         4.6376   -1.9186    3.9571 C.ar      1 <0>        -0.1159
     13 C12         4.8620   -2.7908    2.9110 C.ar      1 <0>        -0.1200
     14 C13         4.5644   -2.4154    1.6096 C.ar      1 <0>        -0.0779
     15 C14         4.8157   -3.4047    0.5007 C.3       1 <0>        -0.1218
     16 C15         4.8234   -2.6856   -0.8485 C.3       1 <0>         0.0548
     17 N1          3.6104   -1.8588   -0.9396 N.3       1 <0>        -0.6721
     18 H2         -0.9591    1.9053    0.0259 H         1 <0>         0.1221
     19 H3          1.1563    3.1654    0.0076 H         1 <0>         0.1235
     20 H4          3.3051    1.9634   -0.0196 H         1 <0>         0.1226
     21 H5          1.2231   -1.7588   -0.0176 H         1 <0>         0.1167
     22 H6         -0.9258   -0.5567    0.0082 H         1 <0>         0.1224
     23 H7          3.4095    0.6915    2.2161 H         1 <0>         0.1232
     24 H8          3.9348    0.0208    4.5219 H         1 <0>         0.1224
     25 H9          4.8715   -2.2151    4.9689 H         1 <0>         0.1227
     26 H10         5.2720   -3.7705    3.1071 H         1 <0>         0.1215
     27 H11         5.7798   -3.8881    0.6587 H         1 <0>         0.0825
     28 H12         4.0293   -4.1595    0.5041 H         1 <0>         0.0780
     29 H13         5.7073   -2.0519   -0.9206 H         1 <0>         0.0782
     30 H14         4.8288   -3.4194   -1.6545 H         1 <0>         0.0868
     31 H15         2.7837   -2.4023   -0.7411 H         1 <0>         0.3437
@<TRIPOS>BOND
     1    1    6 ar
     2    1    2 ar
     3    1   18 1
     4    2    3 ar
     5    2   19 1
     6    3    4 ar
     7    3   20 1
     8    4    5 ar
     9    4    7 1
    10    5    6 ar
    11    5   21 1
    12    6   22 1
    13    7    8 1
    14    7   17 1
    15    7    9 1
    16    9   14 ar
    17    9   10 ar
    18   10   11 ar
    19   10   23 1
    20   11   12 ar
    21   11   24 1
    22   12   13 ar
    23   12   25 1
    24   13   14 ar
    25   13   26 1
    26   14   15 1
    27   15   16 1
    28   15   27 1
    29   15   28 1
    30   16   17 1
    31   16   29 1
    32   16   30 1
    33   17   31 1
@<TRIPOS>MOLECULE
ZINC19624717
   34    36     0     0     0
SMALL
USER_CHARGES
(1R)-1-benzyl-1,2,3,4-tetrahydroisoquinoline
@<TRIPOS>ATOM
      1 C1         -7.4297    4.7939    0.7495 C.ar      1 <0>        -0.1237
      2 C2         -7.0781    3.7313   -0.0617 C.ar      1 <0>        -0.1194
      3 C3         -5.8108    3.1860    0.0240 C.ar      1 <0>        -0.1194
      4 C4         -4.8951    3.7031    0.9213 C.ar      1 <0>        -0.0854
      5 C5         -5.2486    4.7620    1.7366 C.ar      1 <0>        -0.1100
      6 C6         -6.5143    5.3107    1.6472 C.ar      1 <0>        -0.1192
      7 C7         -3.5136    3.1084    1.0151 C.3       1 <0>        -0.0695
      8 C8         -2.5806    3.8296    0.0403 C.3       1 <0>         0.1276
      9 H1         -2.9894    3.8404   -0.9808 H         1 <0>         0.0514
     10 C9         -1.2426    3.1380    0.0300 C.ar      1 <0>        -0.0770
     11 C10        -1.2163    1.7509    0.0173 C.ar      1 <0>        -0.1161
     12 C11        -0.0126    1.0758    0.0080 C.ar      1 <0>        -0.1230
     13 C12         1.1745    1.7847    0.0004 C.ar      1 <0>        -0.1183
     14 C13         1.1500    3.1648    0.0095 C.ar      1 <0>        -0.1217
     15 C14        -0.0589    3.8440    0.0247 C.ar      1 <0>        -0.0673
     16 C15        -0.0366    5.3510    0.0388 C.3       1 <0>        -0.0800
     17 C16        -1.4079    5.8970   -0.3602 C.3       1 <0>         0.0443
     18 N1         -2.4327    5.2278    0.4568 N.3       1 <0>        -0.6650
     19 H2         -8.4198    5.2201    0.6823 H         1 <0>         0.1202
     20 H3         -7.7935    3.3273   -0.7628 H         1 <0>         0.1205
     21 H4         -5.5361    2.3559   -0.6098 H         1 <0>         0.1190
     22 H5         -4.5347    5.1631    2.4407 H         1 <0>         0.1277
     23 H6         -6.7891    6.1406    2.2813 H         1 <0>         0.1219
     24 H7         -3.1332    3.2247    2.0407 H         1 <0>         0.0861
     25 H8         -3.5563    2.0395    0.7589 H         1 <0>         0.0801
     26 H9         -2.1430    1.1963    0.0193 H         1 <0>         0.1233
     27 H10         0.0021   -0.0041    0.0020 H         1 <0>         0.1226
     28 H11         2.1183    1.2600   -0.0129 H         1 <0>         0.1221
     29 H12         2.0772    3.7185    0.0043 H         1 <0>         0.1213
     30 H13         0.2139    5.7045    1.0499 H         1 <0>         0.0848
     31 H14         0.7189    5.7132   -0.6739 H         1 <0>         0.0774
     32 H15        -1.4362    6.9823   -0.1829 H         1 <0>         0.0826
     33 H16        -1.5870    5.6949   -1.4265 H         1 <0>         0.0351
     34 H17        -3.3918    5.7514    0.3304 H         1 <0>         0.3468
@<TRIPOS>BOND
     1    1    6 ar
     2    1    2 ar
     3    1   19 1
     4    2    3 ar
     5    2   20 1
     6    3    4 ar
     7    3   21 1
     8    4    5 ar
     9    4    7 1
    10    5    6 ar
    11    5   22 1
    12    6   23 1
    13    7    8 1
    14    7   24 1
    15    7   25 1
    16    8    9 1
    17    8   18 1
    18    8   10 1
    19   10   15 ar
    20   10   11 ar
    21   11   12 ar
    22   11   26 1
    23   12   13 ar
    24   12   27 1
    25   13   14 ar
    26   13   28 1
    27   14   15 ar
    28   14   29 1
    29   15   16 1
    30   16   17 1
    31   16   30 1
    32   16   31 1
    33   17   18 1
    34   17   32 1
    35   17   33 1
    36   18   34 1
@<TRIPOS>MOLECULE
ZINC19624722
   34    36     0     0     0
SMALL
USER_CHARGES
(1S)-1-benzyl-1,2,3,4-tetrahydroisoquinoline
@<TRIPOS>ATOM
      1 C1         -1.2377    3.1328    0.0294 C.ar      1 <0>        -0.1253
      2 C2         -1.2190    1.7507    0.0173 C.ar      1 <0>        -0.1207
      3 C3         -0.0126    1.0758    0.0080 C.ar      1 <0>        -0.0943
      4 C4          1.1750    1.7832    0.0004 C.ar      1 <0>        -0.0699
      5 C5          1.1563    3.1654    0.0081 C.ar      1 <0>        -0.1205
      6 C6         -0.0501    3.8402    0.0223 C.ar      1 <0>        -0.1213
      7 C7          2.4902    1.0476   -0.0156 C.3       1 <0>        -0.0717
      8 C8          2.9217    0.8059   -1.4635 C.3       1 <0>         0.1255
      9 H1          2.9461    1.7415   -2.0415 H         1 <0>         0.0932
     10 C9          4.2923    0.1813   -1.4761 C.ar      1 <0>        -0.1141
     11 C10         5.2503    0.6732   -0.6015 C.ar      1 <0>        -0.1127
     12 C11         6.5201    0.1329   -0.5815 C.ar      1 <0>        -0.1218
     13 C12         6.8408   -0.9042   -1.4378 C.ar      1 <0>        -0.1180
     14 C13         5.8884   -1.3955   -2.3079 C.ar      1 <0>        -0.1189
     15 C14         4.6116   -0.8546   -2.3274 C.ar      1 <0>        -0.0785
     16 C15         3.6020   -1.4295   -3.2875 C.3       1 <0>        -0.1205
     17 C16         2.4301   -0.4617   -3.4538 C.3       1 <0>         0.0454
     18 N1          1.9496   -0.0758   -2.1175 N.3       1 <0>        -0.6520
     19 H2         -2.1802    3.6600    0.0410 H         1 <0>         0.1181
     20 H3         -2.1469    1.1980    0.0188 H         1 <0>         0.1189
     21 H4          0.0021   -0.0041    0.0020 H         1 <0>         0.1192
     22 H5          2.0841    3.7181    0.0025 H         1 <0>         0.1169
     23 H6         -0.0647    4.9201    0.0283 H         1 <0>         0.1186
     24 H7          3.2535    1.6499    0.4988 H         1 <0>         0.0813
     25 H8          2.3767    0.0822    0.4992 H         1 <0>         0.0762
     26 H9          5.0009    1.4832    0.0678 H         1 <0>         0.1245
     27 H10         7.2620    0.5196    0.1015 H         1 <0>         0.1226
     28 H11         7.8336   -1.3290   -1.4258 H         1 <0>         0.1223
     29 H12         6.1390   -2.2054   -2.9770 H         1 <0>         0.1208
     30 H13         4.0781   -1.5934   -4.2655 H         1 <0>         0.0805
     31 H14         3.2282   -2.3873   -2.8965 H         1 <0>         0.0795
     32 H15         2.7660    0.4298   -4.0038 H         1 <0>         0.0738
     33 H16         1.6231   -0.9560   -4.0145 H         1 <0>         0.0853
     34 H17         1.8100   -0.9822   -1.5100 H         1 <0>         0.3379
@<TRIPOS>BOND
     1    1    6 ar
     2    1    2 ar
     3    1   19 1
     4    2    3 ar
     5    2   20 1
     6    3    4 ar
     7    3   21 1
     8    4    5 ar
     9    4    7 1
    10    5    6 ar
    11    5   22 1
    12    6   23 1
    13    7    8 1
    14    7   24 1
    15    7   25 1
    16    8    9 1
    17    8   18 1
    18    8   10 1
    19   10   15 ar
    20   10   11 ar
    21   11   12 ar
    22   11   26 1
    23   12   13 ar
    24   12   27 1
    25   13   14 ar
    26   13   28 1
    27   14   15 ar
    28   14   29 1
    29   15   16 1
    30   16   17 1
    31   16   30 1
    32   16   31 1
    33   17   18 1
    34   17   32 1
    35   17   33 1
    36   18   34 1
@<TRIPOS>MOLECULE
ZINC01634177
   38    40     0     0     0
SMALL
USER_CHARGES
2-ethyl-1-phenyl-3,4-dihydro-1H-isoquinoline
@<TRIPOS>ATOM
      1 C1         -2.9081    1.6973   -2.3070 C.3       1 <0>        -0.1869
      2 C2         -2.0946    0.9915   -1.2202 C.3       1 <0>        -0.0087
      3 C3          0.0075    1.2587   -2.3962 C.3       1 <0>        -0.0034
      4 C4          1.2363    2.1667   -2.4534 C.3       1 <0>        -0.1075
      5 C5          1.9861    2.1001   -1.1477 C.ar      1 <0>        -0.0893
      6 C6          3.2941    2.5594   -1.1120 C.ar      1 <0>        -0.1061
      7 C7          4.0139    2.5236    0.0653 C.ar      1 <0>        -0.0908
      8 C8          3.4276    2.0275    1.2150 C.ar      1 <0>        -0.1068
      9 C9          2.1264    1.5687    1.1801 C.ar      1 <0>        -0.0840
     10 C10         1.4022    1.6022   -0.0027 C.ar      1 <0>        -0.1250
     11 C11        -0.0127    1.0858    0.0080 C.3       1 <0>         0.1398
     12 H1          0.0021   -0.0041    0.0020 H         1 <0>         0.1483
     13 C12        -0.7082    1.5668    1.2554 C.ar      1 <0>        -0.1355
     14 C13        -1.2151    2.8516    1.3123 C.ar      1 <0>        -0.1172
     15 C14        -1.8570    3.2914    2.4549 C.ar      1 <0>        -0.1022
     16 C15        -1.9839    2.4495    3.5438 C.ar      1 <0>        -0.0918
     17 C16        -1.4724    1.1664    3.4888 C.ar      1 <0>        -0.1035
     18 C17        -0.8344    0.7252    2.3447 C.ar      1 <0>        -0.0924
     19 H2         -2.9743    2.7610   -2.0781 H         1 <0>         0.0794
     20 H3         -2.4191    1.5630   -3.2718 H         1 <0>         0.0807
     21 H4         -3.9105    1.2708   -2.3452 H         1 <0>         0.1080
     22 H5         -2.0284   -0.0721   -1.4491 H         1 <0>         0.1319
     23 H6         -2.5836    1.1258   -0.2554 H         1 <0>         0.1307
     24 H7         -0.6230    1.4403   -3.2667 H         1 <0>         0.1395
     25 H8          0.3234    0.2156   -2.3805 H         1 <0>         0.1344
     26 H9          0.9193    3.1934   -2.6367 H         1 <0>         0.1025
     27 H10         1.8890    1.8395   -3.2627 H         1 <0>         0.1240
     28 H11         3.7520    2.9469   -2.0101 H         1 <0>         0.1352
     29 H12         5.0325    2.8817    0.0881 H         1 <0>         0.1366
     30 H13         3.9868    1.9991    2.1385 H         1 <0>         0.1363
     31 H14         1.6695    1.1811    2.0787 H         1 <0>         0.1322
     32 H15        -1.1127    3.5107    0.4628 H         1 <0>         0.1160
     33 H16        -2.2569    4.2937    2.4977 H         1 <0>         0.1356
     34 H17        -2.4830    2.7939    4.4375 H         1 <0>         0.1364
     35 H18        -1.5716    0.5086    4.3396 H         1 <0>         0.1378
     36 H19        -0.4347   -0.2772    2.3017 H         1 <0>         0.1341
     37 N1         -0.7418    1.5905   -1.1675 N.4       1 <0>        -0.3919
     38 H20        -0.8309    2.6108   -1.0944 H         1 <0>         0.4236
@<TRIPOS>BOND
     1    1    2 1
     2    1   19 1
     3    1   20 1
     4    1   21 1
     5    2   22 1
     6    2   23 1
     7    2   37 1
     8    3    4 1
     9    3   24 1
    10    3   25 1
    11    3   37 1
    12    4    5 1
    13    4   26 1
    14    4   27 1
    15    5   10 ar
    16    5    6 ar
    17    6    7 ar
    18    6   28 1
    19    7    8 ar
    20    7   29 1
    21    8    9 ar
    22    8   30 1
    23    9   10 ar
    24    9   31 1
    25   10   11 1
    26   11   12 1
    27   11   13 1
    28   11   37 1
    29   13   18 ar
    30   13   14 ar
    31   14   15 ar
    32   14   32 1
    33   15   16 ar
    34   15   33 1
    35   16   17 ar
    36   16   34 1
    37   17   18 ar
    38   17   35 1
    39   18   36 1
    40   37   38 1
@<TRIPOS>MOLECULE
ZINC19624675
   31    33     0     0     0
SMALL
USER_CHARGES
(1S)-1-(4-chlorophenyl)-1,2,3,4-tetrahydroisoquinoline
@<TRIPOS>ATOM
      1 C1          1.2026   -0.6852   -0.0089 C.ar      1 <0>        -0.1152
      2 C2          2.3927    0.0186   -0.0126 C.ar      1 <0>        -0.1234
      3 C3          2.3750    1.3987   -0.0072 C.ar      1 <0>        -0.1084
      4 C4          1.1693    2.0848    0.0021 C.ar      1 <0>        -0.0763
      5 C5         -0.0167    1.3825    0.0096 C.ar      1 <0>        -0.0660
      6 C6          0.0021   -0.0041    0.0020 C.ar      1 <0>        -0.1226
      7 C7         -1.3508    2.0834    0.0324 C.3       1 <0>        -0.0811
      8 C8         -1.1789    3.5458   -0.3803 C.3       1 <0>         0.0460
      9 N1         -0.0937    4.1327    0.4218 N.3       1 <0>        -0.6640
     10 C9          1.2012    3.5907   -0.0018 C.3       1 <0>         0.1608
     11 H1          1.3906    3.9528   -1.0231 H         1 <0>         0.0612
     12 C10         2.2734    4.0679    0.9435 C.ar      1 <0>        -0.0719
     13 C11         2.0257    4.1138    2.3027 C.ar      1 <0>        -0.0707
     14 C12         3.0106    4.5460    3.1708 C.ar      1 <0>        -0.1137
     15 C13         4.2408    4.9435    2.6780 C.ar      1 <0>        -0.0324
     16 C14         4.4862    4.9028    1.3170 C.ar      1 <0>        -0.1123
     17 C15         3.5024    4.4650    0.4505 C.ar      1 <0>        -0.1043
     18 Cl1         5.4758    5.4938    3.7669 Cl        1 <0>        -0.0707
     19 H2          1.2123   -1.7651   -0.0141 H         1 <0>         0.1227
     20 H3          3.3342   -0.5104   -0.0193 H         1 <0>         0.1226
     21 H4          3.3051    1.9475   -0.0100 H         1 <0>         0.1214
     22 H5         -0.9275   -0.5539    0.0050 H         1 <0>         0.1222
     23 H6         -2.0377    1.5873   -0.6691 H         1 <0>         0.0792
     24 H7         -1.7702    2.0405    1.0484 H         1 <0>         0.0855
     25 H8         -0.9258    3.5977   -1.4495 H         1 <0>         0.0379
     26 H9         -2.1170    4.0908   -0.1987 H         1 <0>         0.0859
     27 H10        -0.0877    5.2245    0.2875 H         1 <0>         0.3504
     28 H11         1.0639    3.8076    2.6869 H         1 <0>         0.1398
     29 H12         2.8185    4.5777    4.2331 H         1 <0>         0.1334
     30 H13         5.4462    5.2133    0.9317 H         1 <0>         0.1337
     31 H14         3.6937    4.4334   -0.6119 H         1 <0>         0.1301
@<TRIPOS>BOND
     1    1    6 ar
     2    1    2 ar
     3    1   19 1
     4    2    3 ar
     5    2   20 1
     6    3    4 ar
     7    3   21 1
     8    4   10 1
     9    4    5 ar
    10    5    6 ar
    11    5    7 1
    12    6   22 1
    13    7    8 1
    14    7   23 1
    15    7   24 1
    16    8    9 1
    17    8   25 1
    18    8   26 1
    19    9   10 1
    20    9   27 1
    21   10   11 1
    22   10   12 1
    23   12   17 ar
    24   12   13 ar
    25   13   14 ar
    26   13   28 1
    27   14   15 ar
    28   14   29 1
    29   15   16 ar
    30   15   18 1
    31   16   17 ar
    32   16   30 1
    33   17   31 1
@<TRIPOS>MOLECULE
ZINC19624679
   31    33     0     0     0
SMALL
USER_CHARGES
(1R)-1-(4-chlorophenyl)-1,2,3,4-tetrahydroisoquinoline
@<TRIPOS>ATOM
      1 C1         -1.2184    1.7522    0.0173 C.ar      1 <0>        -0.1146
      2 C2         -0.0126    1.0758    0.0080 C.ar      1 <0>        -0.1218
      3 C3          1.1723    1.7834    0.0004 C.ar      1 <0>        -0.1047
      4 C4          1.1610    3.1707    0.0057 C.ar      1 <0>        -0.1128
      5 C5         -0.0414    3.8444    0.0178 C.ar      1 <0>        -0.0769
      6 C6         -1.2314    3.1324    0.0281 C.ar      1 <0>        -0.1192
      7 C7         -0.1046    5.3502    0.0176 C.3       1 <0>        -0.1218
      8 C8          1.2517    5.9295    0.4208 C.3       1 <0>         0.0446
      9 N1          2.2938    5.2957   -0.4026 N.3       1 <0>        -0.6556
     10 C9          2.4798    3.8984    0.0013 C.3       1 <0>         0.1575
     11 H1          2.9011    3.9036    1.0174 H         1 <0>         0.1029
     12 C10         3.4189    3.2218   -0.9637 C.ar      1 <0>        -0.0609
     13 C11         3.3101    3.4663   -2.3199 C.ar      1 <0>        -0.0924
     14 C12         4.1748    2.8504   -3.2050 C.ar      1 <0>        -0.1053
     15 C13         5.1420    1.9802   -2.7344 C.ar      1 <0>        -0.0354
     16 C14         5.2467    1.7315   -1.3774 C.ar      1 <0>        -0.1064
     17 C15         4.3851    2.3524   -0.4928 C.ar      1 <0>        -0.1012
     18 Cl1         6.2242    1.2012   -3.8460 Cl        1 <0>        -0.0691
     19 H2         -2.1478    1.2020    0.0203 H         1 <0>         0.1231
     20 H3          0.0021   -0.0041    0.0020 H         1 <0>         0.1229
     21 H4          2.1137    1.2542   -0.0099 H         1 <0>         0.1228
     22 H5         -2.1733    3.6607    0.0403 H         1 <0>         0.1221
     23 H6         -0.3654    5.7061   -0.9900 H         1 <0>         0.0805
     24 H7         -0.8691    5.6852    0.7341 H         1 <0>         0.0834
     25 H8          1.2505    7.0167    0.2533 H         1 <0>         0.0891
     26 H9          1.4369    5.7228    1.4852 H         1 <0>         0.0773
     27 H10         1.9948    5.3274   -1.4607 H         1 <0>         0.3407
     28 H11         2.5522    4.1422   -2.6876 H         1 <0>         0.1288
     29 H12         4.0926    3.0449   -4.2642 H         1 <0>         0.1345
     30 H13         6.0017    1.0526   -1.0094 H         1 <0>         0.1351
     31 H14         4.4665    2.1580    0.5664 H         1 <0>         0.1328
@<TRIPOS>BOND
     1    1    6 ar
     2    1    2 ar
     3    1   19 1
     4    2    3 ar
     5    2   20 1
     6    3    4 ar
     7    3   21 1
     8    4   10 1
     9    4    5 ar
    10    5    6 ar
    11    5    7 1
    12    6   22 1
    13    7    8 1
    14    7   23 1
    15    7   24 1
    16    8    9 1
    17    8   25 1
    18    8   26 1
    19    9   10 1
    20    9   27 1
    21   10   11 1
    22   10   12 1
    23   12   17 ar
    24   12   13 ar
    25   13   14 ar
    26   13   28 1
    27   14   15 ar
    28   14   29 1
    29   15   16 ar
    30   15   18 1
    31   16   17 ar
    32   16   30 1
    33   17   31 1
@<TRIPOS>MOLECULE
ZINC02391828
   35    37     0     0     0
SMALL
USER_CHARGES
(1S)-1-(p-tolyl)-1,2,3,4-tetrahydroisoquinoline
@<TRIPOS>ATOM
      1 C1          5.3123    5.4218    3.6229 C.3       1 <0>        -0.1305
      2 C2          4.2402    4.9442    2.6777 C.ar      1 <0>        -0.0501
      3 C3          4.4858    4.9032    1.3179 C.ar      1 <0>        -0.1089
      4 C4          3.5024    4.4650    0.4508 C.ar      1 <0>        -0.0844
      5 C5          2.2734    4.0679    0.9435 C.ar      1 <0>        -0.1497
      6 C6          2.0260    4.1139    2.3027 C.ar      1 <0>        -0.1102
      7 C7          3.0114    4.5466    3.1703 C.ar      1 <0>        -0.1072
      8 C8          1.2012    3.5907   -0.0018 C.3       1 <0>         0.1416
      9 H1          1.4268    3.9431   -1.0083 H         1 <0>         0.1495
     10 C9          1.1693    2.0848    0.0021 C.ar      1 <0>        -0.1252
     11 C10         2.3750    1.3987   -0.0072 C.ar      1 <0>        -0.0834
     12 C11         2.3927    0.0186   -0.0126 C.ar      1 <0>        -0.1070
     13 C12         1.2026   -0.6852   -0.0089 C.ar      1 <0>        -0.0904
     14 C13         0.0021   -0.0041    0.0020 C.ar      1 <0>        -0.1068
     15 C14        -0.0167    1.3825    0.0096 C.ar      1 <0>        -0.0899
     16 C15        -1.3508    2.0834    0.0324 C.3       1 <0>        -0.1078
     17 C16        -1.1789    3.5458   -0.3803 C.3       1 <0>         0.0007
     18 H2          5.2229    6.4996    3.7590 H         1 <0>         0.0825
     19 H3          5.1966    4.9233    4.5853 H         1 <0>         0.0755
     20 H4          6.2928    5.1880    3.2082 H         1 <0>         0.0764
     21 H5          5.4459    5.2137    0.9330 H         1 <0>         0.1373
     22 H6          3.6942    4.4333   -0.6115 H         1 <0>         0.1345
     23 H7          1.0643    3.8078    2.6872 H         1 <0>         0.1183
     24 H8          2.8196    4.5784    4.2327 H         1 <0>         0.1352
     25 H9          3.3051    1.9475   -0.0100 H         1 <0>         0.1324
     26 H10         3.3342   -0.5104   -0.0193 H         1 <0>         0.1363
     27 H11         1.2123   -1.7651   -0.0141 H         1 <0>         0.1366
     28 H12        -0.9275   -0.5539    0.0050 H         1 <0>         0.1350
     29 H13        -2.0310    1.5894   -0.6614 H         1 <0>         0.1239
     30 H14        -1.7666    2.0375    1.0389 H         1 <0>         0.1033
     31 H15        -2.1056    4.0895   -0.1962 H         1 <0>         0.1418
     32 H16        -0.9230    3.6005   -1.4384 H         1 <0>         0.1347
     33 N1         -0.0944    4.1364    0.4259 N.4       1 <0>        -0.5130
     34 H17        -0.0928    5.1554    0.2999 H         1 <0>         0.4393
     35 H18        -0.2470    3.9143    1.4166 H         1 <0>         0.4298
@<TRIPOS>BOND
     1    1    2 1
     2    1   18 1
     3    1   19 1
     4    1   20 1
     5    2    7 ar
     6    2    3 ar
     7    3    4 ar
     8    3   21 1
     9    4    5 ar
    10    4   22 1
    11    5    6 ar
    12    5    8 1
    13    6    7 ar
    14    6   23 1
    15    7   24 1
    16    8    9 1
    17    8   10 1
    18    8   33 1
    19   10   15 ar
    20   10   11 ar
    21   11   12 ar
    22   11   25 1
    23   12   13 ar
    24   12   26 1
    25   13   14 ar
    26   13   27 1
    27   14   15 ar
    28   14   28 1
    29   15   16 1
    30   16   17 1
    31   16   29 1
    32   16   30 1
    33   17   31 1
    34   17   32 1
    35   17   33 1
    36   33   34 1
    37   33   35 1
@<TRIPOS>MOLECULE
ZINC11597154
   35    37     0     0     0
SMALL
USER_CHARGES
(1R)-1-(p-tolyl)-1,2,3,4-tetrahydroisoquinoline
@<TRIPOS>ATOM
      1 C1          0.0021   -0.0041    0.0020 C.3       1 <0>        -0.1305
      2 C2         -0.0184    1.5028    0.0103 C.ar      1 <0>        -0.0502
      3 C3         -1.2248    2.1776    0.0197 C.ar      1 <0>        -0.1073
      4 C4         -1.2435    3.5598    0.0327 C.ar      1 <0>        -0.1105
      5 C5         -0.0559    4.2672    0.0251 C.ar      1 <0>        -0.1493
      6 C6          1.1505    3.5924    0.0100 C.ar      1 <0>        -0.0844
      7 C7          1.1693    2.2102    0.0028 C.ar      1 <0>        -0.1088
      8 C8         -0.0763    5.7740    0.0340 C.3       1 <0>         0.1414
      9 H1          0.8795    6.1494   -0.3317 H         1 <0>         0.1495
     10 C9         -0.2913    6.2607    1.4431 C.ar      1 <0>        -0.1253
     11 C10         0.3947    5.6305    2.4712 C.ar      1 <0>        -0.0836
     12 C11         0.2302    6.0455    3.7771 C.ar      1 <0>        -0.1069
     13 C12        -0.6224    7.0955    4.0637 C.ar      1 <0>        -0.0905
     14 C13        -1.3064    7.7230    3.0421 C.ar      1 <0>        -0.1068
     15 C14        -1.1431    7.3058    1.7297 C.ar      1 <0>        -0.0900
     16 C15        -1.9135    8.0180    0.6478 C.3       1 <0>        -0.1076
     17 C16        -1.3020    7.7079   -0.7189 C.3       1 <0>         0.0006
     18 H2          0.0168   -0.3729    1.0276 H         1 <0>         0.0827
     19 H3         -0.8878   -0.3767   -0.5053 H         1 <0>         0.0753
     20 H4          0.8920   -0.3525   -0.5222 H         1 <0>         0.0764
     21 H5         -2.1527    1.6249    0.0211 H         1 <0>         0.1353
     22 H6         -2.1860    4.0870    0.0449 H         1 <0>         0.1182
     23 H7          2.0784    4.1450    0.0041 H         1 <0>         0.1345
     24 H8          2.1118    1.6830   -0.0091 H         1 <0>         0.1373
     25 H9          1.0611    4.8103    2.2483 H         1 <0>         0.1324
     26 H10         0.7660    5.5507    4.5737 H         1 <0>         0.1363
     27 H11        -0.7527    7.4241    5.0842 H         1 <0>         0.1366
     28 H12        -1.9725    8.5431    3.2661 H         1 <0>         0.1351
     29 H13        -1.8768    9.0929    0.8251 H         1 <0>         0.1241
     30 H14        -2.9508    7.6838    0.6643 H         1 <0>         0.1032
     31 H15        -0.3254    8.1852   -0.7999 H         1 <0>         0.1345
     32 H16        -1.9565    8.0769   -1.5085 H         1 <0>         0.1420
     33 N1         -1.1542    6.2461   -0.8460 N.4       1 <0>        -0.5129
     34 H17        -2.0350    5.7905   -0.5801 H         1 <0>         0.4298
     35 H18        -0.9271    6.0103   -1.8192 H         1 <0>         0.4393
@<TRIPOS>BOND
     1    1    2 1
     2    1   18 1
     3    1   19 1
     4    1   20 1
     5    2    7 ar
     6    2    3 ar
     7    3    4 ar
     8    3   21 1
     9    4    5 ar
    10    4   22 1
    11    5    6 ar
    12    5    8 1
    13    6    7 ar
    14    6   23 1
    15    7   24 1
    16    8    9 1
    17    8   10 1
    18    8   33 1
    19   10   15 ar
    20   10   11 ar
    21   11   12 ar
    22   11   25 1
    23   12   13 ar
    24   12   26 1
    25   13   14 ar
    26   13   27 1
    27   14   15 ar
    28   14   28 1
    29   15   16 1
    30   16   17 1
    31   16   29 1
    32   16   30 1
    33   17   31 1
    34   17   32 1
    35   17   33 1
    36   33   34 1
    37   33   35 1
@<TRIPOS>MOLECULE
ZINC00968311
   44    46     0     0     0
SMALL
USER_CHARGES
1-(1-phenylcyclohexyl)piperidine
@<TRIPOS>ATOM
      1 C1         -6.8504    0.6158   -1.3000 C.ar      1 <0>        -0.0983
      2 C2         -5.9618   -0.3997   -1.0001 C.ar      1 <0>        -0.0987
      3 C3         -4.6847   -0.0953   -0.5672 C.ar      1 <0>        -0.0916
      4 C4         -4.2963    1.2246   -0.4342 C.ar      1 <0>        -0.1122
      5 C5         -5.1866    2.2402   -0.7291 C.ar      1 <0>        -0.1651
      6 C6         -6.4619    1.9358   -1.1669 C.ar      1 <0>        -0.1010
      7 C7         -2.9042    1.5565    0.0381 C.3       1 <0>         0.1193
      8 C8         -1.8862    0.7425   -0.7631 C.3       1 <0>        -0.1361
      9 C9         -0.4729    1.0794   -0.2835 C.3       1 <0>        -0.1341
     10 C10        -0.3434    0.7376    1.2022 C.3       1 <0>        -0.1320
     11 C11        -1.3614    1.5516    2.0034 C.3       1 <0>        -0.1367
     12 C12        -2.7747    1.2147    1.5238 C.3       1 <0>        -0.1352
     13 C13        -3.4122    3.7968    0.8019 C.3       1 <0>        -0.0359
     14 C14        -3.0128    5.2678    0.6650 C.3       1 <0>        -0.1453
     15 C15        -3.2968    5.7378   -0.7643 C.3       1 <0>        -0.1398
     16 C16        -2.5281    4.8504   -1.7473 C.3       1 <0>        -0.1447
     17 C17        -2.9415    3.3915   -1.5404 C.3       1 <0>        -0.0394
     18 H1         -7.8482    0.3780   -1.6378 H         1 <0>         0.1358
     19 H2         -6.2654   -1.4310   -1.1036 H         1 <0>         0.1373
     20 H3         -3.9906   -0.8888   -0.3326 H         1 <0>         0.1331
     21 H4         -4.8845    3.2714   -0.6209 H         1 <0>         0.1421
     22 H5         -7.1563    2.7292   -1.4009 H         1 <0>         0.1351
     23 H6         -1.9784    0.9860   -1.8215 H         1 <0>         0.0898
     24 H7         -2.0755   -0.3209   -0.6171 H         1 <0>         0.1120
     25 H8         -0.2835    2.1429   -0.4295 H         1 <0>         0.0554
     26 H9          0.2524    0.4995   -0.8543 H         1 <0>         0.0955
     27 H10        -0.5328   -0.3259    1.3482 H         1 <0>         0.0810
     28 H11         0.6635    0.9776    1.5438 H         1 <0>         0.0819
     29 H12        -1.2692    1.3081    3.0618 H         1 <0>         0.0942
     30 H13        -1.1721    2.6150    1.8574 H         1 <0>         0.0570
     31 H14        -3.5000    1.7946    2.0946 H         1 <0>         0.0914
     32 H15        -2.9641    0.1512    1.6698 H         1 <0>         0.1109
     33 H16        -4.4780    3.6896    0.6004 H         1 <0>         0.1454
     34 H17        -3.1980    3.4551    1.8145 H         1 <0>         0.1336
     35 H18        -1.9499    5.3779    0.8798 H         1 <0>         0.0864
     36 H19        -3.5902    5.8691    1.3673 H         1 <0>         0.1130
     37 H20        -2.9737    6.7726   -0.8785 H         1 <0>         0.0959
     38 H21        -4.3653    5.6654   -0.9671 H         1 <0>         0.0810
     39 H22        -1.4576    4.9538   -1.5704 H         1 <0>         0.0851
     40 H23        -2.7597    5.1530   -2.7685 H         1 <0>         0.1123
     41 H24        -2.3855    2.7553   -2.2290 H         1 <0>         0.1276
     42 H25        -4.0096    3.2863   -1.7309 H         1 <0>         0.1542
     43 N1         -2.6198    2.9937   -0.1533 N.4       1 <0>        -0.3833
     44 H26        -1.6215    3.1617    0.0183 H         1 <0>         0.4232
@<TRIPOS>BOND
     1    1    6 ar
     2    1    2 ar
     3    1   18 1
     4    2    3 ar
     5    2   19 1
     6    3    4 ar
     7    3   20 1
     8    4    5 ar
     9    4    7 1
    10    5    6 ar
    11    5   21 1
    12    6   22 1
    13    7   12 1
    14    7    8 1
    15    7   43 1
    16    8    9 1
    17    8   23 1
    18    8   24 1
    19    9   10 1
    20    9   25 1
    21    9   26 1
    22   10   11 1
    23   10   27 1
    24   10   28 1
    25   11   12 1
    26   11   29 1
    27   11   30 1
    28   12   31 1
    29   12   32 1
    30   13   14 1
    31   13   33 1
    32   13   34 1
    33   13   43 1
    34   14   15 1
    35   14   35 1
    36   14   36 1
    37   15   16 1
    38   15   37 1
    39   15   38 1
    40   16   17 1
    41   16   39 1
    42   16   40 1
    43   17   41 1
    44   17   42 1
    45   17   43 1
    46   43   44 1
@<TRIPOS>MOLECULE
ZINC00002131
   41    43     0     0     0
SMALL
USER_CHARGES

@<TRIPOS>ATOM
      1 C1          0.0098    1.3476    0.4159 C.2       1 <0>        -0.1666
      2 C2          1.2169    2.0207    0.3990 C.2       1 <0>        -0.0796
      3 C3          2.3427    1.3433    0.0660 C.2       1 <0>        -0.2320
      4 S1          1.7097   -0.2980   -0.2382 S.3       1 <0>         0.0426
      5 C4         -0.0125    0.0299    0.0990 C.2       1 <0>        -0.1293
      6 C5          3.7608    1.8454   -0.0244 C.3       1 <0>         0.1690
      7 C6          4.0266    2.8307    1.1156 C.3       1 <0>        -0.1327
      8 C7          5.4662    3.3405    1.0238 C.3       1 <0>        -0.1336
      9 C8          5.6730    4.0454   -0.3183 C.3       1 <0>        -0.1325
     10 C9          5.4072    3.0602   -1.4582 C.3       1 <0>        -0.1360
     11 C10         3.9676    2.5504   -1.3664 C.3       1 <0>        -0.1355
     12 N1          4.6893    0.7120    0.0816 N.4       1 <0>        -0.3759
     13 C11         4.5755   -0.1256   -1.1185 C.3       1 <0>        -0.0245
     14 C12         5.5976   -1.2623   -1.0504 C.3       1 <0>        -0.1421
     15 C13         5.3261   -2.1118    0.1945 C.3       1 <0>        -0.1399
     16 C14         5.3738   -1.2134    1.4338 C.3       1 <0>        -0.1418
     17 C15         4.3600   -0.0785    1.2737 C.3       1 <0>        -0.0289
     18 H1         -0.9014    1.8627    0.6820 H         1 <0>         0.1506
     19 H2          1.2623    3.0709    0.6471 H         1 <0>         0.1448
     20 H3         -0.8538   -0.6463    0.0607 H         1 <0>         0.1983
     21 H4          3.3376    3.6717    1.0370 H         1 <0>         0.1137
     22 H5          3.8792    2.3285    2.0717 H         1 <0>         0.0923
     23 H6          5.6556    4.0424    1.8359 H         1 <0>         0.0975
     24 H7          6.1551    2.4995    1.1024 H         1 <0>         0.0573
     25 H8          4.9841    4.8864   -0.3969 H         1 <0>         0.0816
     26 H9          6.6986    4.4086   -0.3837 H         1 <0>         0.0835
     27 H10         5.5546    3.5624   -2.4143 H         1 <0>         0.0963
     28 H11         6.0962    2.2192   -1.3796 H         1 <0>         0.0582
     29 H12         3.7782    1.8484   -2.1785 H         1 <0>         0.0923
     30 H13         3.2786    3.3914   -1.4450 H         1 <0>         0.1137
     31 H14         3.5707   -0.5440   -1.1751 H         1 <0>         0.1269
     32 H15         4.7659    0.4811   -2.0038 H         1 <0>         0.1375
     33 H16         5.5104   -1.8840   -1.9415 H         1 <0>         0.1146
     34 H17         6.6030   -0.8449   -0.9941 H         1 <0>         0.0890
     35 H18         4.3406   -2.5707    0.1147 H         1 <0>         0.0828
     36 H19         6.0857   -2.8890    0.2782 H         1 <0>         0.0970
     37 H20         5.1266   -1.8003    2.3185 H         1 <0>         0.1138
     38 H21         6.3745   -0.7951    1.5417 H         1 <0>         0.0869
     39 H22         4.3913    0.5629    2.1545 H         1 <0>         0.1313
     40 H23         3.3597   -0.4980    1.1661 H         1 <0>         0.1364
     41 H24         5.6337    1.0584    0.1592 H         1 <0>         0.4231
@<TRIPOS>BOND
     1    1    5 2
     2    1    2 1
     3    1   18 1
     4    2    3 2
     5    2   19 1
     6    3    4 1
     7    3    6 1
     8    4    5 1
     9    5   20 1
    10    6   11 1
    11    6    7 1
    12    6   12 1
    13    7    8 1
    14    7   21 1
    15    7   22 1
    16    8    9 1
    17    8   23 1
    18    8   24 1
    19    9   10 1
    20    9   25 1
    21    9   26 1
    22   10   11 1
    23   10   27 1
    24   10   28 1
    25   11   29 1
    26   11   30 1
    27   12   17 1
    28   12   13 1
    29   12   41 1
    30   13   14 1
    31   13   31 1
    32   13   32 1
    33   14   15 1
    34   14   33 1
    35   14   34 1
    36   15   16 1
    37   15   35 1
    38   15   36 1
    39   16   17 1
    40   16   37 1
    41   16   38 1
    42   17   39 1
    43   17   40 1
@<TRIPOS>MOLECULE
ZINC28091152
   31    33     0     0     0
SMALL
USER_CHARGES
8-phenyl-1,2,3,4-tetrahydroisoquinoline
@<TRIPOS>ATOM
      1 C1         -0.1011    8.0877    0.0539 C.ar      1 <0>        -0.1179
      2 C2         -0.8537    7.3831    0.9761 C.ar      1 <0>        -0.1184
      3 C3         -0.8406    6.0030    0.9713 C.ar      1 <0>        -0.1081
      4 C4         -0.0672    5.3195    0.0352 C.ar      1 <0>        -0.0459
      5 C5          0.6932    6.0343   -0.8880 C.ar      1 <0>        -0.1049
      6 C6          0.6685    7.4143   -0.8775 C.ar      1 <0>        -0.1174
      7 C7         -0.0486    3.8357    0.0255 C.ar      1 <0>        -0.0464
      8 C8          1.1602    3.1555    0.1378 C.ar      1 <0>        -0.1086
      9 C9          1.1724    1.7756    0.1295 C.ar      1 <0>        -0.1169
     10 C10        -0.0126    1.0758    0.0081 C.ar      1 <0>        -0.1185
     11 C11        -1.2206    1.7476   -0.1121 C.ar      1 <0>        -0.0686
     12 C12        -1.2453    3.1239   -0.0968 C.ar      1 <0>        -0.0663
     13 C13        -2.5320    3.8983   -0.2109 C.3       1 <0>         0.0878
     14 N1         -3.6009    3.0437   -0.7372 N.3       1 <0>        -0.6700
     15 C14        -3.7018    1.8080    0.0557 C.3       1 <0>         0.0423
     16 C15        -2.4834    0.9357   -0.2479 C.3       1 <0>        -0.0790
     17 H1         -0.1146    9.1676    0.0610 H         1 <0>         0.1231
     18 H2         -1.4531    7.9139    1.7009 H         1 <0>         0.1239
     19 H3         -1.4289    5.4538    1.6915 H         1 <0>         0.1208
     20 H4          1.2976    5.5095   -1.6130 H         1 <0>         0.1236
     21 H5          1.2543    7.9693   -1.5953 H         1 <0>         0.1248
     22 H6          2.0852    3.7053    0.2307 H         1 <0>         0.1243
     23 H7          2.1077    1.2429    0.2182 H         1 <0>         0.1253
     24 H8          0.0019   -0.0041    0.0023 H         1 <0>         0.1230
     25 H9         -2.8267    4.2681    0.7823 H         1 <0>         0.0462
     26 H10        -2.3880    4.7504   -0.8915 H         1 <0>         0.0907
     27 H11        -4.5588    3.5822   -0.6875 H         1 <0>         0.3476
     28 H12        -3.7256    2.0601    1.1261 H         1 <0>         0.0359
     29 H13        -4.6237    1.2726   -0.2154 H         1 <0>         0.0830
     30 H14        -2.5621    0.5492   -1.2747 H         1 <0>         0.0855
     31 H15        -2.4560    0.0939    0.4596 H         1 <0>         0.0793
@<TRIPOS>BOND
     1    1    6 ar
     2    1    2 ar
     3    1   17 1
     4    2    3 ar
     5    2   18 1
     6    3    4 ar
     7    3   19 1
     8    4    5 ar
     9    4    7 1
    10    5    6 ar
    11    5   20 1
    12    6   21 1
    13    7   12 ar
    14    7    8 ar
    15    8    9 ar
    16    8   22 1
    17    9   10 ar
    18    9   23 1
    19   10   11 ar
    20   10   24 1
    21   11   16 1
    22   11   12 ar
    23   12   13 1
    24   13   14 1
    25   13   25 1
    26   13   26 1
    27   14   15 1
    28   14   27 1
    29   15   16 1
    30   15   28 1
    31   15   29 1
    32   16   30 1
    33   16   31 1
@<TRIPOS>MOLECULE
ZINC25757829
   32    35     0     0     0
SMALL
USER_CHARGES

@<TRIPOS>ATOM
      1 C1         -0.0187    1.5258    0.0104 C.3       1 <0>        -0.1252
      2 C2          0.0021   -0.0041    0.0020 C.3       1 <0>         0.1700
      3 C3          0.7167   -0.5895   -1.2034 C.ar      1 <0>        -0.1069
      4 C4          0.8979    0.1802   -2.3343 C.ar      1 <0>        -0.1048
      5 C5          1.5405   -0.3573   -3.4350 C.ar      1 <0>        -0.1212
      6 C6          1.9955   -1.6623   -3.3949 C.ar      1 <0>        -0.1154
      7 C7          1.8143   -2.4276   -2.2597 C.ar      1 <0>        -0.1172
      8 C8          1.1755   -1.8892   -1.1532 C.ar      1 <0>        -0.0768
      9 C9          1.0113   -2.7345    0.0833 C.3       1 <0>        -0.1060
     10 C10         0.1766   -2.0033    1.1369 C.3       1 <0>         0.1001
     11 H1          0.2513   -2.4929    2.1079 H         1 <0>         0.1081
     12 N1          0.6774   -0.5970    1.1980 N.3       1 <0>        -0.6342
     13 C11        -1.2530   -1.8806    0.6988 C.ar      1 <0>        -0.0952
     14 C12        -1.3755   -0.6242    0.0348 C.ar      1 <0>        -0.0809
     15 C13        -2.5771   -0.1782   -0.4723 C.ar      1 <0>        -0.0931
     16 C14        -3.6801   -1.0063   -0.2906 C.ar      1 <0>        -0.1176
     17 C15        -3.5744   -2.2154    0.3646 C.ar      1 <0>        -0.1209
     18 C16        -2.3295   -2.7288    0.8705 C.ar      1 <0>        -0.0946
     19 H2          1.0039    1.9031    0.0027 H         1 <0>         0.0650
     20 H3         -0.5459    1.8868   -0.8726 H         1 <0>         0.0670
     21 H4         -0.5289    1.8773    0.9072 H         1 <0>         0.0732
     22 H5          0.5390    1.1985   -2.3601 H         1 <0>         0.1272
     23 H6          1.6860    0.2402   -4.3228 H         1 <0>         0.1244
     24 H7          2.4941   -2.0848   -4.2547 H         1 <0>         0.1231
     25 H8          2.1706   -3.4468   -2.2339 H         1 <0>         0.1229
     26 H9          0.5143   -3.6672   -0.1835 H         1 <0>         0.0854
     27 H10         1.9944   -2.9588    0.4973 H         1 <0>         0.0869
     28 H11         1.6807   -0.5800    1.0922 H         1 <0>         0.3441
     29 H12        -2.6584    0.7686   -0.9856 H         1 <0>         0.1300
     30 H13        -4.6417   -0.6950   -0.6711 H         1 <0>         0.1239
     31 H14        -4.4549   -2.8304    0.4782 H         1 <0>         0.1194
     32 H15        -2.2281   -3.6740    1.3830 H         1 <0>         0.1394
@<TRIPOS>BOND
     1    1    2 1
     2    1   19 1
     3    1   20 1
     4    1   21 1
     5    2   12 1
     6    2   14 1
     7    2    3 1
     8    3    8 ar
     9    3    4 ar
    10    4    5 ar
    11    4   22 1
    12    5    6 ar
    13    5   23 1
    14    6    7 ar
    15    6   24 1
    16    7    8 ar
    17    7   25 1
    18    8    9 1
    19    9   10 1
    20    9   26 1
    21    9   27 1
    22   10   11 1
    23   10   12 1
    24   10   13 1
    25   12   28 1
    26   13   18 ar
    27   13   14 ar
    28   14   15 ar
    29   15   16 ar
    30   15   29 1
    31   16   17 ar
    32   16   30 1
    33   17   18 ar
    34   17   31 1
    35   18   32 1
@<TRIPOS>MOLECULE
ZINC02516099
   46    48     0     0     0
SMALL
USER_CHARGES

@<TRIPOS>ATOM
      1 C1         -0.0146    1.3508   -0.0317 C.ar      1 <0>        -0.0633
      2 C2          1.1732    2.0713   -0.0072 C.ar      1 <0>        -0.1932
      3 C3          2.3991    1.4195   -0.0493 C.ar      1 <0>        -0.0836
      4 C4          2.4539    0.0584   -0.1150 C.ar      1 <0>        -0.0823
      5 C5          1.2506   -0.6915   -0.1404 C.ar      1 <0>         0.1699
      6 C6          0.0069   -0.0109   -0.0972 C.ar      1 <0>        -0.1578
      7 N1          1.2876   -2.0145   -0.2046 N.2       1 <0>        -0.4702
      8 C7          0.2231   -2.6692   -0.2266 C.1       1 <0>         0.2039
      9 S1         -1.1000   -3.4829   -0.2540 S.2       1 <0>         0.1045
     10 C8          3.6753    2.2206   -0.0226 C.3       1 <0>         0.1152
     11 C9          4.5640    1.8033   -1.1960 C.3       1 <0>        -0.1360
     12 C10         5.8596    2.6166   -1.1690 C.3       1 <0>        -0.1336
     13 C11         6.5969    2.3577    0.1465 C.3       1 <0>        -0.1324
     14 C12         5.7082    2.7750    1.3199 C.3       1 <0>        -0.1350
     15 C13         4.4125    1.9617    1.2928 C.3       1 <0>        -0.1359
     16 N2          3.3581    3.6507   -0.1329 N.4       1 <0>        -0.3706
     17 C14         2.6444    4.0865    1.0734 C.3       1 <0>        -0.0513
     18 C15         2.3830    5.5924    0.9999 C.3       1 <0>        -0.1434
     19 C16         1.5325    5.8976   -0.2365 C.3       1 <0>        -0.1408
     20 C17         2.2527    5.3721   -1.4817 C.3       1 <0>        -0.1427
     21 C18         2.5189    3.8744   -1.3162 C.3       1 <0>        -0.0575
     22 H1         -0.9598    1.8719    0.0057 H         1 <0>         0.1436
     23 H2          1.1430    3.1496    0.0448 H         1 <0>         0.1572
     24 H3          3.4086   -0.4456   -0.1480 H         1 <0>         0.1446
     25 H4         -0.9180   -0.5682   -0.1158 H         1 <0>         0.1354
     26 H5          4.7993    0.7422   -1.1142 H         1 <0>         0.1126
     27 H6          4.0387    1.9877   -2.1331 H         1 <0>         0.0915
     28 H7          6.4928    2.3194   -2.0049 H         1 <0>         0.0955
     29 H8          5.6243    3.6778   -1.2508 H         1 <0>         0.0568
     30 H9          6.8322    1.2966    0.2283 H         1 <0>         0.0808
     31 H10         7.5199    2.9372    0.1657 H         1 <0>         0.0824
     32 H11         6.2334    2.5906    2.2570 H         1 <0>         0.0948
     33 H12         5.4728    3.8361    1.2381 H         1 <0>         0.0578
     34 H13         3.7794    2.2590    2.1288 H         1 <0>         0.0932
     35 H14         4.6479    0.9005    1.3747 H         1 <0>         0.1119
     36 H15         1.6947    3.5564    1.1446 H         1 <0>         0.1529
     37 H16         3.2495    3.8657    1.9527 H         1 <0>         0.1353
     38 H17         1.8514    5.9137    1.8957 H         1 <0>         0.1136
     39 H18         3.3322    6.1236    0.9290 H         1 <0>         0.0867
     40 H19         0.5633    5.4079   -0.1421 H         1 <0>         0.0815
     41 H20         1.3909    6.9747   -0.3247 H         1 <0>         0.0967
     42 H21         1.6280    5.5359   -2.3597 H         1 <0>         0.1129
     43 H22         3.1991    5.8987   -1.6041 H         1 <0>         0.0855
     44 H23         3.0314    3.4970   -2.2011 H         1 <0>         0.1307
     45 H24         1.5718    3.3487   -1.1941 H         1 <0>         0.1617
     46 H25         4.2136    4.1778   -0.2240 H         1 <0>         0.4202
@<TRIPOS>BOND
     1    1    6 ar
     2    1    2 ar
     3    1   22 1
     4    2    3 ar
     5    2   23 1
     6    3    4 ar
     7    3   10 1
     8    4    5 ar
     9    4   24 1
    10    5    6 ar
    11    5    7 1
    12    6   25 1
    13    7    8 2
    14    8    9 2
    15   10   15 1
    16   10   11 1
    17   10   16 1
    18   11   12 1
    19   11   26 1
    20   11   27 1
    21   12   13 1
    22   12   28 1
    23   12   29 1
    24   13   14 1
    25   13   30 1
    26   13   31 1
    27   14   15 1
    28   14   32 1
    29   14   33 1
    30   15   34 1
    31   15   35 1
    32   16   21 1
    33   16   17 1
    34   16   46 1
    35   17   18 1
    36   17   36 1
    37   17   37 1
    38   18   19 1
    39   18   38 1
    40   18   39 1
    41   19   20 1
    42   19   40 1
    43   19   41 1
    44   20   21 1
    45   20   42 1
    46   20   43 1
    47   21   44 1
    48   21   45 1
@<TRIPOS>MOLECULE
ZINC01847743
   49    50     0     0     0
SMALL
USER_CHARGES

@<TRIPOS>ATOM
      1 C1          0.0272    1.5895   -0.6018 C.3       1 <0>        -0.1868
      2 C2         -0.0506    0.0678   -0.4632 C.3       1 <0>        -0.0192
      3 N1         -1.4518   -0.3370   -0.2880 N.4       1 <0>        -0.3882
      4 C3         -2.2062   -0.0320   -1.5110 C.3       1 <0>        -0.0150
      5 C4         -3.6911   -0.3190   -1.2792 C.3       1 <0>        -0.1886
      6 C5         -1.5149   -1.7801   -0.0207 C.3       1 <0>        -0.0054
      7 C6         -0.8362   -2.0812    1.3171 C.3       1 <0>         0.0262
      8 O1         -1.5758   -1.4681    2.3750 O.3       1 <0>        -0.3629
      9 C7         -1.1097   -1.6377    3.6223 C.2       1 <0>         0.4857
     10 O2         -0.1069   -2.2852    3.8096 O.2       1 <0>        -0.4766
     11 C8         -1.8370   -1.0205    4.7889 C.3       1 <0>        -0.0068
     12 C9         -1.8295    0.5131    4.6631 C.3       1 <0>        -0.1081
     13 C10        -1.0953    1.0538    5.9074 C.3       1 <0>        -0.1287
     14 C11        -0.2038   -0.1272    6.3654 C.3       1 <0>        -0.1276
     15 C12        -1.1070   -1.3582    6.1053 C.3       1 <0>        -0.1126
     16 C13        -3.2549   -1.5283    4.8400 C.ar      1 <0>        -0.0803
     17 C14        -3.6609   -2.5322    3.9807 C.ar      1 <0>        -0.1186
     18 C15        -4.9615   -2.9981    4.0275 C.ar      1 <0>        -0.1138
     19 C16        -5.8561   -2.4604    4.9339 C.ar      1 <0>        -0.1122
     20 C17        -5.4499   -1.4571    5.7938 C.ar      1 <0>        -0.1096
     21 C18        -4.1481   -0.9943    5.7499 C.ar      1 <0>        -0.1043
     22 H1          1.0720    1.8984   -0.6338 H         1 <0>         0.1071
     23 H2         -0.4708    1.8965   -1.5214 H         1 <0>         0.0826
     24 H3         -0.4641    2.0576    0.2512 H         1 <0>         0.0798
     25 H4          0.3531   -0.3999   -1.3613 H         1 <0>         0.1329
     26 H5          0.5301   -0.2484    0.4034 H         1 <0>         0.1274
     27 H6         -2.0749    1.0195   -1.7662 H         1 <0>         0.1336
     28 H7         -1.8395   -0.6528   -2.3284 H         1 <0>         0.1307
     29 H8         -4.2629   -0.0022   -2.1514 H         1 <0>         0.1070
     30 H9         -3.8340   -1.3878   -1.1197 H         1 <0>         0.0803
     31 H10        -4.0342    0.2284   -0.4013 H         1 <0>         0.0812
     32 H11        -2.5571   -2.0966    0.0212 H         1 <0>         0.1451
     33 H12        -1.0030   -2.3199   -0.8174 H         1 <0>         0.1511
     34 H13        -0.8041   -3.1594    1.4736 H         1 <0>         0.1149
     35 H14         0.1792   -1.6851    1.3066 H         1 <0>         0.0933
     36 H15        -1.2998    0.8109    3.7582 H         1 <0>         0.0658
     37 H16        -2.8517    0.8908    4.6393 H         1 <0>         0.0877
     38 H17        -0.4816    1.9152    5.6440 H         1 <0>         0.0749
     39 H18        -1.8096    1.3173    6.6874 H         1 <0>         0.0770
     40 H19         0.7046   -0.1808    5.7653 H         1 <0>         0.0698
     41 H20         0.0366   -0.0414    7.4251 H         1 <0>         0.0809
     42 H21        -1.8233   -1.4842    6.9172 H         1 <0>         0.0893
     43 H22        -0.5020   -2.2570    5.9862 H         1 <0>         0.0896
     44 H23        -2.9620   -2.9523    3.2726 H         1 <0>         0.1127
     45 H24        -5.2789   -3.7819    3.3557 H         1 <0>         0.1247
     46 H25        -6.8724   -2.8239    4.9699 H         1 <0>         0.1277
     47 H26        -6.1489   -1.0368    6.5017 H         1 <0>         0.1299
     48 H27        -3.8297   -0.2130    6.4242 H         1 <0>         0.1285
     49 H28        -1.8527    0.1668    0.4889 H         1 <0>         0.4279
@<TRIPOS>BOND
     1    1    2 1
     2    1   22 1
     3    1   23 1
     4    1   24 1
     5    2    3 1
     6    2   25 1
     7    2   26 1
     8    3    4 1
     9    3    6 1
    10    3   49 1
    11    4    5 1
    12    4   27 1
    13    4   28 1
    14    5   29 1
    15    5   30 1
    16    5   31 1
    17    6    7 1
    18    6   32 1
    19    6   33 1
    20    7    8 1
    21    7   34 1
    22    7   35 1
    23    8    9 1
    24    9   10 2
    25    9   11 1
    26   11   15 1
    27   11   12 1
    28   11   16 1
    29   12   13 1
    30   12   36 1
    31   12   37 1
    32   13   14 1
    33   13   38 1
    34   13   39 1
    35   14   15 1
    36   14   40 1
    37   14   41 1
    38   15   42 1
    39   15   43 1
    40   16   21 ar
    41   16   17 ar
    42   17   18 ar
    43   17   44 1
    44   18   19 ar
    45   18   45 1
    46   19   20 ar
    47   19   46 1
    48   20   21 ar
    49   20   47 1
    50   21   48 1
@<TRIPOS>MOLECULE
ZINC03830375
   56    57     0     0     0
SMALL
USER_CHARGES

@<TRIPOS>ATOM
      1 C1         -1.8932    1.8409    0.8517 C.3       1 <0>        -0.1882
      2 C2         -1.9995    0.3474    1.1662 C.3       1 <0>        -0.0162
      3 N1         -1.3265   -0.4240    0.1126 N.4       1 <0>        -0.3865
      4 C3          0.1116   -0.1247    0.1294 C.3       1 <0>        -0.0157
      5 C4          0.7880   -0.8047   -1.0626 C.3       1 <0>        -0.1886
      6 C5         -1.5308   -1.8592    0.3501 C.3       1 <0>        -0.0070
      7 C6         -3.0151   -2.1958    0.1938 C.3       1 <0>         0.0287
      8 O1         -3.4167   -1.9621   -1.1575 O.3       1 <0>        -0.3923
      9 C7         -4.8158   -2.1406   -1.3872 C.3       1 <0>         0.0682
     10 C8         -5.1302   -1.8658   -2.8591 C.3       1 <0>         0.0599
     11 O2         -4.4851   -2.8458   -3.6749 O.3       1 <0>        -0.3411
     12 C9         -4.6616   -2.7460   -5.0018 C.2       1 <0>         0.4789
     13 O3         -5.3412   -1.8560   -5.4556 O.2       1 <0>        -0.4927
     14 C10        -4.0120   -3.7439   -5.9255 C.3       1 <0>        -0.0086
     15 C11        -2.4805   -3.6496   -5.8104 C.3       1 <0>        -0.1062
     16 C12        -1.9561   -3.2669   -7.2098 C.3       1 <0>        -0.1275
     17 C13        -3.1631   -2.5764   -7.8920 C.3       1 <0>        -0.1266
     18 C14        -4.3649   -3.4153   -7.3909 C.3       1 <0>        -0.1120
     19 C15        -4.4715   -5.1380   -5.5841 C.ar      1 <0>        -0.0761
     20 C16        -5.4568   -5.3275   -4.6332 C.ar      1 <0>        -0.1141
     21 C17        -5.8783   -6.6063   -4.3200 C.ar      1 <0>        -0.1144
     22 C18        -5.3148   -7.6954   -4.9581 C.ar      1 <0>        -0.1151
     23 C19        -4.3302   -7.5058   -5.9096 C.ar      1 <0>        -0.1130
     24 C20        -3.9117   -6.2269   -6.2259 C.ar      1 <0>        -0.1061
     25 H1         -2.3926    2.4133    1.6335 H         1 <0>         0.1064
     26 H2         -0.8429    2.1286    0.8054 H         1 <0>         0.0811
     27 H3         -2.3684    2.0449   -0.1078 H         1 <0>         0.0803
     28 H4         -1.5243    0.1434    2.1257 H         1 <0>         0.1301
     29 H5         -3.0498    0.0597    1.2125 H         1 <0>         0.1279
     30 H6          0.2592    0.9533    0.0645 H         1 <0>         0.1326
     31 H7          0.5492   -0.4962    1.0560 H         1 <0>         0.1292
     32 H8          0.3765   -0.4060   -1.9899 H         1 <0>         0.0809
     33 H9          1.8606   -0.6136   -1.0294 H         1 <0>         0.1062
     34 H10         0.6088   -1.8789   -1.0179 H         1 <0>         0.0802
     35 H11        -0.9500   -2.4332   -0.3719 H         1 <0>         0.1419
     36 H12        -1.2057   -2.1103    1.3598 H         1 <0>         0.1437
     37 H13        -3.1785   -3.2437    0.4453 H         1 <0>         0.0997
     38 H14        -3.6028   -1.5659    0.8616 H         1 <0>         0.0748
     39 H15        -5.0968   -3.1645   -1.1406 H         1 <0>         0.0760
     40 H16        -5.3781   -1.4485   -0.7603 H         1 <0>         0.0815
     41 H17        -6.2077   -1.9148   -3.0158 H         1 <0>         0.0920
     42 H18        -4.7686   -0.8735   -3.1288 H         1 <0>         0.0776
     43 H19        -2.2070   -2.8820   -5.0864 H         1 <0>         0.0691
     44 H20        -2.0688   -4.6125   -5.5079 H         1 <0>         0.0841
     45 H21        -1.1177   -2.5753   -7.1271 H         1 <0>         0.0718
     46 H22        -1.6632   -4.1584   -7.7644 H         1 <0>         0.0745
     47 H23        -3.2516   -1.5406   -7.5641 H         1 <0>         0.0693
     48 H24        -3.0781   -2.6332   -8.9772 H         1 <0>         0.0782
     49 H25        -4.4610   -4.3307   -7.9747 H         1 <0>         0.0863
     50 H26        -5.2843   -2.8319   -7.4402 H         1 <0>         0.0889
     51 H27        -5.8970   -4.4766   -4.1347 H         1 <0>         0.1148
     52 H28        -6.6475   -6.7544   -3.5766 H         1 <0>         0.1237
     53 H29        -5.6436   -8.6945   -4.7129 H         1 <0>         0.1259
     54 H30        -3.8897   -8.3568   -6.4079 H         1 <0>         0.1278
     55 H31        -3.1451   -6.0785   -6.9720 H         1 <0>         0.1270
     56 H32        -1.7117   -0.1736   -0.7857 H         1 <0>         0.4289
@<TRIPOS>BOND
     1    1    2 1
     2    1   25 1
     3    1   26 1
     4    1   27 1
     5    2    3 1
     6    2   28 1
     7    2   29 1
     8    3    4 1
     9    3    6 1
    10    3   56 1
    11    4    5 1
    12    4   30 1
    13    4   31 1
    14    5   32 1
    15    5   33 1
    16    5   34 1
    17    6    7 1
    18    6   35 1
    19    6   36 1
    20    7    8 1
    21    7   37 1
    22    7   38 1
    23    8    9 1
    24    9   10 1
    25    9   39 1
    26    9   40 1
    27   10   11 1
    28   10   41 1
    29   10   42 1
    30   11   12 1
    31   12   13 2
    32   12   14 1
    33   14   18 1
    34   14   15 1
    35   14   19 1
    36   15   16 1
    37   15   43 1
    38   15   44 1
    39   16   17 1
    40   16   45 1
    41   16   46 1
    42   17   18 1
    43   17   47 1
    44   17   48 1
    45   18   49 1
    46   18   50 1
    47   19   24 ar
    48   19   20 ar
    49   20   21 ar
    50   20   51 1
    51   21   22 ar
    52   21   52 1
    53   22   23 ar
    54   22   53 1
    55   23   24 ar
    56   23   54 1
    57   24   55 1
