@<TRIPOS>MOLECULE
ZINC13608926
   49    52     0     0     0
SMALL
USER_CHARGES

@<TRIPOS>ATOM
      1 C1         -0.0178    1.4608    0.0101 C.3       1 <0>         0.0794
      2 N1          0.0021   -0.0041    0.0020 N.pl3     1 <0>        -0.9916
      3 C2          0.0241   -0.7433    1.2666 C.3       1 <0>         0.1446
      4 H1          0.0368   -1.8139    1.0620 H         1 <0>         0.1075
      5 C3         -1.2224   -0.3940    2.0846 C.3       1 <0>        -0.1128
      6 C4         -1.3285   -1.3441    3.2824 C.3       1 <0>        -0.0585
      7 C5          0.0006   -1.3647    4.0002 C.2       1 <0>         0.1015
      8 C6          1.1549   -0.9250    3.4542 C.2       1 <0>        -0.2007
      9 C7          2.1929   -1.1081    4.4473 C.ar      1 <0>        -0.0964
     10 C8          3.5647   -0.8377    4.4471 C.ar      1 <0>        -0.0780
     11 C9          4.2583   -1.1461    5.5911 C.ar      1 <0>        -0.1586
     12 C10         3.6400   -1.7001    6.7001 C.ar      1 <0>        -0.1160
     13 C11         2.2845   -1.9785    6.7277 C.ar      1 <0>        -0.1167
     14 C12         1.5545   -1.6753    5.5802 C.ar      1 <0>         0.1130
     15 N2          0.2319   -1.8165    5.2731 N.pl3     1 <0>        -0.4281
     16 C13        -0.7870   -2.3681    6.1696 C.3       1 <0>         0.0295
     17 C14        -0.8793   -3.8587    5.9683 C.2       1 <0>         0.4824
     18 O1         -0.1606   -4.4093    5.1517 O.co2     1 <0>        -0.6695
     19 O2         -1.6727   -4.5142    6.6221 O.co2     1 <0>        -0.6918
     20 C15         1.2775   -0.3595    2.0619 C.3       1 <0>        -0.0366
     21 S1         -0.0004   -0.8243   -1.4366 S.o2      1 <0>         2.6895
     22 O3         -0.5312   -2.1147   -1.1675 O.2       1 <0>        -0.9459
     23 O4         -0.5723    0.0488   -2.4009 O.2       1 <0>        -0.9564
     24 C16         1.6818   -1.0594   -1.9051 C.ar      1 <0>        -0.6907
     25 C17         2.3232   -0.1086   -2.6770 C.ar      1 <0>         0.0087
     26 C18         3.6427   -0.2917   -3.0447 C.ar      1 <0>        -0.1772
     27 C19         4.3224   -1.4280   -2.6397 C.ar      1 <0>         0.1540
     28 C20         3.6790   -2.3796   -1.8666 C.ar      1 <0>        -0.1722
     29 C21         2.3610   -2.1918   -1.4957 C.ar      1 <0>         0.0140
     30 F1          5.6122   -1.6082   -2.9990 F         1 <0>        -0.1308
     31 H2          1.0048    1.8381    0.0023 H         1 <0>         0.0560
     32 H3         -0.5450    1.8219   -0.8730 H         1 <0>         0.0823
     33 H4         -0.5280    1.8123    0.9069 H         1 <0>         0.0829
     34 H5         -1.1472    0.6333    2.4410 H         1 <0>         0.0736
     35 H6         -2.1088   -0.4978    1.4587 H         1 <0>         0.0768
     36 H7         -2.1055   -0.9921    3.9610 H         1 <0>         0.0791
     37 H8         -1.5713   -2.3477    2.9331 H         1 <0>         0.0908
     38 H9          4.0558   -0.4067    3.5871 H         1 <0>         0.1187
     39 H10         5.3199   -0.9509    5.6275 H         1 <0>         0.1080
     40 H11         4.2360   -1.9227    7.5728 H         1 <0>         0.1121
     41 H12         1.8143   -2.4110    7.5985 H         1 <0>         0.1207
     42 H13        -0.5138   -2.1573    7.2035 H         1 <0>         0.0839
     43 H14        -1.7515   -1.9111    5.9482 H         1 <0>         0.0855
     44 H15         2.1607   -0.7729    1.5749 H         1 <0>         0.0678
     45 H16         1.3596    0.7261    2.1142 H         1 <0>         0.0712
     46 H17         1.7927    0.7774   -2.9931 H         1 <0>         0.1493
     47 H18         4.1434    0.4510   -3.6481 H         1 <0>         0.1449
     48 H19         4.2081   -3.2664   -1.5504 H         1 <0>         0.1478
     49 H20         1.8603   -2.9317   -0.8890 H         1 <0>         0.1533
@<TRIPOS>BOND
     1    1    2 1
     2    1   31 1
     3    1   32 1
     4    1   33 1
     5    2    3 1
     6    2   21 1
     7    3    4 1
     8    3   20 1
     9    3    5 1
    10    5    6 1
    11    5   34 1
    12    5   35 1
    13    6    7 1
    14    6   36 1
    15    6   37 1
    16    7   15 1
    17    7    8 2
    18    8    9 1
    19    8   20 1
    20    9   14 ar
    21    9   10 ar
    22   10   11 ar
    23   10   38 1
    24   11   12 ar
    25   11   39 1
    26   12   13 ar
    27   12   40 1
    28   13   14 ar
    29   13   41 1
    30   14   15 1
    31   15   16 1
    32   16   17 1
    33   16   42 1
    34   16   43 1
    35   17   18 2
    36   17   19 1
    37   20   44 1
    38   20   45 1
    39   21   22 2
    40   21   23 2
    41   21   24 1
    42   24   29 ar
    43   24   25 ar
    44   25   26 ar
    45   25   46 1
    46   26   27 ar
    47   26   47 1
    48   27   28 ar
    49   27   30 1
    50   28   29 ar
    51   28   48 1
    52   29   49 1
@<TRIPOS>MOLECULE
ZINC13608929
   49    52     0     0     0
SMALL
USER_CHARGES

@<TRIPOS>ATOM
      1 C1         -0.0178    1.4608    0.0101 C.3       1 <0>         0.0770
      2 N1          0.0021   -0.0041    0.0020 N.pl3     1 <0>        -0.9909
      3 C2          0.0241   -0.7433    1.2666 C.3       1 <0>         0.1475
      4 H1          0.0368   -1.8139    1.0620 H         1 <0>         0.1040
      5 C3          1.2760   -0.3600    2.0609 C.3       1 <0>        -0.1186
      6 C4          1.4306   -1.3066    3.2563 C.3       1 <0>        -0.0571
      7 C5          0.1164   -1.3631    3.9991 C.2       1 <0>         0.0969
      8 C6         -1.0596   -0.9552    3.4752 C.2       1 <0>        -0.1950
      9 C7         -2.0733   -1.1665    4.4876 C.ar      1 <0>        -0.0975
     10 C8         -3.4518   -0.9334    4.5135 C.ar      1 <0>        -0.0762
     11 C9         -4.1149   -1.2604    5.6704 C.ar      1 <0>        -0.1590
     12 C10        -3.4607   -1.7964    6.7675 C.ar      1 <0>        -0.1150
     13 C11        -2.0980   -2.0382    6.7692 C.ar      1 <0>        -0.1181
     14 C12        -1.3984   -1.7160    5.6080 C.ar      1 <0>         0.1137
     15 N2         -0.0785   -1.8210    5.2759 N.pl3     1 <0>        -0.4287
     16 C13         0.9718   -2.3449    6.1526 C.3       1 <0>         0.0301
     17 C14         1.5633   -1.2166    6.9576 C.2       1 <0>         0.4823
     18 O1          1.1463   -0.0802    6.8125 O.co2     1 <0>        -0.6702
     19 O2          2.4590   -1.4402    7.7540 O.co2     1 <0>        -0.6924
     20 C15        -1.2240   -0.3936    2.0856 C.3       1 <0>        -0.0370
     21 S1         -0.0004   -0.8243   -1.4366 S.o2      1 <0>         2.6911
     22 O3         -0.5312   -2.1147   -1.1675 O.2       1 <0>        -0.9491
     23 O4         -0.5723    0.0488   -2.4009 O.2       1 <0>        -0.9550
     24 C16         1.6818   -1.0594   -1.9051 C.ar      1 <0>        -0.6910
     25 C17         2.3232   -0.1086   -2.6770 C.ar      1 <0>         0.0098
     26 C18         3.6427   -0.2917   -3.0447 C.ar      1 <0>        -0.1759
     27 C19         4.3224   -1.4280   -2.6397 C.ar      1 <0>         0.1542
     28 C20         3.6790   -2.3796   -1.8666 C.ar      1 <0>        -0.1737
     29 C21         2.3610   -2.1918   -1.4957 C.ar      1 <0>         0.0115
     30 F1          5.6122   -1.6082   -2.9990 F         1 <0>        -0.1304
     31 H2          1.0048    1.8381    0.0023 H         1 <0>         0.0565
     32 H3         -0.5450    1.8219   -0.8730 H         1 <0>         0.0829
     33 H4         -0.5280    1.8123    0.9069 H         1 <0>         0.0864
     34 H5          2.1528   -0.4398    1.4183 H         1 <0>         0.0720
     35 H6          1.1796    0.6650    2.4190 H         1 <0>         0.0786
     36 H7          1.6939   -2.3032    2.9021 H         1 <0>         0.0777
     37 H8          2.2104   -0.9334    3.9201 H         1 <0>         0.0866
     38 H9         -3.9704   -0.5155    3.6633 H         1 <0>         0.1207
     39 H10        -5.1805   -1.0941    5.7269 H         1 <0>         0.1087
     40 H11        -4.0337   -2.0340    7.6517 H         1 <0>         0.1122
     41 H12        -1.5997   -2.4571    7.6310 H         1 <0>         0.1203
     42 H13         0.5452   -3.0876    6.8268 H         1 <0>         0.0842
     43 H14         1.7518   -2.8081    5.5484 H         1 <0>         0.0848
     44 H15        -1.3346    0.6895    2.1397 H         1 <0>         0.0742
     45 H16        -2.1047   -0.8310    1.6154 H         1 <0>         0.0723
     46 H17         1.7927    0.7774   -2.9931 H         1 <0>         0.1502
     47 H18         4.1434    0.4510   -3.6481 H         1 <0>         0.1457
     48 H19         4.2081   -3.2664   -1.5504 H         1 <0>         0.1470
     49 H20         1.8603   -2.9317   -0.8890 H         1 <0>         0.1515
@<TRIPOS>BOND
     1    1    2 1
     2    1   31 1
     3    1   32 1
     4    1   33 1
     5    2    3 1
     6    2   21 1
     7    3    4 1
     8    3   20 1
     9    3    5 1
    10    5    6 1
    11    5   34 1
    12    5   35 1
    13    6    7 1
    14    6   36 1
    15    6   37 1
    16    7   15 1
    17    7    8 2
    18    8    9 1
    19    8   20 1
    20    9   14 ar
    21    9   10 ar
    22   10   11 ar
    23   10   38 1
    24   11   12 ar
    25   11   39 1
    26   12   13 ar
    27   12   40 1
    28   13   14 ar
    29   13   41 1
    30   14   15 1
    31   15   16 1
    32   16   17 1
    33   16   42 1
    34   16   43 1
    35   17   18 2
    36   17   19 1
    37   20   44 1
    38   20   45 1
    39   21   22 2
    40   21   23 2
    41   21   24 1
    42   24   29 ar
    43   24   25 ar
    44   25   26 ar
    45   25   46 1
    46   26   27 ar
    47   26   47 1
    48   27   28 ar
    49   27   30 1
    50   28   29 ar
    51   28   48 1
    52   29   49 1
@<TRIPOS>MOLECULE
ZINC03961849
   47    50     0     0     0
SMALL
USER_CHARGES
2-[(4-chlorophenyl)methyl-fluoro-methylsulfonyl-BLAHyl]acetic acid
@<TRIPOS>ATOM
      1 C1         -6.4410    3.4422   -0.0771 C.3       1 <0>        -0.6680
      2 S1         -6.2263    5.1766    0.4093 S.o2      1 <0>         2.4753
      3 O1         -6.2757    5.2978    1.8243 O.2       1 <0>        -0.9191
      4 O2         -7.0177    6.0184   -0.4179 O.2       1 <0>        -0.9355
      5 C2         -4.5612    5.5638   -0.0173 C.ar      1 <0>        -0.6388
      6 C3         -4.2992    6.5062   -0.9872 C.ar      1 <0>        -0.0283
      7 C4         -2.9909    6.8221   -1.3340 C.ar      1 <0>         0.0424
      8 C5         -1.9346    6.1941   -0.7095 C.ar      1 <0>        -0.0445
      9 C6         -2.1863    5.2365    0.2749 C.ar      1 <0>        -0.0680
     10 C7         -3.5098    4.9174    0.6244 C.ar      1 <0>         0.1754
     11 N1         -3.4482    3.9554    1.6069 N.pl3     1 <0>        -0.4588
     12 C8         -2.1367    3.6549    1.8906 C.2       1 <0>         0.0813
     13 C9         -1.3294    4.3965    1.1188 C.2       1 <0>        -0.1840
     14 C10         0.1222    4.0855    1.4114 C.3       1 <0>        -0.0512
     15 C11         0.0955    2.7384    2.1661 C.3       1 <0>        -0.0908
     16 C12        -1.3147    2.7562    2.7946 C.3       1 <0>        -0.0057
     17 H1         -1.2744    3.1663    3.8037 H         1 <0>         0.0987
     18 C13        -1.9038    1.3444    2.8187 C.3       1 <0>        -0.1654
     19 C14        -1.0210    0.4458    3.6458 C.2       1 <0>         0.4635
     20 O3         -0.0204    0.8879    4.1589 O.co2     1 <0>        -0.6318
     21 C15        -4.6097    3.3411    2.2547 C.3       1 <0>         0.1233
     22 C16        -4.6851    3.7981    3.6888 C.ar      1 <0>        -0.1087
     23 C17        -3.6604    3.4941    4.5656 C.ar      1 <0>        -0.1050
     24 C18        -3.7264    3.9178    5.8795 C.ar      1 <0>        -0.1157
     25 C19        -4.8234    4.6366    6.3201 C.ar      1 <0>        -0.0240
     26 C20        -5.8512    4.9356    5.4435 C.ar      1 <0>        -0.1266
     27 C21        -5.7815    4.5162    4.1284 C.ar      1 <0>        -0.0643
     28 Cl1        -4.9105    5.1625    7.9722 Cl        1 <0>        -0.0786
     29 F1         -2.7532    7.7493   -2.2873 F         1 <0>        -0.1388
     30 H2         -5.6239    2.8468    0.3303 H         1 <0>         0.1359
     31 H3         -7.3896    3.0709    0.3107 H         1 <0>         0.1413
     32 H4         -6.4384    3.3669   -1.1645 H         1 <0>         0.1398
     33 H5         -5.1189    7.0050   -1.4830 H         1 <0>         0.1576
     34 H6         -0.9186    6.4415   -0.9797 H         1 <0>         0.1436
     35 H7          0.5575    4.8631    2.0390 H         1 <0>         0.0746
     36 H8          0.6855    3.9889    0.4832 H         1 <0>         0.0692
     37 H9          0.8655    2.7079    2.9370 H         1 <0>         0.0988
     38 H10         0.2040    1.9022    1.4754 H         1 <0>         0.0724
     39 H11        -1.9636    0.9582    1.8011 H         1 <0>         0.0704
     40 H12        -2.9022    1.3747    3.2551 H         1 <0>         0.0660
     41 H13        -5.5178    3.6386    1.7304 H         1 <0>         0.0915
     42 H14        -4.5112    2.2560    2.2239 H         1 <0>         0.1076
     43 H15        -2.8062    2.9293    4.2227 H         1 <0>         0.1531
     44 H16        -2.9238    3.6841    6.5634 H         1 <0>         0.1351
     45 H17        -6.7080    5.4963    5.7869 H         1 <0>         0.1316
     46 H18        -6.5839    4.7492    3.4441 H         1 <0>         0.1730
     47 O4         -1.3434   -0.8471    3.8080 O.co2     1 <0>        -0.7697
@<TRIPOS>BOND
     1    1    2 1
     2    1   30 1
     3    1   31 1
     4    1   32 1
     5    2    3 2
     6    2    4 2
     7    2    5 1
     8    5   10 ar
     9    5    6 ar
    10    6    7 ar
    11    6   33 1
    12    7    8 ar
    13    7   29 1
    14    8    9 ar
    15    8   34 1
    16    9   13 1
    17    9   10 ar
    18   10   11 1
    19   11   12 1
    20   11   21 1
    21   12   16 1
    22   12   13 2
    23   13   14 1
    24   14   15 1
    25   14   35 1
    26   14   36 1
    27   15   16 1
    28   15   37 1
    29   15   38 1
    30   16   17 1
    31   16   18 1
    32   18   19 1
    33   18   39 1
    34   18   40 1
    35   19   20 2
    36   19   47 1
    37   21   22 1
    38   21   41 1
    39   21   42 1
    40   22   27 ar
    41   22   23 ar
    42   23   24 ar
    43   23   43 1
    44   24   25 ar
    45   24   44 1
    46   25   26 ar
    47   25   28 1
    48   26   27 ar
    49   26   45 1
    50   27   46 1
@<TRIPOS>MOLECULE
ZINC27646610
   47    50     0     0     0
SMALL
USER_CHARGES
2-[(3S)-4-[(4-chlorophenyl)methyl]-7-fluoro-5-methylsulfonyl-2,3-dihydro-1H-cyclopenta[b]indol-3-yl]acetic acid
@<TRIPOS>ATOM
      1 C1          6.6124    3.3508   -1.8939 C.3       1 <0>        -0.6698
      2 S1          7.2485    1.9458   -0.9389 S.o2      1 <0>         2.4819
      3 O1          7.3367    2.2891    0.4372 O.2       1 <0>        -0.9110
      4 O2          8.3537    1.3575   -1.6110 O.2       1 <0>        -0.9369
      5 C2          5.9752    0.7305   -1.0185 C.ar      1 <0>        -0.6399
      6 C3          6.1622   -0.4166   -1.7578 C.ar      1 <0>        -0.0295
      7 C4          5.1662   -1.3834   -1.8307 C.ar      1 <0>         0.0436
      8 C5          3.9744   -1.2065   -1.1612 C.ar      1 <0>        -0.0463
      9 C6          3.7725   -0.0487   -0.4074 C.ar      1 <0>        -0.0674
     10 C7          4.7799    0.9287   -0.3351 C.ar      1 <0>         0.1734
     11 N1          4.3042    1.9416    0.4664 N.pl3     1 <0>        -0.4626
     12 C8          3.0359    1.6403    0.9037 C.2       1 <0>         0.0883
     13 C9          2.6614    0.4517    0.4092 C.2       1 <0>        -0.1903
     14 C10         1.2670    0.0949    0.8760 C.3       1 <0>        -0.0516
     15 C11         0.9986    1.0291    2.0761 C.3       1 <0>        -0.0893
     16 C12         1.9292    2.2206    1.7635 C.3       1 <0>         0.0008
     17 H1          1.4097    3.0430    1.2499 H         1 <0>         0.1008
     18 C13         2.5080    2.7973    3.0570 C.3       1 <0>        -0.1554
     19 C14         1.4187    3.5006    3.8250 C.2       1 <0>         0.4621
     20 O3          0.2948    3.5369    3.3831 O.co2     1 <0>        -0.6387
     21 O4          1.6971    4.0867    5.0001 O.co2     1 <0>        -0.7695
     22 C15         5.0412    3.1619    0.8041 C.3       1 <0>         0.1307
     23 C16         5.6893    2.9997    2.1549 C.ar      1 <0>        -0.0515
     24 C17         6.3283    4.0726    2.7479 C.ar      1 <0>        -0.0926
     25 C18         6.9180    3.9260    3.9894 C.ar      1 <0>        -0.1044
     26 C19         6.8783    2.7022    4.6335 C.ar      1 <0>        -0.0307
     27 C20         6.2435    1.6273    4.0370 C.ar      1 <0>        -0.1047
     28 C21         5.6494    1.7767    2.7981 C.ar      1 <0>        -0.0780
     29 Cl1         7.6244    2.5156    6.1899 Cl        1 <0>        -0.0814
     30 F1          5.3671   -2.5017   -2.5617 F         1 <0>        -0.1390
     31 H2          6.5487    3.0732   -2.9564 H         1 <0>         0.1388
     32 H3          7.2906    4.2092   -1.7792 H         1 <0>         0.1403
     33 H4          5.6122    3.6220   -1.5252 H         1 <0>         0.1346
     34 H5          7.0920   -0.5661   -2.2865 H         1 <0>         0.1570
     35 H6          3.1999   -1.9566   -1.2229 H         1 <0>         0.1431
     36 H7          0.5514    0.2670    0.0585 H         1 <0>         0.0735
     37 H8          1.2389   -0.9645    1.1709 H         1 <0>         0.0677
     38 H9         -0.0660    1.3052    2.0949 H         1 <0>         0.0924
     39 H10         1.2594    0.5101    3.0103 H         1 <0>         0.0720
     40 H11         2.9207    1.9821    3.6694 H         1 <0>         0.0661
     41 H12         3.3065    3.5138    2.8140 H         1 <0>         0.0639
     42 H13         5.8162    3.3441    0.0450 H         1 <0>         0.0904
     43 H14         4.3465    4.0143    0.8307 H         1 <0>         0.1097
     44 H15         6.3630    5.0267    2.2430 H         1 <0>         0.1282
     45 H16         7.4134    4.7654    4.4545 H         1 <0>         0.1309
     46 H17         6.2120    0.6719    4.5395 H         1 <0>         0.1279
     47 H18         5.1535    0.9378    2.3325 H         1 <0>         0.1228
@<TRIPOS>BOND
     1    1    2 1
     2    1   31 1
     3    1   32 1
     4    1   33 1
     5    2    3 2
     6    2    4 2
     7    2    5 1
     8    5   10 ar
     9    5    6 ar
    10    6    7 ar
    11    6   34 1
    12    7    8 ar
    13    7   30 1
    14    8    9 ar
    15    8   35 1
    16    9   13 1
    17    9   10 ar
    18   10   11 1
    19   11   12 1
    20   11   22 1
    21   12   16 1
    22   12   13 2
    23   13   14 1
    24   14   15 1
    25   14   36 1
    26   14   37 1
    27   15   16 1
    28   15   38 1
    29   15   39 1
    30   16   17 1
    31   16   18 1
    32   18   19 1
    33   18   40 1
    34   18   41 1
    35   19   20 2
    36   19   21 1
    37   22   23 1
    38   22   42 1
    39   22   43 1
    40   23   28 ar
    41   23   24 ar
    42   24   25 ar
    43   24   44 1
    44   25   26 ar
    45   25   45 1
    46   26   27 ar
    47   26   29 1
    48   27   28 ar
    49   27   46 1
    50   28   47 1
@<TRIPOS>MOLECULE
ZINC01693809
   25    25     0     0     0
SMALL
USER_CHARGES
2-(2-allyl-4-chloro-phenoxy)acetic acid
@<TRIPOS>ATOM
      1 C1         -0.0157    1.3058    0.0092 C.2       1 <0>        -0.2099
      2 C2          0.0021   -0.0041    0.0020 C.2       1 <0>        -0.1264
      3 C3          1.3172   -0.7397   -0.0145 C.3       1 <0>        -0.0467
      4 C4          1.3689   -1.7024    1.1438 C.ar      1 <0>        -0.1066
      5 C5          1.9709   -1.3262    2.3291 C.ar      1 <0>        -0.0677
      6 C6          2.0186   -2.2096    3.3926 C.ar      1 <0>        -0.0830
      7 C7          1.4636   -3.4715    3.2717 C.ar      1 <0>        -0.0707
      8 C8          0.8613   -3.8515    2.0882 C.ar      1 <0>        -0.2036
      9 C9          0.8070   -2.9647    1.0225 C.ar      1 <0>         0.1499
     10 O1          0.2094   -3.3347   -0.1408 O.3       1 <0>        -0.2780
     11 C10        -0.3479   -4.6495   -0.1944 C.3       1 <0>         0.0149
     12 C11        -0.9626   -4.8796   -1.5510 C.2       1 <0>         0.4695
     13 O2         -0.9272   -4.0072   -2.3862 O.co2     1 <0>        -0.6119
     14 Cl1         2.7751   -1.7343    4.8811 Cl        1 <0>        -0.0851
     15 H1          0.9122    1.8585    0.0033 H         1 <0>         0.0928
     16 H2         -0.9582    1.8330    0.0166 H         1 <0>         0.0948
     17 H3         -0.9258   -0.5567    0.0079 H         1 <0>         0.1117
     18 H4          1.4134   -1.2911   -0.9498 H         1 <0>         0.0957
     19 H5          2.1349   -0.0241    0.0711 H         1 <0>         0.0734
     20 H6          2.4042   -0.3416    2.4255 H         1 <0>         0.1343
     21 H7          1.5019   -4.1598    4.1031 H         1 <0>         0.1313
     22 H8          0.4284   -4.8365    1.9942 H         1 <0>         0.1390
     23 H9          0.4383   -5.3846   -0.0224 H         1 <0>         0.0683
     24 H10        -1.1144   -4.7508    0.5738 H         1 <0>         0.0682
     25 O3         -1.5495   -6.0537   -1.8314 O.co2     1 <0>        -0.7541
@<TRIPOS>BOND
     1    1    2 2
     2    1   15 1
     3    1   16 1
     4    2    3 1
     5    2   17 1
     6    3    4 1
     7    3   18 1
     8    3   19 1
     9    4    9 ar
    10    4    5 ar
    11    5    6 ar
    12    5   20 1
    13    6    7 ar
    14    6   14 1
    15    7    8 ar
    16    7   21 1
    17    8    9 ar
    18    8   22 1
    19    9   10 1
    20   10   11 1
    21   11   12 1
    22   11   23 1
    23   11   24 1
    24   12   13 2
    25   12   25 1
@<TRIPOS>MOLECULE
ZINC01628222
   34    35     0     0     0
SMALL
USER_CHARGES
2-(4-chloro-2-cyclohexyl-phenoxy)acetic acid
@<TRIPOS>ATOM
      1 C1          3.9989    2.5655   -0.0209 C.ar      1 <0>        -0.0720
      2 C2          3.7684    1.2032   -0.0256 C.ar      1 <0>        -0.2039
      3 C3          2.4681    0.7207   -0.0118 C.ar      1 <0>         0.1491
      4 C4          1.4011    1.6074   -0.0027 C.ar      1 <0>        -0.1021
      5 C5          1.6355    2.9686    0.0024 C.ar      1 <0>        -0.0682
      6 C6          2.9337    3.4481   -0.0070 C.ar      1 <0>        -0.0831
      7 Cl1         3.2258    5.1593   -0.0006 Cl        1 <0>        -0.0866
      8 C7         -0.0127    1.0858    0.0080 C.3       1 <0>        -0.0451
      9 C8         -0.7288    1.5792    1.2668 C.3       1 <0>        -0.1068
     10 C9         -2.1642    1.0497    1.2777 C.3       1 <0>        -0.1208
     11 C10        -2.9042    1.5565    0.0381 C.3       1 <0>        -0.1171
     12 C11        -2.1881    1.0631   -1.2207 C.3       1 <0>        -0.1208
     13 C12        -0.7527    1.5927   -1.2315 C.3       1 <0>        -0.1068
     14 O1          2.2394   -0.6192   -0.0112 O.3       1 <0>        -0.2791
     15 C13         3.3853   -1.4729   -0.0209 C.3       1 <0>         0.0155
     16 C14         2.9394   -2.9124   -0.0186 C.2       1 <0>         0.4697
     17 O2          1.7611   -3.1798   -0.0096 O.co2     1 <0>        -0.6122
     18 H1          5.0113    2.9415   -0.0278 H         1 <0>         0.1303
     19 H2          4.6003    0.5145   -0.0358 H         1 <0>         0.1381
     20 H3          0.8052    3.6592    0.0133 H         1 <0>         0.1333
     21 H4          0.0021   -0.0041    0.0020 H         1 <0>         0.0985
     22 H5         -0.2017    1.2182    2.1499 H         1 <0>         0.0626
     23 H6         -0.7436    2.6691    1.2728 H         1 <0>         0.0587
     24 H7         -2.6744    1.4012    2.1745 H         1 <0>         0.0589
     25 H8         -2.1494   -0.0402    1.2717 H         1 <0>         0.0664
     26 H9         -2.9190    2.6464    0.0441 H         1 <0>         0.0578
     27 H10        -3.9268    1.1792    0.0459 H         1 <0>         0.0578
     28 H11        -2.7153    1.4241   -2.1037 H         1 <0>         0.0589
     29 H12        -2.1733   -0.0268   -1.2266 H         1 <0>         0.0664
     30 H13        -0.7675    2.6825   -1.2255 H         1 <0>         0.0588
     31 H14        -0.2425    1.2411   -2.1283 H         1 <0>         0.0625
     32 H15         3.9767   -1.2771   -0.9154 H         1 <0>         0.0677
     33 H16         3.9907   -1.2787    0.8645 H         1 <0>         0.0677
     34 O3          3.8511   -3.8975   -0.0266 O.co2     1 <0>        -0.7543
@<TRIPOS>BOND
     1    1    6 ar
     2    1    2 ar
     3    1   18 1
     4    2    3 ar
     5    2   19 1
     6    3    4 ar
     7    3   14 1
     8    4    5 ar
     9    4    8 1
    10    5    6 ar
    11    5   20 1
    12    6    7 1
    13    8   13 1
    14    8    9 1
    15    8   21 1
    16    9   10 1
    17    9   22 1
    18    9   23 1
    19   10   11 1
    20   10   24 1
    21   10   25 1
    22   11   12 1
    23   11   26 1
    24   11   27 1
    25   12   13 1
    26   12   28 1
    27   12   29 1
    28   13   30 1
    29   13   31 1
    30   14   15 1
    31   15   16 1
    32   15   32 1
    33   15   33 1
    34   16   17 2
    35   16   34 1
@<TRIPOS>MOLECULE
ZINC28948314
   38    39     0     0     0
SMALL
USER_CHARGES
methyl 2-(4-chloro-2-cyclohexyl-phenoxy)acetate
@<TRIPOS>ATOM
      1 C1          3.3491   -5.2598   -0.0240 C.3       1 <0>         0.0335
      2 O1          3.8508   -3.8972   -0.0268 O.3       1 <0>        -0.3552
      3 C2          2.9390   -2.9121   -0.0187 C.2       1 <0>         0.4628
      4 O2          1.7608   -3.1795   -0.0096 O.2       1 <0>        -0.4801
      5 C3          3.3850   -1.4726   -0.0210 C.3       1 <0>         0.0632
      6 O3          2.2391   -0.6189   -0.0112 O.3       1 <0>        -0.2877
      7 C4          2.4678    0.7209   -0.0119 C.ar      1 <0>         0.1338
      8 C5          3.7685    1.2036   -0.0271 C.ar      1 <0>        -0.1944
      9 C6          3.9989    2.5655   -0.0224 C.ar      1 <0>        -0.0732
     10 C7          2.9333    3.4484   -0.0075 C.ar      1 <0>        -0.0653
     11 C8          1.6356    2.9690    0.0024 C.ar      1 <0>        -0.0678
     12 C9          1.4011    1.6074   -0.0027 C.ar      1 <0>        -0.0859
     13 C10        -0.0127    1.0858    0.0080 C.3       1 <0>        -0.0448
     14 C11        -0.7288    1.5792    1.2668 C.3       1 <0>        -0.1097
     15 C12        -2.1642    1.0497    1.2777 C.3       1 <0>        -0.1207
     16 C13        -2.9042    1.5565    0.0381 C.3       1 <0>        -0.1212
     17 C14        -2.1881    1.0631   -1.2207 C.3       1 <0>        -0.1207
     18 C15        -0.7527    1.5927   -1.2315 C.3       1 <0>        -0.1097
     19 Cl1         3.2255    5.1596   -0.0005 Cl        1 <0>        -0.0673
     20 H1          4.1956   -5.9622   -0.0313 H         1 <0>         0.1093
     21 H2          2.7287   -5.4239   -0.9174 H         1 <0>         0.0680
     22 H3          2.7430   -5.4255    0.8789 H         1 <0>         0.0680
     23 H4          3.9959   -1.2766    0.8725 H         1 <0>         0.1112
     24 H5          3.9817   -1.2750   -0.9237 H         1 <0>         0.1111
     25 H6          4.6003    0.5149   -0.0381 H         1 <0>         0.1395
     26 H7          5.0113    2.9415   -0.0301 H         1 <0>         0.1382
     27 H8          0.8053    3.6596    0.0137 H         1 <0>         0.1411
     28 H9          0.0179   -0.0138    0.0018 H         1 <0>         0.0932
     29 H10        -0.1968    1.2148    2.1579 H         1 <0>         0.0630
     30 H11        -0.7437    2.6791    1.2729 H         1 <0>         0.0637
     31 H12        -2.1493   -0.0502    1.2717 H         1 <0>         0.0638
     32 H13        -2.6791    1.4045    2.1827 H         1 <0>         0.0632
     33 H14        -3.9362    1.1757    0.0459 H         1 <0>         0.0617
     34 H15        -2.9192    2.6564    0.0441 H         1 <0>         0.0617
     35 H16        -2.1732   -0.0368   -1.2268 H         1 <0>         0.0638
     36 H17        -2.7201    1.4275   -2.1119 H         1 <0>         0.0632
     37 H18        -0.7676    2.6926   -1.2254 H         1 <0>         0.0638
     38 H19        -0.2378    1.2381   -2.1366 H         1 <0>         0.0630
@<TRIPOS>BOND
     1    1    2 1
     2    1   20 1
     3    1   21 1
     4    1   22 1
     5    2    3 1
     6    3    4 2
     7    3    5 1
     8    5    6 1
     9    5   23 1
    10    5   24 1
    11    6    7 1
    12    7   12 ar
    13    7    8 ar
    14    8    9 ar
    15    8   25 1
    16    9   10 ar
    17    9   26 1
    18   10   11 ar
    19   10   19 1
    20   11   12 ar
    21   11   27 1
    22   12   13 1
    23   13   18 1
    24   13   14 1
    25   13   28 1
    26   14   15 1
    27   14   29 1
    28   14   30 1
    29   15   16 1
    30   15   31 1
    31   15   32 1
    32   16   17 1
    33   16   33 1
    34   16   34 1
    35   17   18 1
    36   17   35 1
    37   17   36 1
    38   18   37 1
    39   18   38 1
@<TRIPOS>MOLECULE
ZINC00538278
   49    52     0     0     0
SMALL
USER_CHARGES

@<TRIPOS>ATOM
      1 C1         -0.0164    1.3617    0.0095 C.ar      1 <0>        -0.1503
      2 C2          1.1695    2.0834    0.0021 C.ar      1 <0>        -0.1098
      3 C3          2.3850    1.4357   -0.0135 C.ar      1 <0>        -0.1187
      4 C4          2.4282    0.0454   -0.0210 C.ar      1 <0>         0.0997
      5 C5          1.2228   -0.6826   -0.0127 C.ar      1 <0>        -0.0952
      6 C6          0.0021   -0.0041    0.0020 C.ar      1 <0>        -0.0789
      7 C7          1.6075   -2.0903   -0.0228 C.2       1 <0>        -0.1953
      8 C8          2.9533   -2.1393   -0.0365 C.2       1 <0>         0.0953
      9 N1          3.4582   -0.8697   -0.0359 N.pl3     1 <0>        -0.4640
     10 C9          4.8835   -0.5316   -0.0495 C.3       1 <0>         0.1265
     11 C10         5.3951   -0.4207    1.3882 C.3       1 <0>        -0.1963
     12 C11         6.8614   -0.0729    1.3742 C.2       1 <0>         0.4965
     13 O1          7.4432    0.0729    0.3128 O.co2     1 <0>        -0.6964
     14 O2          7.4658    0.0628    2.4244 O.co2     1 <0>        -0.6959
     15 C12         3.7446   -3.4271   -0.0513 C.3       1 <0>        -0.0602
     16 C13         2.8104   -4.5680   -0.4693 C.3       1 <0>        -0.1293
     17 C14         1.5368   -4.5231    0.3796 C.3       1 <0>         0.1535
     18 H1          1.8045   -4.4549    1.4340 H         1 <0>         0.0872
     19 C15         0.7052   -3.2972   -0.0174 C.3       1 <0>        -0.0362
     20 N2          0.7542   -5.7404    0.1517 N.pl3     1 <0>        -1.1092
     21 S1          0.9164   -7.0327    1.1744 S.o2      1 <0>         2.6953
     22 O3          0.0195   -8.0327    0.7108 O.2       1 <0>        -0.9592
     23 O4          2.3109   -7.2664    1.3156 O.2       1 <0>        -0.9476
     24 C16         0.3287   -6.5230    2.7554 C.ar      1 <0>        -0.6926
     25 C17         1.1989   -5.9495    3.6637 C.ar      1 <0>         0.0100
     26 C18         0.7389   -5.5488    4.9038 C.ar      1 <0>        -0.1720
     27 C19        -0.5939   -5.7220    5.2364 C.ar      1 <0>         0.1568
     28 C20        -1.4645   -6.2965    4.3258 C.ar      1 <0>        -0.1764
     29 C21        -1.0034   -6.6916    3.0843 C.ar      1 <0>         0.0108
     30 F1         -1.0445   -5.3311    6.4485 F         1 <0>        -0.1292
     31 H2         -0.9614    1.8845    0.0259 H         1 <0>         0.1158
     32 H3          1.1388    3.1629    0.0082 H         1 <0>         0.1203
     33 H4          3.3022    2.0059   -0.0201 H         1 <0>         0.1195
     34 H5         -0.9250   -0.5580    0.0079 H         1 <0>         0.1144
     35 H6          5.4370   -1.3112   -0.5730 H         1 <0>         0.0901
     36 H7          5.0262    0.4207   -0.5603 H         1 <0>         0.0877
     37 H8          4.8417    0.3589    1.9117 H         1 <0>         0.0628
     38 H9          5.2525   -1.3730    1.8990 H         1 <0>         0.0630
     39 H10         4.5643   -3.3449   -0.7651 H         1 <0>         0.0874
     40 H11         4.1411   -3.6246    0.9446 H         1 <0>         0.0878
     41 H12         2.5496   -4.4568   -1.5217 H         1 <0>         0.0764
     42 H13         3.3137   -5.5231   -0.3189 H         1 <0>         0.0884
     43 H14        -0.0989   -3.1503    0.7037 H         1 <0>         0.0738
     44 H15         0.2863   -3.4460   -1.0126 H         1 <0>         0.0754
     45 H16         0.1409   -5.7894   -0.5982 H         1 <0>         0.4202
     46 H17         2.2385   -5.8148    3.4043 H         1 <0>         0.1530
     47 H18         1.4190   -5.1012    5.6134 H         1 <0>         0.1486
     48 H19        -2.5043   -6.4324    4.5842 H         1 <0>         0.1460
     49 H20        -1.6832   -7.1356    2.3722 H         1 <0>         0.1507
@<TRIPOS>BOND
     1    1    6 ar
     2    1    2 ar
     3    1   31 1
     4    2    3 ar
     5    2   32 1
     6    3    4 ar
     7    3   33 1
     8    4    9 1
     9    4    5 ar
    10    5    6 ar
    11    5    7 1
    12    6   34 1
    13    7   19 1
    14    7    8 2
    15    8    9 1
    16    8   15 1
    17    9   10 1
    18   10   11 1
    19   10   35 1
    20   10   36 1
    21   11   12 1
    22   11   37 1
    23   11   38 1
    24   12   13 2
    25   12   14 1
    26   15   16 1
    27   15   39 1
    28   15   40 1
    29   16   17 1
    30   16   41 1
    31   16   42 1
    32   17   18 1
    33   17   19 1
    34   17   20 1
    35   19   43 1
    36   19   44 1
    37   20   21 1
    38   20   45 1
    39   21   22 2
    40   21   23 2
    41   21   24 1
    42   24   29 ar
    43   24   25 ar
    44   25   26 ar
    45   25   46 1
    46   26   27 ar
    47   26   47 1
    48   27   28 ar
    49   27   30 1
    50   28   29 ar
    51   28   48 1
    52   29   49 1
@<TRIPOS>MOLECULE
ZINC03798772
   49    52     0     0     0
SMALL
USER_CHARGES

@<TRIPOS>ATOM
      1 C1         -0.0164    1.3617    0.0095 C.ar      1 <0>        -0.1503
      2 C2          1.1695    2.0834    0.0021 C.ar      1 <0>        -0.1089
      3 C3          2.3851    1.4357   -0.0134 C.ar      1 <0>        -0.1195
      4 C4          2.4282    0.0454   -0.0215 C.ar      1 <0>         0.1005
      5 C5          1.2228   -0.6826   -0.0136 C.ar      1 <0>        -0.0956
      6 C6          0.0021   -0.0041    0.0020 C.ar      1 <0>        -0.0775
      7 C7          1.6074   -2.0902   -0.0259 C.2       1 <0>        -0.1906
      8 C8          2.9532   -2.1394   -0.0392 C.2       1 <0>         0.0922
      9 N1          3.4581   -0.8698   -0.0368 N.pl3     1 <0>        -0.4644
     10 C9          4.8835   -0.5317   -0.0492 C.3       1 <0>         0.1271
     11 C10         5.3943   -0.4225    1.3889 C.3       1 <0>        -0.1965
     12 C11         6.8605   -0.0747    1.3762 C.2       1 <0>         0.4963
     13 O1          7.4430    0.0722    0.3152 O.co2     1 <0>        -0.6964
     14 O2          7.4643    0.0598    2.4268 O.co2     1 <0>        -0.6959
     15 C12         3.7444   -3.4272   -0.0530 C.3       1 <0>        -0.0592
     16 C13         2.8184   -4.5723    0.3718 C.3       1 <0>        -0.1330
     17 C14         1.5284   -4.5190   -0.4515 C.3       1 <0>         0.1483
     18 H1          1.7755   -4.4401   -1.5102 H         1 <0>         0.0978
     19 C15         0.7050   -3.2971   -0.0257 C.3       1 <0>        -0.0344
     20 N2          0.7502   -5.7385   -0.2206 N.pl3     1 <0>        -1.1087
     21 S1          0.8922   -7.0204   -1.2593 S.o2      1 <0>         2.6968
     22 O3          0.0447   -8.0450   -0.7581 O.2       1 <0>        -0.9588
     23 O4          0.7581   -6.4956   -2.5729 O.2       1 <0>        -0.9517
     24 C16         2.5431   -7.6210   -1.1230 C.ar      1 <0>        -0.6929
     25 C17         3.5344   -7.1073   -1.9382 C.ar      1 <0>         0.0105
     26 C18         4.8297   -7.5772   -1.8320 C.ar      1 <0>        -0.1722
     27 C19         5.1344   -8.5628   -0.9085 C.ar      1 <0>         0.1585
     28 C20         4.1407   -9.0765   -0.0925 C.ar      1 <0>        -0.1756
     29 C21         2.8472   -8.6013   -0.1970 C.ar      1 <0>         0.0117
     30 F1          6.4002   -9.0233   -0.8040 F         1 <0>        -0.1284
     31 H2         -0.9614    1.8845    0.0259 H         1 <0>         0.1163
     32 H3          1.1388    3.1629    0.0082 H         1 <0>         0.1204
     33 H4          3.3023    2.0058   -0.0197 H         1 <0>         0.1193
     34 H5         -0.9250   -0.5580    0.0085 H         1 <0>         0.1157
     35 H6          5.4372   -1.3108   -0.5732 H         1 <0>         0.0890
     36 H7          5.0265    0.4211   -0.5589 H         1 <0>         0.0881
     37 H8          4.8406    0.3566    1.9129 H         1 <0>         0.0634
     38 H9          5.2513   -1.3753    1.8986 H         1 <0>         0.0621
     39 H10         4.1211   -3.6147   -1.0585 H         1 <0>         0.0844
     40 H11         4.5781   -3.3522    0.6452 H         1 <0>         0.0879
     41 H12         3.3185   -5.5258    0.2020 H         1 <0>         0.0744
     42 H13         2.5783   -4.4716    1.4302 H         1 <0>         0.0799
     43 H14         0.3055   -3.4557    0.9759 H         1 <0>         0.0752
     44 H15        -0.1129   -3.1431   -0.7296 H         1 <0>         0.0780
     45 H16         0.1518   -5.7951    0.5407 H         1 <0>         0.4205
     46 H17         3.2964   -6.3388   -2.6587 H         1 <0>         0.1515
     47 H18         5.6039   -7.1760   -2.4692 H         1 <0>         0.1485
     48 H19         4.3772   -9.8456    0.6279 H         1 <0>         0.1461
     49 H20         2.0729   -8.9987    0.4425 H         1 <0>         0.1505
@<TRIPOS>BOND
     1    1    6 ar
     2    1    2 ar
     3    1   31 1
     4    2    3 ar
     5    2   32 1
     6    3    4 ar
     7    3   33 1
     8    4    9 1
     9    4    5 ar
    10    5    6 ar
    11    5    7 1
    12    6   34 1
    13    7   19 1
    14    7    8 2
    15    8    9 1
    16    8   15 1
    17    9   10 1
    18   10   11 1
    19   10   35 1
    20   10   36 1
    21   11   12 1
    22   11   37 1
    23   11   38 1
    24   12   13 2
    25   12   14 1
    26   15   16 1
    27   15   39 1
    28   15   40 1
    29   16   17 1
    30   16   41 1
    31   16   42 1
    32   17   18 1
    33   17   19 1
    34   17   20 1
    35   19   43 1
    36   19   44 1
    37   20   21 1
    38   20   45 1
    39   21   22 2
    40   21   23 2
    41   21   24 1
    42   24   29 ar
    43   24   25 ar
    44   25   26 ar
    45   25   46 1
    46   26   27 ar
    47   26   47 1
    48   27   28 ar
    49   27   30 1
    50   28   29 ar
    51   28   48 1
    52   29   49 1
@<TRIPOS>MOLECULE
ZINC13986077
   37    38     0     0     0
SMALL
USER_CHARGES
(2S)-2-(4-chloro-2-cyclohexyl-phenoxy)propanoic acid
@<TRIPOS>ATOM
      1 C1          2.3490   -0.9161   -1.3090 C.3       1 <0>        -0.1562
      2 C2          2.3156   -0.3002    0.0912 C.3       1 <0>         0.0356
      3 H1          1.3956   -0.5950    0.5960 H         1 <0>         0.0742
      4 C3          3.5015   -0.7880    0.8829 C.2       1 <0>         0.4735
      5 O1          4.3072    0.0029    1.3133 O.co2     1 <0>        -0.6128
      6 O2          2.3661    1.1241   -0.0136 O.3       1 <0>        -0.2763
      7 C4          1.1870    1.7703   -0.2127 C.ar      1 <0>         0.1538
      8 C5          0.0228    1.0440   -0.4175 C.ar      1 <0>        -0.2050
      9 C6         -1.1736    1.7025   -0.6244 C.ar      1 <0>        -0.0723
     10 C7         -1.2134    3.0858   -0.6166 C.ar      1 <0>        -0.0838
     11 C8         -0.0535    3.8118   -0.4130 C.ar      1 <0>        -0.0679
     12 C9          1.1461    3.1567   -0.2108 C.ar      1 <0>        -0.1039
     13 C10         2.4091    3.9480    0.0119 C.3       1 <0>        -0.0438
     14 C11         2.2505    4.8217    1.2578 C.3       1 <0>        -0.1070
     15 C12         3.5328    5.6251    1.4840 C.3       1 <0>        -0.1208
     16 C13         3.7986    6.5146    0.2678 C.3       1 <0>        -0.1171
     17 C14         3.9572    5.6408   -0.9781 C.3       1 <0>        -0.1203
     18 C15         2.6749    4.8375   -1.2043 C.3       1 <0>        -0.1067
     19 Cl1        -2.7195    3.9112   -0.8697 Cl        1 <0>        -0.0874
     20 H2          1.4912   -0.5632   -1.8816 H         1 <0>         0.0496
     21 H3          3.2690   -0.6212   -1.8138 H         1 <0>         0.0606
     22 H4          2.3105   -2.0024   -1.2291 H         1 <0>         0.0791
     23 H5          0.0527   -0.0356   -0.4196 H         1 <0>         0.1396
     24 H6         -2.0793    1.1375   -0.7883 H         1 <0>         0.1298
     25 H7         -0.0857    4.8913   -0.4116 H         1 <0>         0.1328
     26 H8          3.2464    3.2642    0.1518 H         1 <0>         0.0978
     27 H9          1.4133    5.5055    1.1179 H         1 <0>         0.0582
     28 H10         2.0612    4.1881    2.1243 H         1 <0>         0.0637
     29 H11         4.3701    4.9413    1.6239 H         1 <0>         0.0668
     30 H12         3.4198    6.2476    2.3716 H         1 <0>         0.0589
     31 H13         4.7121    7.0869    0.4289 H         1 <0>         0.0576
     32 H14         2.9614    7.1984    0.1279 H         1 <0>         0.0578
     33 H15         4.7944    4.9571   -0.8382 H         1 <0>         0.0654
     34 H16         4.1465    6.2745   -1.8445 H         1 <0>         0.0584
     35 H17         2.7879    4.2150   -2.0919 H         1 <0>         0.0616
     36 H18         1.8377    5.5213   -1.3442 H         1 <0>         0.0589
     37 O3          3.6627   -2.1011    1.1099 O.co2     1 <0>        -0.7521
@<TRIPOS>BOND
     1    1    2 1
     2    1   20 1
     3    1   21 1
     4    1   22 1
     5    2    3 1
     6    2    4 1
     7    2    6 1
     8    4    5 2
     9    4   37 1
    10    6    7 1
    11    7   12 ar
    12    7    8 ar
    13    8    9 ar
    14    8   23 1
    15    9   10 ar
    16    9   24 1
    17   10   11 ar
    18   10   19 1
    19   11   12 ar
    20   11   25 1
    21   12   13 1
    22   13   18 1
    23   13   14 1
    24   13   26 1
    25   14   15 1
    26   14   27 1
    27   14   28 1
    28   15   16 1
    29   15   29 1
    30   15   30 1
    31   16   17 1
    32   16   31 1
    33   16   32 1
    34   17   18 1
    35   17   33 1
    36   17   34 1
    37   18   35 1
    38   18   36 1
@<TRIPOS>MOLECULE
ZINC43120334
   42    45     0     0     0
SMALL
USER_CHARGES

@<TRIPOS>ATOM
      1 C1         -0.0184    1.5028    0.0103 C.3       1 <0>        -0.0893
      2 C2          0.0021   -0.0041    0.0020 C.2       1 <0>         0.1456
      3 C3          0.0074   -0.7686   -1.1014 C.2       1 <0>        -0.1994
      4 C4          0.0293   -2.1639   -0.6558 C.ar      1 <0>        -0.0715
      5 C5          0.0430   -3.3934   -1.3184 C.ar      1 <0>        -0.1138
      6 C6          0.0627   -4.5611   -0.5871 C.ar      1 <0>         0.0560
      7 C7          0.0689   -4.5194    0.8025 C.ar      1 <0>        -0.1468
      8 C8          0.0556   -3.3141    1.4687 C.ar      1 <0>        -0.0862
      9 C9          0.0357   -2.1235    0.7499 C.ar      1 <0>         0.1044
     10 N1          0.0239   -0.7954    1.1179 N.pl3     1 <0>        -0.4349
     11 C10         0.0302   -0.3043    2.4981 C.3       1 <0>         0.0303
     12 C11        -1.3883   -0.1559    2.9849 C.2       1 <0>         0.4822
     13 O1         -2.3182   -0.4346    2.2474 O.co2     1 <0>        -0.6704
     14 O2         -1.6059    0.2428    4.1164 O.co2     1 <0>        -0.6918
     15 F1          0.0755   -5.7527   -1.2238 F         1 <0>        -0.1523
     16 C12        -0.0065   -0.2835   -2.5281 C.3       1 <0>         0.0109
     17 C13         1.4095   -0.1017   -3.0107 C.ar      1 <0>         0.1799
     18 C14         1.8180   -0.7506   -4.1740 C.ar      1 <0>        -0.1659
     19 C15         3.0976   -0.5974   -4.6263 C.ar      1 <0>        -0.0614
     20 C16         3.9695    0.2242   -3.8872 C.ar      1 <0>        -0.1125
     21 C17         5.2987    0.4294   -4.2907 C.ar      1 <0>        -0.0958
     22 C18         6.1108    1.2317   -3.5490 C.ar      1 <0>        -0.1244
     23 C19         5.6404    1.8528   -2.3935 C.ar      1 <0>        -0.1061
     24 C20         4.3583    1.6756   -1.9733 C.ar      1 <0>        -0.0911
     25 C21         3.4889    0.8546   -2.7128 C.ar      1 <0>         0.1341
     26 N2          2.2226    0.6670   -2.3278 N.ar      1 <0>        -0.4601
     27 H1          1.0042    1.8801    0.0026 H         1 <0>         0.0787
     28 H2         -0.5455    1.8639   -0.8728 H         1 <0>         0.0781
     29 H3         -0.5286    1.8543    0.9071 H         1 <0>         0.0676
     30 H4          0.0378   -3.4287   -2.3978 H         1 <0>         0.1249
     31 H5          0.0840   -5.4411    1.3651 H         1 <0>         0.1297
     32 H6          0.0603   -3.2935    2.5485 H         1 <0>         0.1240
     33 H7          0.5602   -1.0136    3.1337 H         1 <0>         0.0838
     34 H8          0.5308    0.6632    2.5372 H         1 <0>         0.0872
     35 H9         -0.5132   -1.0162   -3.1561 H         1 <0>         0.0852
     36 H10        -0.5341    0.6688   -2.5829 H         1 <0>         0.0899
     37 H11         1.1237   -1.3744   -4.7173 H         1 <0>         0.1367
     38 H12         3.4314   -1.0932   -5.5259 H         1 <0>         0.1356
     39 H13         5.6748   -0.0468   -5.1842 H         1 <0>         0.1257
     40 H14         7.1331    1.3887   -3.8599 H         1 <0>         0.1234
     41 H15         6.3042    2.4847   -1.8221 H         1 <0>         0.1264
     42 H16         4.0099    2.1637   -1.0751 H         1 <0>         0.1338
@<TRIPOS>BOND
     1    1    2 1
     2    1   27 1
     3    1   28 1
     4    1   29 1
     5    2   10 1
     6    2    3 2
     7    3    4 1
     8    3   16 1
     9    4    9 ar
    10    4    5 ar
    11    5    6 ar
    12    5   30 1
    13    6    7 ar
    14    6   15 1
    15    7    8 ar
    16    7   31 1
    17    8    9 ar
    18    8   32 1
    19    9   10 1
    20   10   11 1
    21   11   12 1
    22   11   33 1
    23   11   34 1
    24   12   13 2
    25   12   14 1
    26   16   17 1
    27   16   35 1
    28   16   36 1
    29   17   26 ar
    30   17   18 ar
    31   18   19 ar
    32   18   37 1
    33   19   20 ar
    34   19   38 1
    35   20   25 ar
    36   20   21 ar
    37   21   22 ar
    38   21   39 1
    39   22   23 ar
    40   22   40 1
    41   23   24 ar
    42   23   41 1
    43   24   25 ar
    44   24   42 1
    45   25   26 ar
@<TRIPOS>MOLECULE
ZINC03830709
   58    58     0     0     0
SMALL
USER_CHARGES

@<TRIPOS>ATOM
      1 C1          1.1636    1.5627    0.2135 C.3       1 <0>        -0.1533
      2 C2          1.1751    0.0327    0.2109 C.3       1 <0>        -0.1261
      3 C3          1.6404   -0.4714   -1.1567 C.3       1 <0>        -0.1204
      4 C4          1.6520   -2.0014   -1.1593 C.3       1 <0>        -0.1179
      5 C5          2.1173   -2.5055   -2.5269 C.3       1 <0>        -0.1440
      6 C6          2.1288   -4.0355   -2.5295 C.3       1 <0>         0.1348
      7 H1          1.1454   -4.4067   -2.2410 H         1 <0>         0.1090
      8 C7          2.4682   -4.5329   -3.9110 C.2       1 <0>        -0.1863
      9 C8          3.4720   -5.3569   -4.0822 C.2       1 <0>        -0.1385
     10 C9          3.8114   -5.8543   -5.4637 C.3       1 <0>        -0.0503
     11 H2          3.1338   -5.4230   -6.2006 H         1 <0>         0.0902
     12 C10         5.2813   -5.5162   -5.8157 C.3       1 <0>         0.1088
     13 H3          5.9248   -5.6371   -4.9443 H         1 <0>         0.0655
     14 C11         5.6234   -6.5673   -6.9008 C.3       1 <0>        -0.1921
     15 C12         4.9078   -7.8485   -6.4253 C.3       1 <0>         0.1074
     16 H4          5.6010   -8.4783   -5.8675 H         1 <0>         0.0585
     17 C13         3.7522   -7.3950   -5.5125 C.3       1 <0>        -0.0685
     18 H5          3.8845   -7.8056   -4.5115 H         1 <0>         0.0838
     19 C14         2.4118   -7.8499   -6.0933 C.3       1 <0>        -0.0766
     20 C15         2.3173   -9.3523   -6.0218 C.2       1 <0>        -0.1574
     21 C16         1.2737   -9.9173   -5.4672 C.2       1 <0>        -0.1538
     22 C17         0.0924   -9.0774   -5.0547 C.3       1 <0>        -0.1023
     23 C18        -1.1818   -9.6464   -5.6820 C.3       1 <0>        -0.0856
     24 C19        -2.3812   -8.7937   -5.2632 C.3       1 <0>        -0.1830
     25 C20        -3.6362   -9.3541   -5.8811 C.2       1 <0>         0.4878
     26 O1         -3.5770  -10.3438   -6.5906 O.co2     1 <0>        -0.6996
     27 O2         -4.7109   -8.8178   -5.6714 O.co2     1 <0>        -0.7102
     28 O3          4.3904   -8.5656   -7.5478 O.3       1 <0>        -0.5476
     29 O4          5.3847   -4.1905   -6.3391 O.3       1 <0>        -0.5585
     30 O5          3.1071   -4.5061   -1.6002 O.3       1 <0>        -0.5572
     31 H6          2.1684    1.9340    0.0121 H         1 <0>         0.0520
     32 H7          0.4820    1.9222   -0.5575 H         1 <0>         0.0533
     33 H8          0.8320    1.9219    1.1878 H         1 <0>         0.0523
     34 H9          1.8566   -0.3268    0.9818 H         1 <0>         0.0601
     35 H10         0.1702   -0.3385    0.4123 H         1 <0>         0.0615
     36 H11         0.9589   -0.1119   -1.9276 H         1 <0>         0.0605
     37 H12         2.6453   -0.1002   -1.3581 H         1 <0>         0.0587
     38 H13         2.3335   -2.3609   -0.3884 H         1 <0>         0.0672
     39 H14         0.6471   -2.3726   -0.9579 H         1 <0>         0.0627
     40 H15         1.4358   -2.1460   -3.2978 H         1 <0>         0.0730
     41 H16         3.1222   -2.1343   -2.7283 H         1 <0>         0.0646
     42 H17         1.8837   -4.2100   -4.7599 H         1 <0>         0.1163
     43 H18         4.0565   -5.6797   -3.2334 H         1 <0>         0.1162
     44 H19         5.2386   -6.2531   -7.8710 H         1 <0>         0.0867
     45 H20         6.7004   -6.7279   -6.9503 H         1 <0>         0.0680
     46 H21         1.5980   -7.4070   -5.5192 H         1 <0>         0.0742
     47 H22         2.3390   -7.5303   -7.1328 H         1 <0>         0.0734
     48 H23         3.1100   -9.9631   -6.4279 H         1 <0>         0.1121
     49 H24         1.2598  -10.9850   -5.3055 H         1 <0>         0.1026
     50 H25        -0.0006   -9.0895   -3.9687 H         1 <0>         0.0601
     51 H26         0.2387   -8.0524   -5.3954 H         1 <0>         0.0680
     52 H27        -1.0889   -9.6342   -6.7679 H         1 <0>         0.0579
     53 H28        -1.3281  -10.6714   -5.3413 H         1 <0>         0.0571
     54 H29        -2.4741   -8.8058   -4.1772 H         1 <0>         0.0542
     55 H30        -2.2349   -7.7687   -5.6039 H         1 <0>         0.0537
     56 H31         5.0674   -8.8602   -8.1724 H         1 <0>         0.3704
     57 H32         6.2856   -3.9301   -6.5753 H         1 <0>         0.3758
     58 H33         4.0079   -4.2136   -1.7955 H         1 <0>         0.3707
@<TRIPOS>BOND
     1    1    2 1
     2    1   31 1
     3    1   32 1
     4    1   33 1
     5    2    3 1
     6    2   34 1
     7    2   35 1
     8    3    4 1
     9    3   36 1
    10    3   37 1
    11    4    5 1
    12    4   38 1
    13    4   39 1
    14    5    6 1
    15    5   40 1
    16    5   41 1
    17    6    7 1
    18    6    8 1
    19    6   30 1
    20    8    9 2
    21    8   42 1
    22    9   10 1
    23    9   43 1
    24   10   11 1
    25   10   17 1
    26   10   12 1
    27   12   13 1
    28   12   14 1
    29   12   29 1
    30   14   15 1
    31   14   44 1
    32   14   45 1
    33   15   16 1
    34   15   17 1
    35   15   28 1
    36   17   18 1
    37   17   19 1
    38   19   20 1
    39   19   46 1
    40   19   47 1
    41   20   21 2
    42   20   48 1
    43   21   22 1
    44   21   49 1
    45   22   23 1
    46   22   50 1
    47   22   51 1
    48   23   24 1
    49   23   52 1
    50   23   53 1
    51   24   25 1
    52   24   54 1
    53   24   55 1
    54   25   26 2
    55   25   27 1
    56   28   56 1
    57   29   57 1
    58   30   58 1
