@<TRIPOS>MOLECULE
ZINC49035868
   30    32     0     0     0
SMALL
USER_CHARGES

@<TRIPOS>ATOM
      1 C1         -0.0184    1.5028    0.0103 C.3       1 <0>        -0.0752
      2 C2          0.0021   -0.0041    0.0020 C.2       1 <0>         0.1017
      3 C3          0.0080   -0.8102   -1.1101 C.2       1 <0>        -0.0690
      4 C4         -0.0014   -0.5630   -2.5488 C.2       1 <0>         0.4302
      5 N1          0.0091   -1.5762   -3.3842 N.2       1 <0>        -0.5415
      6 C5          0.0287   -2.8598   -2.9382 C.ar      1 <0>         0.0591
      7 C6          0.0398   -3.9199   -3.8575 C.ar      1 <0>        -0.0049
      8 C7          0.0600   -5.2109   -3.3710 C.ar      1 <0>        -0.1677
      9 C8          0.0688   -5.4231   -1.9956 C.ar      1 <0>         0.3506
     10 N2          0.0581   -4.4095   -1.1486 N.ar      1 <0>        -0.5414
     11 C9          0.0387   -3.1517   -1.5656 C.ar      1 <0>         0.3123
     12 N3          0.0278   -2.1134   -0.6465 N.pl3     1 <0>        -0.3708
     13 C10         0.0330   -2.0537    0.6972 C.2       1 <0>         0.2382
     14 N4          0.0235   -0.7994    1.0744 N.2       1 <0>        -0.4705
     15 O1          0.0881   -6.6925   -1.5166 O.3       1 <0>        -0.2974
     16 C11         0.0963   -6.8499   -0.0963 C.3       1 <0>         0.0364
     17 O2         -0.0214    0.7065   -3.0202 O.3       1 <0>        -0.2857
     18 C12        -0.0296    0.8714   -4.4396 C.3       1 <0>         0.0362
     19 H1          1.0042    1.8801    0.0026 H         1 <0>         0.0816
     20 H2         -0.5455    1.8639   -0.8728 H         1 <0>         0.0831
     21 H3         -0.5286    1.8543    0.9071 H         1 <0>         0.0813
     22 H4          0.0323   -3.7298   -4.9207 H         1 <0>         0.1652
     23 H5          0.0686   -6.0494   -4.0516 H         1 <0>         0.1608
     24 H6          0.0476   -2.9057    1.3607 H         1 <0>         0.2218
     25 H7          0.9816   -6.3672    0.3176 H         1 <0>         0.0615
     26 H8         -0.7982   -6.3914    0.3252 H         1 <0>         0.0615
     27 H9          0.1119   -7.9113    0.1515 H         1 <0>         0.1031
     28 H10         0.8652    0.4156   -4.8635 H         1 <0>         0.0662
     29 H11        -0.9145    0.3903   -4.8562 H         1 <0>         0.0661
     30 H12        -0.0457    1.9340   -4.6819 H         1 <0>         0.1069
@<TRIPOS>BOND
     1    1    2 1
     2    1   19 1
     3    1   20 1
     4    1   21 1
     5    2   14 1
     6    2    3 2
     7    3   12 1
     8    3    4 1
     9    4    5 2
    10    4   17 1
    11    5    6 1
    12    6   11 ar
    13    6    7 ar
    14    7    8 ar
    15    7   22 1
    16    8    9 ar
    17    8   23 1
    18    9   10 ar
    19    9   15 1
    20   10   11 ar
    21   11   12 1
    22   12   13 1
    23   13   14 2
    24   13   24 1
    25   15   16 1
    26   16   25 1
    27   16   26 1
    28   16   27 1
    29   17   18 1
    30   18   28 1
    31   18   29 1
    32   18   30 1
@<TRIPOS>MOLECULE
ZINC43206679
   38    40     0     0     0
SMALL
USER_CHARGES

@<TRIPOS>ATOM
      1 C1          0.0575    1.6813    0.0331 C.3       1 <0>        -0.1497
      2 C2          0.1730    0.1560    0.0005 C.3       1 <0>        -0.1129
      3 C3         -1.2268   -0.4611   -0.0221 C.3       1 <0>        -0.0381
      4 C4         -1.1130   -1.9635   -0.0543 C.2       1 <0>         0.2508
      5 N1         -1.0431   -2.6950   -1.1385 N.2       1 <0>        -0.4634
      6 C5         -0.9494   -3.9849   -0.8101 C.2       1 <0>         0.0841
      7 C6         -0.9614   -4.0646    0.5648 C.2       1 <0>        -0.0770
      8 N2         -1.0613   -2.7631    1.0259 N.pl3     1 <0>        -0.3727
      9 C7         -1.0896   -2.5399    2.3928 C.ar      1 <0>         0.3305
     10 C8         -1.0129   -3.6413    3.2624 C.ar      1 <0>         0.0219
     11 C9         -1.0414   -3.4175    4.6464 C.ar      1 <0>         0.0059
     12 C10        -1.1441   -2.1174    5.0975 C.ar      1 <0>        -0.1761
     13 C11        -1.2157   -1.0766    4.1759 C.ar      1 <0>         0.3580
     14 N3         -1.1867   -1.3112    2.8754 N.ar      1 <0>        -0.5431
     15 O1         -1.3172    0.2010    4.6204 O.3       1 <0>        -0.2954
     16 C12        -1.3872    1.2288    3.6300 C.3       1 <0>         0.0339
     17 N4         -0.9123   -4.9030    2.7714 N.2       1 <0>        -0.4748
     18 C13        -0.8925   -5.1315    1.4848 C.2       1 <0>         0.2429
     19 C14        -0.7784   -6.5467    0.9797 C.3       1 <0>        -0.1058
     20 C15        -0.8495   -5.1433   -1.7688 C.3       1 <0>        -0.0782
     21 H1          1.0547    2.1210    0.0493 H         1 <0>         0.0586
     22 H2         -0.4765    2.0243   -0.8530 H         1 <0>         0.0595
     23 H3         -0.4881    1.9853    0.9265 H         1 <0>         0.0545
     24 H4          0.7186   -0.1480   -0.8928 H         1 <0>         0.0683
     25 H5          0.7071   -0.1869    0.8867 H         1 <0>         0.0578
     26 H6         -1.7724   -0.1571    0.8712 H         1 <0>         0.0936
     27 H7         -1.7608   -0.1181   -0.9083 H         1 <0>         0.0970
     28 H8         -0.9847   -4.2419    5.3418 H         1 <0>         0.1661
     29 H9         -1.1690   -1.9091    6.1570 H         1 <0>         0.1606
     30 H10        -1.4656    2.1998    4.1189 H         1 <0>         0.1034
     31 H11        -0.4874    1.2030    3.0154 H         1 <0>         0.0638
     32 H12        -2.2621    1.0674    3.0002 H         1 <0>         0.0614
     33 H13         0.0831   -6.6275    0.3168 H         1 <0>         0.0905
     34 H14        -0.6522   -7.2247    1.8237 H         1 <0>         0.0895
     35 H15        -1.6835   -6.8115    0.4331 H         1 <0>         0.0914
     36 H16         0.1982   -5.4088   -1.9099 H         1 <0>         0.0811
     37 H17        -1.3895   -5.9986   -1.3627 H         1 <0>         0.0808
     38 H18        -1.2849   -4.8604   -2.7271 H         1 <0>         0.0813
@<TRIPOS>BOND
     1    1    2 1
     2    1   21 1
     3    1   22 1
     4    1   23 1
     5    2    3 1
     6    2   24 1
     7    2   25 1
     8    3    4 1
     9    3   26 1
    10    3   27 1
    11    4    8 1
    12    4    5 2
    13    5    6 1
    14    6    7 2
    15    6   20 1
    16    7   18 1
    17    7    8 1
    18    8    9 1
    19    9   14 ar
    20    9   10 ar
    21   10   11 ar
    22   10   17 1
    23   11   12 ar
    24   11   28 1
    25   12   13 ar
    26   12   29 1
    27   13   14 ar
    28   13   15 1
    29   15   16 1
    30   16   30 1
    31   16   31 1
    32   16   32 1
    33   17   18 2
    34   18   19 1
    35   19   33 1
    36   19   34 1
    37   19   35 1
    38   20   36 1
    39   20   37 1
    40   20   38 1
@<TRIPOS>MOLECULE
ZINC39124200
   34    36     0     0     0
SMALL
USER_CHARGES

@<TRIPOS>ATOM
      1 C1         -0.0412    1.6804   -0.0675 C.3       1 <0>        -0.1485
      2 C2         -0.0889    0.1531   -0.1459 C.3       1 <0>        -0.1113
      3 C3          0.6066   -0.4424    1.0798 C.3       1 <0>        -0.0393
      4 C4          0.5597   -1.9467    1.0026 C.2       1 <0>         0.2564
      5 N1         -0.3957   -2.7008    1.4868 N.2       1 <0>        -0.4664
      6 C5         -0.1257   -3.9850    1.2464 C.2       1 <0>         0.0904
      7 C6          1.0729   -4.0371    0.5698 C.2       1 <0>        -0.0876
      8 N2          1.4890   -2.7248    0.4208 N.pl3     1 <0>        -0.3713
      9 C7          2.6814   -2.4741   -0.2390 C.ar      1 <0>         0.2843
     10 C8          3.4240   -3.5600   -0.7360 C.ar      1 <0>         0.0581
     11 C9          4.6293   -3.3068   -1.4030 C.ar      1 <0>        -0.0297
     12 C10         5.0359   -1.9927   -1.5428 C.ar      1 <0>        -0.1632
     13 C11         4.2496   -0.9767   -1.0258 C.ar      1 <0>         0.1324
     14 N3          3.1180   -1.2362   -0.4016 N.ar      1 <0>        -0.4811
     15 N4          2.9802   -4.8325   -0.5727 N.2       1 <0>        -0.4883
     16 C12         1.8615   -5.0862    0.0540 C.2       1 <0>         0.2578
     17 C13         1.4023   -6.5127    0.2132 C.3       1 <0>        -0.1084
     18 C14        -0.9766   -5.1638    1.6434 C.3       1 <0>        -0.0792
     19 H1          0.9972    2.0107   -0.0428 H         1 <0>         0.0572
     20 H2         -0.5367    2.1047   -0.9408 H         1 <0>         0.0573
     21 H3         -0.5503    2.0138    0.8368 H         1 <0>         0.0577
     22 H4         -1.1273   -0.1772   -0.1707 H         1 <0>         0.0662
     23 H5          0.4201   -0.1803   -1.0503 H         1 <0>         0.0583
     24 H6          1.6451   -0.1121    1.1046 H         1 <0>         0.0974
     25 H7          0.0976   -0.1090    1.9842 H         1 <0>         0.0967
     26 H8          5.2254   -4.1164   -1.7973 H         1 <0>         0.1568
     27 H9          5.9600   -1.7603   -2.0511 H         1 <0>         0.1533
     28 H10         4.5698    0.0488   -1.1365 H         1 <0>         0.1737
     29 H11         0.3998   -6.6200   -0.2010 H         1 <0>         0.0922
     30 H12         2.0868   -7.1759   -0.3157 H         1 <0>         0.0902
     31 H13         1.3882   -6.7739    1.2713 H         1 <0>         0.0932
     32 H14        -1.6156   -5.4486    0.8076 H         1 <0>         0.0818
     33 H15        -0.3336   -6.0022    1.9114 H         1 <0>         0.0809
     34 H16        -1.5960   -4.8931    2.4985 H         1 <0>         0.0821
@<TRIPOS>BOND
     1    1    2 1
     2    1   19 1
     3    1   20 1
     4    1   21 1
     5    2    3 1
     6    2   22 1
     7    2   23 1
     8    3    4 1
     9    3   24 1
    10    3   25 1
    11    4    8 1
    12    4    5 2
    13    5    6 1
    14    6    7 2
    15    6   18 1
    16    7   16 1
    17    7    8 1
    18    8    9 1
    19    9   14 ar
    20    9   10 ar
    21   10   11 ar
    22   10   15 1
    23   11   12 ar
    24   11   26 1
    25   12   13 ar
    26   12   27 1
    27   13   14 ar
    28   13   28 1
    29   15   16 2
    30   16   17 1
    31   17   29 1
    32   17   30 1
    33   17   31 1
    34   18   32 1
    35   18   33 1
    36   18   34 1
@<TRIPOS>MOLECULE
ZINC18324776
   66    69     0     0     0
SMALL
USER_CHARGES

@<TRIPOS>ATOM
      1 C1         -0.0187    1.5258    0.0104 C.3       1 <0>        -0.1515
      2 C2          0.0021   -0.0041    0.0020 C.3       1 <0>        -0.1161
      3 C3          0.7182   -0.4975   -1.2568 C.3       1 <0>        -0.0382
      4 C4          0.7386   -2.0043   -1.2651 C.2       1 <0>         0.2940
      5 N1          1.6787   -2.7529   -0.7375 N.2       1 <0>        -0.4766
      6 C5          1.3866   -4.0413   -0.9211 C.2       1 <0>         0.1350
      7 C6          0.1960   -4.0985   -1.6021 C.2       1 <0>        -0.1676
      8 N2         -0.2036   -2.7889   -1.8075 N.pl3     1 <0>        -0.2813
      9 N3         -1.4027   -2.5429   -2.4823 N.2       1 <0>        -0.2666
     10 C7         -2.1451   -3.5211   -2.9147 C.2       1 <0>         0.4182
     11 N4         -1.8014   -4.8460   -2.7370 N.am      1 <0>        -0.6707
     12 H1         -2.3837   -5.5441   -3.0753 H         1 <0>         0.4225
     13 C8         -0.6544   -5.1776   -2.1025 C.2       1 <0>         0.6004
     14 O1         -0.3442   -6.3438   -1.9407 O.2       1 <0>        -0.4846
     15 C9         -3.4025   -3.2011   -3.6216 C.ar      1 <0>        -0.1222
     16 C10        -4.2233   -4.2270   -4.0923 C.ar      1 <0>         0.0523
     17 C11        -5.3956   -3.9221   -4.7514 C.ar      1 <0>        -0.7181
     18 C12        -5.7625   -2.6016   -4.9484 C.ar      1 <0>         0.0502
     19 C13        -4.9584   -1.5773   -4.4871 C.ar      1 <0>        -0.2291
     20 C14        -3.7798   -1.8669   -3.8177 C.ar      1 <0>         0.2417
     21 O2         -2.9915   -0.8612   -3.3589 O.3       1 <0>        -0.2691
     22 C15        -3.4407    0.4746   -3.5956 C.3       1 <0>         0.0430
     23 C16        -2.4300    1.4636   -3.0113 C.3       1 <0>        -0.1534
     24 S1         -6.4307   -5.2183   -5.3457 S.o2      1 <0>         2.6925
     25 O3         -7.1994   -4.6697   -6.4075 O.2       1 <0>        -0.9459
     26 O4         -5.5978   -6.3568   -5.5173 O.2       1 <0>        -0.9478
     27 N5         -7.4957   -5.5895   -4.1331 N.pl3     1 <0>        -0.9969
     28 C17        -7.1670   -6.6094   -3.1256 C.3       1 <0>         0.1241
     29 C18        -7.3951   -6.0101   -1.7339 C.3       1 <0>         0.0390
     30 N6         -8.7605   -5.4743   -1.6528 N.3       1 <0>        -0.5346
     31 C19        -8.9594   -4.3757   -2.6075 C.3       1 <0>         0.0359
     32 C20        -8.7928   -4.9036   -4.0315 C.3       1 <0>         0.1244
     33 C21        -9.0775   -5.0460   -0.2838 C.3       1 <0>         0.0507
     34 C22       -10.5711   -4.7305   -0.1811 C.3       1 <0>        -0.1507
     35 C23         2.2115   -5.2172   -0.4653 C.3       1 <0>        -0.0791
     36 H2          1.0039    1.9031    0.0027 H         1 <0>         0.0592
     37 H3         -0.5459    1.8868   -0.8726 H         1 <0>         0.0568
     38 H4         -0.5289    1.8773    0.9072 H         1 <0>         0.0582
     39 H5          0.5293   -0.3651    0.8851 H         1 <0>         0.0698
     40 H6         -1.0205   -0.3814    0.0098 H         1 <0>         0.0616
     41 H7          0.1910   -0.1364   -2.1398 H         1 <0>         0.0903
     42 H8          1.7408   -0.1202   -1.2645 H         1 <0>         0.1010
     43 H9         -3.9405   -5.2583   -3.9410 H         1 <0>         0.1476
     44 H10        -6.6820   -2.3711   -5.4658 H         1 <0>         0.1528
     45 H11        -5.2508   -0.5496   -4.6443 H         1 <0>         0.1519
     46 H12        -3.5339    0.6418   -4.6687 H         1 <0>         0.0707
     47 H13        -4.4100    0.6217   -3.1194 H         1 <0>         0.0698
     48 H14        -2.3368    1.2964   -1.9383 H         1 <0>         0.0715
     49 H15        -1.4607    1.3165   -3.4876 H         1 <0>         0.0696
     50 H16        -2.7726    2.4825   -3.1919 H         1 <0>         0.0831
     51 H17        -7.8113   -7.4781   -3.2603 H         1 <0>         0.0891
     52 H18        -6.1229   -6.9045   -3.2305 H         1 <0>         0.0932
     53 H19        -7.2628   -6.7844   -0.9782 H         1 <0>         0.0906
     54 H20        -6.6785   -5.2070   -1.5617 H         1 <0>         0.0379
     55 H21        -9.9616   -3.9647   -2.4854 H         1 <0>         0.0938
     56 H22        -8.2210   -3.5954   -2.4231 H         1 <0>         0.0379
     57 H23        -8.8232   -4.0716   -4.7350 H         1 <0>         0.0943
     58 H24        -9.5965   -5.6053   -4.2549 H         1 <0>         0.0876
     59 H25        -8.8260   -5.8445    0.4142 H         1 <0>         0.0769
     60 H26        -8.5002   -4.1544   -0.0392 H         1 <0>         0.0325
     61 H27       -10.8226   -3.9319   -0.8791 H         1 <0>         0.0550
     62 H28       -11.1485   -5.6221   -0.4257 H         1 <0>         0.0654
     63 H29       -10.8063   -4.4127    0.8346 H         1 <0>         0.0603
     64 H30         1.9006   -5.5126    0.5368 H         1 <0>         0.0820
     65 H31         2.0655   -6.0513   -1.1517 H         1 <0>         0.0840
     66 H32         3.2651   -4.9383   -0.4514 H         1 <0>         0.0816
@<TRIPOS>BOND
     1    1    2 1
     2    1   36 1
     3    1   37 1
     4    1   38 1
     5    2    3 1
     6    2   39 1
     7    2   40 1
     8    3    4 1
     9    3   41 1
    10    3   42 1
    11    4    8 1
    12    4    5 2
    13    5    6 1
    14    6    7 2
    15    6   35 1
    16    7   13 1
    17    7    8 1
    18    8    9 1
    19    9   10 2
    20   10   11 1
    21   10   15 1
    22   11   12 1
    23   11   13 am
    24   13   14 2
    25   15   20 ar
    26   15   16 ar
    27   16   17 ar
    28   16   43 1
    29   17   18 ar
    30   17   24 1
    31   18   19 ar
    32   18   44 1
    33   19   20 ar
    34   19   45 1
    35   20   21 1
    36   21   22 1
    37   22   23 1
    38   22   46 1
    39   22   47 1
    40   23   48 1
    41   23   49 1
    42   23   50 1
    43   24   25 2
    44   24   26 2
    45   24   27 1
    46   27   32 1
    47   27   28 1
    48   28   29 1
    49   28   51 1
    50   28   52 1
    51   29   30 1
    52   29   53 1
    53   29   54 1
    54   30   31 1
    55   30   33 1
    56   31   32 1
    57   31   55 1
    58   31   56 1
    59   32   57 1
    60   32   58 1
    61   33   34 1
    62   33   59 1
    63   33   60 1
    64   34   61 1
    65   34   62 1
    66   34   63 1
    67   35   64 1
    68   35   65 1
    69   35   66 1
@<TRIPOS>MOLECULE
ZINC18324776
   65    68     0     0     0
SMALL
USER_CHARGES

@<TRIPOS>ATOM
      1 C1         -0.0187    1.5258    0.0104 C.3       1 <0>        -0.1472
      2 C2          0.0021   -0.0041    0.0020 C.3       1 <0>        -0.1154
      3 C3         -1.4333   -0.5336    0.0129 C.3       1 <0>        -0.0179
      4 C4         -1.4129   -2.0405    0.0046 C.2       1 <0>         0.2125
      5 N1         -1.4071   -2.7931   -1.0712 N.2       1 <0>        -0.4896
      6 C5         -1.3882   -4.0792   -0.7236 C.2       1 <0>         0.0659
      7 C6         -1.3817   -4.1334    0.6527 C.2       1 <0>        -0.1332
      8 N2         -1.3919   -2.8203    1.0938 N.pl3     1 <0>        -0.2435
      9 N3         -1.3825   -2.5794    2.4721 N.2       1 <0>        -0.3804
     10 C7         -1.3611   -3.5896    3.3115 C.2       1 <0>         0.3856
     11 N4         -1.3477   -4.8635    2.8932 N.2       1 <0>        -0.6634
     12 C8         -1.3637   -5.1706    1.6102 C.2       1 <0>         0.5160
     13 O1         -1.3482   -6.4650    1.2164 O.3       1 <0>        -0.6444
     14 C9         -1.3510   -3.3124    4.7674 C.ar      1 <0>        -0.0696
     15 C10        -1.3226   -4.3652    5.6804 C.ar      1 <0>         0.0723
     16 C11        -1.3133   -4.1018    7.0345 C.ar      1 <0>        -0.7301
     17 C12        -1.3321   -2.7951    7.4910 C.ar      1 <0>         0.0273
     18 C13        -1.3608   -1.7438    6.5951 C.ar      1 <0>        -0.2428
     19 C14        -1.3641   -1.9932    5.2316 C.ar      1 <0>         0.2183
     20 O2         -1.3862   -0.9606    4.3499 O.3       1 <0>        -0.2614
     21 C15        -1.3985    0.3595    4.8970 C.3       1 <0>         0.0448
     22 C16        -1.4229    1.3826    3.7597 C.3       1 <0>        -0.1490
     23 S1         -1.2780   -5.4337    8.1875 S.o2      1 <0>         2.6955
     24 O3         -1.8252   -4.9355    9.4005 O.2       1 <0>        -0.9613
     25 O4         -1.8158   -6.5654    7.5173 O.2       1 <0>        -0.9471
     26 N5          0.3135   -5.7760    8.4916 N.pl3     1 <0>        -0.9993
     27 C17         1.0454   -6.7536    7.6720 C.3       1 <0>         0.1257
     28 C18         2.3494   -6.1074    7.1922 C.3       1 <0>         0.0382
     29 N6          3.0902   -5.5890    8.3500 N.3       1 <0>        -0.5349
     30 C19         2.3371   -4.5289    9.0333 C.3       1 <0>         0.0355
     31 C20         1.0342   -5.1059    9.5847 C.3       1 <0>         0.1277
     32 C21         4.4231   -5.1157    7.9532 C.3       1 <0>         0.0491
     33 C22         5.2521   -4.8186    9.2044 C.3       1 <0>        -0.1481
     34 C23        -1.3761   -5.2575   -1.6630 C.3       1 <0>        -0.0570
     35 H1          1.0039    1.9031    0.0027 H         1 <0>         0.0513
     36 H2         -0.5459    1.8868   -0.8726 H         1 <0>         0.0538
     37 H3         -0.5289    1.8773    0.9072 H         1 <0>         0.0536
     38 H4          0.5123   -0.3556   -0.8948 H         1 <0>         0.0637
     39 H5          0.5293   -0.3651    0.8851 H         1 <0>         0.0604
     40 H6         -1.9435   -0.1821    0.9097 H         1 <0>         0.0786
     41 H7         -1.9605   -0.1726   -0.8702 H         1 <0>         0.0832
     42 H8         -1.3082   -5.3860    5.3281 H         1 <0>         0.1637
     43 H9         -1.3247   -2.5965    8.5525 H         1 <0>         0.1396
     44 H10        -1.3757   -0.7265    6.9575 H         1 <0>         0.1384
     45 H11        -2.2844    0.4866    5.5191 H         1 <0>         0.0614
     46 H12        -0.5047    0.5103    5.5023 H         1 <0>         0.0605
     47 H13        -1.4323    2.3896    4.1770 H         1 <0>         0.0741
     48 H14        -0.5370    1.2555    3.1375 H         1 <0>         0.0691
     49 H15        -2.3167    1.2318    3.1543 H         1 <0>         0.0679
     50 H16         1.2725   -7.6360    8.2702 H         1 <0>         0.0831
     51 H17         0.4391   -7.0371    6.8117 H         1 <0>         0.0995
     52 H18         2.9558   -6.8517    6.6760 H         1 <0>         0.0892
     53 H19         2.1202   -5.2882    6.5106 H         1 <0>         0.0436
     54 H20         2.9344   -4.1285    9.8524 H         1 <0>         0.0887
     55 H21         2.1080   -3.7317    8.3261 H         1 <0>         0.0397
     56 H22         0.4205   -4.3006    9.9884 H         1 <0>         0.0914
     57 H23         1.2602   -5.8269   10.3703 H         1 <0>         0.0814
     58 H24         4.9205   -5.8846    7.3620 H         1 <0>         0.0757
     59 H25         4.3241   -4.2075    7.3587 H         1 <0>         0.0329
     60 H26         6.2411   -4.4674    8.9100 H         1 <0>         0.0572
     61 H27         4.7547   -4.0497    9.7956 H         1 <0>         0.0540
     62 H28         5.3511   -5.7268    9.7988 H         1 <0>         0.0632
     63 H29        -0.3456   -5.5279   -1.8935 H         1 <0>         0.0620
     64 H30        -1.8769   -6.1032   -1.1917 H         1 <0>         0.0807
     65 H31        -1.8970   -4.9937   -2.5834 H         1 <0>         0.0597
@<TRIPOS>BOND
     1    1    2 1
     2    1   35 1
     3    1   36 1
     4    1   37 1
     5    2    3 1
     6    2   38 1
     7    2   39 1
     8    3    4 1
     9    3   40 1
    10    3   41 1
    11    4    8 1
    12    4    5 2
    13    5    6 1
    14    6    7 2
    15    6   34 1
    16    7   12 1
    17    7    8 1
    18    8    9 1
    19    9   10 2
    20   10   11 1
    21   10   14 1
    22   11   12 2
    23   12   13 1
    24   14   19 ar
    25   14   15 ar
    26   15   16 ar
    27   15   42 1
    28   16   17 ar
    29   16   23 1
    30   17   18 ar
    31   17   43 1
    32   18   19 ar
    33   18   44 1
    34   19   20 1
    35   20   21 1
    36   21   22 1
    37   21   45 1
    38   21   46 1
    39   22   47 1
    40   22   48 1
    41   22   49 1
    42   23   24 2
    43   23   25 2
    44   23   26 1
    45   26   31 1
    46   26   27 1
    47   27   28 1
    48   27   50 1
    49   27   51 1
    50   28   29 1
    51   28   52 1
    52   28   53 1
    53   29   30 1
    54   29   32 1
    55   30   31 1
    56   30   54 1
    57   30   55 1
    58   31   56 1
    59   31   57 1
    60   32   33 1
    61   32   58 1
    62   32   59 1
    63   33   60 1
    64   33   61 1
    65   33   62 1
    66   34   63 1
    67   34   64 1
    68   34   65 1
@<TRIPOS>MOLECULE
ZINC18324776
   67    70     0     0     0
SMALL
USER_CHARGES

@<TRIPOS>ATOM
      1 C1         -0.0187    1.5258    0.0104 C.3       1 <0>        -0.1527
      2 C2          0.0021   -0.0041    0.0020 C.3       1 <0>        -0.1146
      3 C3         -1.4333   -0.5336    0.0129 C.3       1 <0>        -0.0409
      4 C4         -1.4129   -2.0405    0.0046 C.2       1 <0>         0.3010
      5 N1         -1.4071   -2.7929   -1.0707 N.2       1 <0>        -0.4733
      6 C5         -1.3877   -4.0800   -0.7214 C.2       1 <0>         0.1428
      7 C6         -1.3810   -4.1322    0.6504 C.2       1 <0>        -0.1723
      8 N2         -1.3919   -2.8210    1.0945 N.pl3     1 <0>        -0.2854
      9 N3         -1.3832   -2.5699    2.4695 N.2       1 <0>        -0.2583
     10 C7         -1.3620   -3.5449    3.3321 C.2       1 <0>         0.4061
     11 N4         -1.3466   -4.8711    2.9502 N.am      1 <0>        -0.6726
     12 H1         -1.3310   -5.5667    3.6261 H         1 <0>         0.4190
     13 C8         -1.3621   -5.2077    1.6407 C.2       1 <0>         0.6010
     14 O1         -1.3478   -6.3752    1.2954 O.2       1 <0>        -0.4816
     15 C9         -1.3537   -3.2195    4.7733 C.ar      1 <0>        -0.1139
     16 C10        -1.3254   -4.2417    5.7231 C.ar      1 <0>         0.0469
     17 C11        -1.3178   -3.9318    7.0668 C.ar      1 <0>        -0.7277
     18 C12        -1.3382   -2.6100    7.4784 C.ar      1 <0>         0.0445
     19 C13        -1.3663   -1.5892    6.5478 C.ar      1 <0>        -0.2261
     20 C14        -1.3684   -1.8838    5.1935 C.ar      1 <0>         0.2477
     21 O2         -1.3904   -0.8814    4.2779 O.3       1 <0>        -0.2651
     22 C15        -1.4044    0.4562    4.7806 C.3       1 <0>         0.0428
     23 C16        -1.4284    1.4408    3.6097 C.3       1 <0>        -0.1560
     24 S1         -1.2826   -5.2233    8.2649 S.o2      1 <0>         2.6921
     25 O3         -1.8316   -4.6842    9.4596 O.2       1 <0>        -0.9290
     26 O4         -1.8188   -6.3779    7.6334 O.2       1 <0>        -0.9309
     27 N5          0.3088   -5.5535    8.5823 N.pl3     1 <0>        -1.0122
     28 C17         1.0439   -6.5580    7.7981 C.3       1 <0>         0.0949
     29 C18         2.3562   -5.9317    7.3149 C.3       1 <0>        -0.0239
     30 N6          3.0970   -5.4006    8.4661 N.4       1 <0>        -0.3828
     31 C19         2.3407   -4.3048    9.0851 C.3       1 <0>        -0.0284
     32 C20         1.0293   -4.8464    9.6524 C.3       1 <0>         0.0958
     33 C21         4.4028   -4.8994    8.0169 C.3       1 <0>        -0.0114
     34 C22         5.2254   -4.4605    9.2299 C.3       1 <0>        -0.1896
     35 C23        -1.3758   -5.2593   -1.6596 C.3       1 <0>        -0.0821
     36 H2          1.0039    1.9031    0.0027 H         1 <0>         0.0592
     37 H3         -0.5459    1.8868   -0.8726 H         1 <0>         0.0614
     38 H4         -0.5289    1.8773    0.9072 H         1 <0>         0.0565
     39 H5          0.5123   -0.3556   -0.8948 H         1 <0>         0.0710
     40 H6          0.5293   -0.3651    0.8851 H         1 <0>         0.0594
     41 H7         -1.9435   -0.1821    0.9097 H         1 <0>         0.0906
     42 H8         -1.9605   -0.1726   -0.8702 H         1 <0>         0.1040
     43 H9         -1.3098   -5.2740    5.4062 H         1 <0>         0.1484
     44 H10        -1.3324   -2.3756    8.5327 H         1 <0>         0.1534
     45 H11        -1.3821   -0.5605    6.8761 H         1 <0>         0.1551
     46 H12        -2.2911    0.6033    5.3972 H         1 <0>         0.0735
     47 H13        -0.5114    0.6279    5.3815 H         1 <0>         0.0708
     48 H14        -0.5417    1.2936    2.9931 H         1 <0>         0.0726
     49 H15        -2.3214    1.2691    3.0088 H         1 <0>         0.0719
     50 H16        -1.4391    2.4610    3.9931 H         1 <0>         0.0865
     51 H17         1.2599   -7.4244    8.4233 H         1 <0>         0.1083
     52 H18         0.4453   -6.8622    6.9395 H         1 <0>         0.1351
     53 H19         2.9579   -6.6900    6.8139 H         1 <0>         0.1474
     54 H20         2.1378   -5.1222    6.6184 H         1 <0>         0.1335
     55 H21         2.9311   -3.8642    9.8885 H         1 <0>         0.1485
     56 H22         2.1228   -3.5445    8.3351 H         1 <0>         0.1342
     57 H23         0.4209   -4.0196   10.0191 H         1 <0>         0.1362
     58 H24         1.2438   -5.5370   10.4679 H         1 <0>         0.1066
     59 H25         4.9323   -5.6903    7.4857 H         1 <0>         0.1333
     60 H26         4.2560   -4.0494    7.3505 H         1 <0>         0.1286
     61 H27         4.6958   -3.6696    9.7611 H         1 <0>         0.0809
     62 H28         5.3721   -5.3105    9.8963 H         1 <0>         0.0825
     63 H29         6.1943   -4.0886    8.8966 H         1 <0>         0.1077
     64 H30        -0.3454   -5.5297   -1.8903 H         1 <0>         0.0839
     65 H31        -1.8762   -6.1045   -1.1871 H         1 <0>         0.0849
     66 H32        -1.8973   -4.9966   -2.5800 H         1 <0>         0.0846
     67 H33         3.2364   -6.1358    9.1430 H         1 <0>         0.4258
@<TRIPOS>BOND
     1    1    2 1
     2    1   36 1
     3    1   37 1
     4    1   38 1
     5    2    3 1
     6    2   39 1
     7    2   40 1
     8    3    4 1
     9    3   41 1
    10    3   42 1
    11    4    8 1
    12    4    5 2
    13    5    6 1
    14    6    7 2
    15    6   35 1
    16    7   13 1
    17    7    8 1
    18    8    9 1
    19    9   10 2
    20   10   11 1
    21   10   15 1
    22   11   12 1
    23   11   13 am
    24   13   14 2
    25   15   20 ar
    26   15   16 ar
    27   16   17 ar
    28   16   43 1
    29   17   18 ar
    30   17   24 1
    31   18   19 ar
    32   18   44 1
    33   19   20 ar
    34   19   45 1
    35   20   21 1
    36   21   22 1
    37   22   23 1
    38   22   46 1
    39   22   47 1
    40   23   48 1
    41   23   49 1
    42   23   50 1
    43   24   25 2
    44   24   26 2
    45   24   27 1
    46   27   32 1
    47   27   28 1
    48   28   29 1
    49   28   51 1
    50   28   52 1
    51   29   30 1
    52   29   53 1
    53   29   54 1
    54   30   31 1
    55   30   33 1
    56   30   67 1
    57   31   32 1
    58   31   55 1
    59   31   56 1
    60   32   57 1
    61   32   58 1
    62   33   34 1
    63   33   59 1
    64   33   60 1
    65   34   61 1
    66   34   62 1
    67   34   63 1
    68   35   64 1
    69   35   65 1
    70   35   66 1
@<TRIPOS>MOLECULE
ZINC03154141
   31    34     0     0     0
SMALL
USER_CHARGES
(2-bromophenyl)BLAHamine
@<TRIPOS>ATOM
      1 C1         -6.0981    3.2779   -0.0667 C.ar      1 <0>        -0.1169
      2 C2         -6.0114    1.8959   -0.1767 C.ar      1 <0>        -0.0806
      3 C3         -4.7997    1.2659   -0.1828 C.ar      1 <0>        -0.0880
      4 C4         -3.6240    2.0162   -0.0771 C.ar      1 <0>         0.1369
      5 C5         -3.7113    3.4239    0.0346 C.ar      1 <0>        -0.0848
      6 C6         -4.9586    4.0450    0.0386 C.ar      1 <0>        -0.0574
      7 C7         -2.4621    4.1841    0.1439 C.2       1 <0>         0.3483
      8 N1         -2.1665    5.4620    0.2599 N.2       1 <0>        -0.5476
      9 C8         -0.8425    5.6124    0.3225 C.2       1 <0>         0.5033
     10 N2         -0.2655    4.4318    0.2477 N.2       1 <0>        -0.3550
     11 N3         -1.2883    3.4806    0.1374 N.pl3     1 <0>        -0.3350
     12 C9         -1.3045    2.1167    0.0197 C.2       1 <0>         0.4403
     13 N4         -2.4124    1.4275   -0.0789 N.2       1 <0>        -0.4517
     14 C10        -0.0169    1.3920    0.0097 C.ar      1 <0>        -0.0364
     15 C11         1.0203    1.8164   -0.8230 C.ar      1 <0>        -0.0596
     16 C12         2.2216    1.1389   -0.8234 C.ar      1 <0>        -0.1078
     17 C13         2.4011    0.0406   -0.0005 C.ar      1 <0>        -0.0876
     18 C14         1.3787   -0.3857    0.8275 C.ar      1 <0>        -0.0970
     19 C15         0.1703    0.2827    0.8375 C.ar      1 <0>        -0.0457
     20 Br1        -1.2270   -0.3017    1.9697 Br        1 <0>        -0.0255
     21 N5         -0.1749    6.8288    0.4480 N.pl3     1 <0>        -0.8116
     22 H1         -7.0669    3.7551   -0.0640 H         1 <0>         0.1386
     23 H2         -6.9156    1.3110   -0.2587 H         1 <0>         0.1394
     24 H3         -4.7494    0.1906   -0.2691 H         1 <0>         0.1457
     25 H4         -5.0315    5.1192    0.1239 H         1 <0>         0.1430
     26 H5          0.8821    2.6732   -1.4658 H         1 <0>         0.1345
     27 H6          3.0245    1.4664   -1.4672 H         1 <0>         0.1384
     28 H7          3.3441   -0.4858   -0.0048 H         1 <0>         0.1394
     29 H8          1.5255   -1.2432    1.4674 H         1 <0>         0.1421
     30 H9         -0.6792    7.6560    0.4969 H         1 <0>         0.4196
     31 H10         0.7941    6.8485    0.4864 H         1 <0>         0.4191
@<TRIPOS>BOND
     1    1    6 ar
     2    1    2 ar
     3    1   22 1
     4    2    3 ar
     5    2   23 1
     6    3    4 ar
     7    3   24 1
     8    4   13 1
     9    4    5 ar
    10    5    6 ar
    11    5    7 1
    12    6   25 1
    13    7   11 1
    14    7    8 2
    15    8    9 1
    16    9   10 2
    17    9   21 1
    18   10   11 1
    19   11   12 1
    20   12   13 2
    21   12   14 1
    22   14   19 ar
    23   14   15 ar
    24   15   16 ar
    25   15   26 1
    26   16   17 ar
    27   16   27 1
    28   17   18 ar
    29   17   28 1
    30   18   19 ar
    31   18   29 1
    32   19   20 1
    33   21   30 1
    34   21   31 1
@<TRIPOS>MOLECULE
ZINC03141002
   39    42     0     0     0
SMALL
USER_CHARGES
(3,4-dimethoxyphenyl)BLAHamine
@<TRIPOS>ATOM
      1 C1          3.5214   -2.0656   -0.0440 C.3       1 <0>         0.0226
      2 O1          3.5824   -0.6379   -0.0365 O.3       1 <0>        -0.3006
      3 C2          2.3992    0.0300   -0.0211 C.ar      1 <0>         0.1351
      4 C3          1.2051   -0.6770   -0.0135 C.ar      1 <0>        -0.1856
      5 C4          0.0021   -0.0041    0.0020 C.ar      1 <0>        -0.0631
      6 C5         -0.0169    1.3925    0.0097 C.ar      1 <0>        -0.0810
      7 C6          1.1850    2.1042    0.0020 C.ar      1 <0>        -0.1091
      8 C7          2.3875    1.4234   -0.0136 C.ar      1 <0>         0.0866
      9 O2          3.5595    2.1133   -0.0210 O.3       1 <0>        -0.3034
     10 C8          3.4728    3.5396   -0.0126 C.3       1 <0>         0.0234
     11 C9         -1.3046    2.1149    0.0197 C.2       1 <0>         0.4632
     12 N1         -1.3070    3.3882    0.3241 N.2       1 <0>        -0.4859
     13 C10        -2.4411    4.1145    0.3545 C.ar      1 <0>         0.1440
     14 C11        -2.4278    5.4744    0.6811 C.ar      1 <0>        -0.0963
     15 C12        -3.5966    6.1807    0.7009 C.ar      1 <0>        -0.0770
     16 C13        -4.8069    5.5685    0.4014 C.ar      1 <0>        -0.1227
     17 C14        -4.8535    4.2305    0.0762 C.ar      1 <0>        -0.0534
     18 C15        -3.6734    3.4901    0.0492 C.ar      1 <0>        -0.0933
     19 C16        -3.6566    2.0633   -0.2895 C.2       1 <0>         0.3535
     20 N2         -2.4455    1.4263   -0.2951 N.pl3     1 <0>        -0.3398
     21 N3         -2.7096    0.0943   -0.6400 N.2       1 <0>        -0.3614
     22 C17        -4.0083   -0.0057   -0.8283 C.2       1 <0>         0.5063
     23 N4         -4.5783    1.1817   -0.6168 N.2       1 <0>        -0.5483
     24 N5         -4.6823   -1.1696   -1.1921 N.pl3     1 <0>        -0.8110
     25 H1          3.0012   -2.4118    0.8491 H         1 <0>         0.0584
     26 H2          2.9839   -2.4016   -0.9307 H         1 <0>         0.0584
     27 H3          4.5325   -2.4724   -0.0562 H         1 <0>         0.1041
     28 H4          1.2183   -1.7569   -0.0202 H         1 <0>         0.1439
     29 H5         -0.9258   -0.5567    0.0079 H         1 <0>         0.1585
     30 H6          1.1745    3.1842    0.0079 H         1 <0>         0.1531
     31 H7          4.4764    3.9648   -0.0199 H         1 <0>         0.1030
     32 H8          2.9293    3.8759   -0.8956 H         1 <0>         0.0563
     33 H9          2.9463    3.8663    0.8843 H         1 <0>         0.0583
     34 H10        -1.4950    5.9651    0.9168 H         1 <0>         0.1444
     35 H11        -3.5795    7.2306    0.9535 H         1 <0>         0.1388
     36 H12        -5.7192    6.1461    0.4239 H         1 <0>         0.1381
     37 H13        -5.7971    3.7593   -0.1562 H         1 <0>         0.1426
     38 H14        -5.6449   -1.1556   -1.3110 H         1 <0>         0.4199
     39 H15        -4.1889   -1.9939   -1.3265 H         1 <0>         0.4192
@<TRIPOS>BOND
     1    1    2 1
     2    1   25 1
     3    1   26 1
     4    1   27 1
     5    2    3 1
     6    3    8 ar
     7    3    4 ar
     8    4    5 ar
     9    4   28 1
    10    5    6 ar
    11    5   29 1
    12    6    7 ar
    13    6   11 1
    14    7    8 ar
    15    7   30 1
    16    8    9 1
    17    9   10 1
    18   10   31 1
    19   10   32 1
    20   10   33 1
    21   11   20 1
    22   11   12 2
    23   12   13 1
    24   13   18 ar
    25   13   14 ar
    26   14   15 ar
    27   14   34 1
    28   15   16 ar
    29   15   35 1
    30   16   17 ar
    31   16   36 1
    32   17   18 ar
    33   17   37 1
    34   18   19 1
    35   19   23 2
    36   19   20 1
    37   20   21 1
    38   21   22 2
    39   22   23 1
    40   22   24 1
    41   24   38 1
    42   24   39 1
@<TRIPOS>MOLECULE
ZINC06206233
   35    37     0     0     0
SMALL
USER_CHARGES
ethyl 2-(methylBLAHyl)sulfanylacetate
@<TRIPOS>ATOM
      1 C1          9.8471    1.6745   -0.0838 C.3       1 <0>        -0.1542
      2 C2          8.8319    0.5299   -0.0805 C.3       1 <0>         0.0621
      3 O1          7.4867    1.0761   -0.0643 O.3       1 <0>        -0.3479
      4 C3          6.4721    0.1972   -0.0594 C.2       1 <0>         0.4832
      5 O2          6.7006   -0.9892   -0.0683 O.2       1 <0>        -0.4906
      6 C4          5.0482    0.6903   -0.0427 C.3       1 <0>        -0.1352
      7 S1          3.9197   -0.7249   -0.0398 S.3       1 <0>         0.1191
      8 C5          2.3723    0.1177   -0.0199 C.2       1 <0>         0.3597
      9 N1          2.3713    1.4264   -0.0129 N.2       1 <0>        -0.4945
     10 C6          1.2217    2.1427    0.0019 C.ar      1 <0>         0.1402
     11 C7          1.2341    3.5402    0.0093 C.ar      1 <0>        -0.0931
     12 C8          0.0556    4.2311    0.0242 C.ar      1 <0>        -0.0773
     13 C9         -1.1627    3.5645    0.0323 C.ar      1 <0>        -0.1180
     14 C10        -1.2076    2.1873    0.0310 C.ar      1 <0>        -0.0540
     15 C11        -0.0178    1.4627    0.0101 C.ar      1 <0>        -0.0834
     16 C12         0.0021   -0.0041    0.0020 C.2       1 <0>         0.3344
     17 N2          1.2222   -0.6239   -0.0129 N.pl3     1 <0>        -0.3413
     18 N3          0.9555   -1.9994   -0.0182 N.2       1 <0>        -0.2990
     19 C13        -0.3470   -2.1392   -0.0068 C.2       1 <0>         0.2612
     20 N4         -0.9228   -0.9403    0.0054 N.2       1 <0>        -0.5146
     21 C14        -1.0802   -3.4558   -0.0066 C.3       1 <0>        -0.0638
     22 H1          9.7125    2.2822    0.8110 H         1 <0>         0.0687
     23 H2         10.8570    1.2645   -0.0960 H         1 <0>         0.0839
     24 H3          9.6951    2.2923   -0.9689 H         1 <0>         0.0687
     25 H4          8.9839   -0.0880    0.8046 H         1 <0>         0.0748
     26 H5          8.9666   -0.0778   -0.9753 H         1 <0>         0.0748
     27 H6          4.8643    1.2997   -0.9275 H         1 <0>         0.1437
     28 H7          4.8816    1.2896    0.8524 H         1 <0>         0.1437
     29 H8          2.1735    4.0730    0.0028 H         1 <0>         0.1449
     30 H9          0.0716    5.3109    0.0302 H         1 <0>         0.1401
     31 H10        -2.0826    4.1303    0.0441 H         1 <0>         0.1396
     32 H11        -2.1576    1.6737    0.0413 H         1 <0>         0.1442
     33 H12        -1.2470   -3.7787    1.0210 H         1 <0>         0.0940
     34 H13        -2.0394   -3.3376   -0.5106 H         1 <0>         0.0949
     35 H14        -0.4844   -4.2035   -0.5302 H         1 <0>         0.0913
@<TRIPOS>BOND
     1    1    2 1
     2    1   22 1
     3    1   23 1
     4    1   24 1
     5    2    3 1
     6    2   25 1
     7    2   26 1
     8    3    4 1
     9    4    5 2
    10    4    6 1
    11    6    7 1
    12    6   27 1
    13    6   28 1
    14    7    8 1
    15    8   17 1
    16    8    9 2
    17    9   10 1
    18   10   15 ar
    19   10   11 ar
    20   11   12 ar
    21   11   29 1
    22   12   13 ar
    23   12   30 1
    24   13   14 ar
    25   13   31 1
    26   14   15 ar
    27   14   32 1
    28   15   16 1
    29   16   20 2
    30   16   17 1
    31   17   18 1
    32   18   19 2
    33   19   20 1
    34   19   21 1
    35   21   33 1
    36   21   34 1
    37   21   35 1
@<TRIPOS>MOLECULE
ZINC09937921
   26    28     0     0     0
SMALL
USER_CHARGES
2-methyl-5-methylsulfanyl-[1,2,4]triazolo[1,5-c]quinazoline
@<TRIPOS>ATOM
      1 C1         -1.0802   -3.4558   -0.0066 C.3       1 <0>        -0.0631
      2 C2         -0.3470   -2.1392   -0.0068 C.2       1 <0>         0.2589
      3 N1         -0.9228   -0.9403    0.0054 N.2       1 <0>        -0.5161
      4 C3          0.0021   -0.0041    0.0020 C.2       1 <0>         0.3328
      5 C4         -0.0178    1.4627    0.0101 C.ar      1 <0>        -0.0855
      6 C5         -1.2076    2.1873    0.0310 C.ar      1 <0>        -0.0538
      7 C6         -1.1627    3.5645    0.0323 C.ar      1 <0>        -0.1197
      8 C7          0.0556    4.2311    0.0242 C.ar      1 <0>        -0.0773
      9 C8          1.2341    3.5402    0.0093 C.ar      1 <0>        -0.0944
     10 C9          1.2217    2.1427    0.0019 C.ar      1 <0>         0.1414
     11 N2          2.3713    1.4264   -0.0129 N.2       1 <0>        -0.4923
     12 C10         2.3723    0.1177   -0.0199 C.2       1 <0>         0.3726
     13 N3          1.2222   -0.6239   -0.0129 N.pl3     1 <0>        -0.3418
     14 N4          0.9555   -1.9994   -0.0182 N.2       1 <0>        -0.2990
     15 S1          3.9197   -0.7249   -0.0398 S.3       1 <0>         0.0322
     16 C11         5.0482    0.6903   -0.0427 C.3       1 <0>        -0.1493
     17 H1         -1.2470   -3.7787    1.0210 H         1 <0>         0.0934
     18 H2         -2.0394   -3.3376   -0.5106 H         1 <0>         0.0944
     19 H3         -0.4844   -4.2035   -0.5302 H         1 <0>         0.0907
     20 H4         -2.1576    1.6737    0.0413 H         1 <0>         0.1439
     21 H5         -2.0826    4.1303    0.0441 H         1 <0>         0.1394
     22 H6          0.0716    5.3109    0.0302 H         1 <0>         0.1397
     23 H7          2.1735    4.0730    0.0028 H         1 <0>         0.1438
     24 H8          4.8643    1.2997   -0.9275 H         1 <0>         0.0973
     25 H9          4.8816    1.2896    0.8523 H         1 <0>         0.0973
     26 H10         6.0781    0.3336   -0.0548 H         1 <0>         0.1146
@<TRIPOS>BOND
     1    1    2 1
     2    1   17 1
     3    1   18 1
     4    1   19 1
     5    2   14 2
     6    2    3 1
     7    3    4 2
     8    4   13 1
     9    4    5 1
    10    5   10 ar
    11    5    6 ar
    12    6    7 ar
    13    6   20 1
    14    7    8 ar
    15    7   21 1
    16    8    9 ar
    17    8   22 1
    18    9   10 ar
    19    9   23 1
    20   10   11 1
    21   11   12 2
    22   12   13 1
    23   12   15 1
    24   13   14 1
    25   15   16 1
    26   16   24 1
    27   16   25 1
    28   16   26 1
@<TRIPOS>MOLECULE
ZINC09939949
   29    31     0     0     0
SMALL
USER_CHARGES
5-ethylsulfanyl-2-methyl-[1,2,4]triazolo[1,5-c]quinazoline
@<TRIPOS>ATOM
      1 C1          6.4939    0.1897   -0.0596 C.3       1 <0>        -0.1429
      2 C2          5.0482    0.6903   -0.0427 C.3       1 <0>        -0.1150
      3 S1          3.9197   -0.7249   -0.0398 S.3       1 <0>         0.0290
      4 C3          2.3723    0.1177   -0.0199 C.2       1 <0>         0.3746
      5 N1          2.3713    1.4264   -0.0129 N.2       1 <0>        -0.4925
      6 C4          1.2217    2.1427    0.0019 C.ar      1 <0>         0.1415
      7 C5          1.2341    3.5402    0.0093 C.ar      1 <0>        -0.0945
      8 C6          0.0556    4.2311    0.0242 C.ar      1 <0>        -0.0773
      9 C7         -1.1627    3.5645    0.0323 C.ar      1 <0>        -0.1199
     10 C8         -1.2076    2.1873    0.0310 C.ar      1 <0>        -0.0537
     11 C9         -0.0178    1.4627    0.0101 C.ar      1 <0>        -0.0857
     12 C10         0.0021   -0.0041    0.0020 C.2       1 <0>         0.3327
     13 N2          1.2222   -0.6239   -0.0129 N.pl3     1 <0>        -0.3421
     14 N3          0.9555   -1.9994   -0.0182 N.2       1 <0>        -0.2989
     15 C11        -0.3470   -2.1392   -0.0068 C.2       1 <0>         0.2587
     16 N4         -0.9228   -0.9403    0.0054 N.2       1 <0>        -0.5161
     17 C12        -1.0802   -3.4558   -0.0066 C.3       1 <0>        -0.0630
     18 H1          7.1734    1.0419   -0.0614 H         1 <0>         0.0830
     19 H2          6.6777   -0.4198    0.8251 H         1 <0>         0.0675
     20 H3          6.6604   -0.4097   -0.9547 H         1 <0>         0.0675
     21 H4          4.8643    1.2997   -0.9275 H         1 <0>         0.1011
     22 H5          4.8816    1.2896    0.8524 H         1 <0>         0.1011
     23 H6          2.1735    4.0730    0.0028 H         1 <0>         0.1437
     24 H7          0.0716    5.3109    0.0302 H         1 <0>         0.1397
     25 H8         -2.0826    4.1303    0.0441 H         1 <0>         0.1393
     26 H9         -2.1576    1.6737    0.0413 H         1 <0>         0.1438
     27 H10        -1.2470   -3.7787    1.0210 H         1 <0>         0.0934
     28 H11        -2.0394   -3.3376   -0.5106 H         1 <0>         0.0944
     29 H12        -0.4844   -4.2035   -0.5302 H         1 <0>         0.0907
@<TRIPOS>BOND
     1    1    2 1
     2    1   18 1
     3    1   19 1
     4    1   20 1
     5    2    3 1
     6    2   21 1
     7    2   22 1
     8    3    4 1
     9    4   13 1
    10    4    5 2
    11    5    6 1
    12    6   11 ar
    13    6    7 ar
    14    7    8 ar
    15    7   23 1
    16    8    9 ar
    17    8   24 1
    18    9   10 ar
    19    9   25 1
    20   10   11 ar
    21   10   26 1
    22   11   12 1
    23   12   16 2
    24   12   13 1
    25   13   14 1
    26   14   15 2
    27   15   16 1
    28   15   17 1
    29   17   27 1
    30   17   28 1
    31   17   29 1
@<TRIPOS>MOLECULE
ZINC02968902
   27    29     0     0     0
SMALL
USER_CHARGES
2-(methylBLAHyl)sulfanylacetonitrile
@<TRIPOS>ATOM
      1 C1         -1.0802   -3.4558   -0.0066 C.3       1 <0>        -0.0645
      2 C2         -0.3470   -2.1392   -0.0068 C.2       1 <0>         0.2628
      3 N1         -0.9228   -0.9403    0.0054 N.2       1 <0>        -0.5139
      4 C3          0.0021   -0.0041    0.0020 C.2       1 <0>         0.3354
      5 C4         -0.0178    1.4627    0.0101 C.ar      1 <0>        -0.0814
      6 C5         -1.2076    2.1873    0.0310 C.ar      1 <0>        -0.0547
      7 C6         -1.1627    3.5645    0.0323 C.ar      1 <0>        -0.1159
      8 C7          0.0556    4.2311    0.0242 C.ar      1 <0>        -0.0776
      9 C8          1.2341    3.5402    0.0093 C.ar      1 <0>        -0.0912
     10 C9          1.2217    2.1427    0.0019 C.ar      1 <0>         0.1393
     11 N2          2.3713    1.4264   -0.0129 N.2       1 <0>        -0.4905
     12 C10         2.3723    0.1177   -0.0199 C.2       1 <0>         0.3703
     13 N3          1.2222   -0.6239   -0.0129 N.pl3     1 <0>        -0.3422
     14 N4          0.9555   -1.9994   -0.0182 N.2       1 <0>        -0.2997
     15 S1          3.9197   -0.7249   -0.0398 S.3       1 <0>         0.0824
     16 C11         5.0482    0.6903   -0.0427 C.3       1 <0>        -0.0283
     17 C12         6.4391    0.2087   -0.0590 C.1       1 <0>         0.2087
     18 N5          7.5125   -0.1630   -0.0716 N.1       1 <0>        -0.3862
     19 H1         -1.2470   -3.7787    1.0210 H         1 <0>         0.0943
     20 H2         -2.0394   -3.3376   -0.5106 H         1 <0>         0.0952
     21 H3         -0.4844   -4.2035   -0.5302 H         1 <0>         0.0914
     22 H4         -2.1576    1.6737    0.0413 H         1 <0>         0.1446
     23 H5         -2.0826    4.1303    0.0441 H         1 <0>         0.1399
     24 H6          0.0716    5.3109    0.0302 H         1 <0>         0.1405
     25 H7          2.1735    4.0730    0.0028 H         1 <0>         0.1460
     26 H8          4.8643    1.2997   -0.9275 H         1 <0>         0.1476
     27 H9          4.8816    1.2896    0.8523 H         1 <0>         0.1476
@<TRIPOS>BOND
     1    1    2 1
     2    1   19 1
     3    1   20 1
     4    1   21 1
     5    2   14 2
     6    2    3 1
     7    3    4 2
     8    4   13 1
     9    4    5 1
    10    5   10 ar
    11    5    6 ar
    12    6    7 ar
    13    6   22 1
    14    7    8 ar
    15    7   23 1
    16    8    9 ar
    17    8   24 1
    18    9   10 ar
    19    9   25 1
    20   10   11 1
    21   11   12 2
    22   12   13 1
    23   12   15 1
    24   13   14 1
    25   15   16 1
    26   16   17 1
    27   16   26 1
    28   16   27 1
    29   17   18 3
@<TRIPOS>MOLECULE
ZINC14728559
   42    45     0     0     0
SMALL
USER_CHARGES

@<TRIPOS>ATOM
      1 C1         -0.0184    1.5028    0.0103 C.3       1 <0>        -0.0632
      2 C2          0.0021   -0.0041    0.0020 C.2       1 <0>         0.2591
      3 N1          0.0074   -0.7653   -1.0885 N.2       1 <0>        -0.5153
      4 C3          0.0262   -2.0350   -0.7426 C.2       1 <0>         0.3337
      5 C4          0.0401   -3.3025   -1.4814 C.ar      1 <0>        -0.0853
      6 C5          0.0349   -3.3461   -2.8738 C.ar      1 <0>        -0.0535
      7 C6          0.0489   -4.5644   -3.5167 C.ar      1 <0>        -0.1192
      8 C7          0.0682   -5.7468   -2.7882 C.ar      1 <0>        -0.0771
      9 C8          0.0737   -5.7268   -1.4123 C.ar      1 <0>        -0.0940
     10 C9          0.0597   -4.5036   -0.7361 C.ar      1 <0>         0.1403
     11 N2          0.0655   -4.4448    0.6171 N.2       1 <0>        -0.4920
     12 C10         0.0535   -3.3057    1.2616 C.2       1 <0>         0.3785
     13 N3          0.0333   -2.0947    0.6245 N.pl3     1 <0>        -0.3406
     14 N4          0.0230   -0.7655    1.0679 N.2       1 <0>        -0.2984
     15 S1          0.0618   -3.3326    3.0233 S.3       1 <0>         0.0310
     16 C11         0.0869   -5.0990    3.4352 C.3       1 <0>        -0.1094
     17 C12         0.0961   -5.2681    4.9558 C.3       1 <0>         0.0696
     18 N5          0.1164   -6.6986    5.2893 N.3       1 <0>        -0.5312
     19 C13        -1.1343   -7.3531    4.8787 C.3       1 <0>         0.0109
     20 C14        -1.0468   -8.8496    5.1898 C.3       1 <0>         0.0635
     21 O1         -0.7749   -9.0268    6.5826 O.3       1 <0>        -0.3844
     22 C15         0.4364   -8.4026    7.0167 C.3       1 <0>         0.0633
     23 C16         0.3640   -6.9016    6.7241 C.3       1 <0>         0.0178
     24 H1          1.0042    1.8801    0.0026 H         1 <0>         0.0935
     25 H2         -0.5455    1.8639   -0.8728 H         1 <0>         0.0945
     26 H3         -0.5286    1.8543    0.9071 H         1 <0>         0.0907
     27 H4          0.0195   -2.4302   -3.4458 H         1 <0>         0.1438
     28 H5          0.0445   -4.6004   -4.5961 H         1 <0>         0.1397
     29 H6          0.0786   -6.6934   -3.3080 H         1 <0>         0.1404
     30 H7          0.0891   -6.6529   -0.8570 H         1 <0>         0.1442
     31 H8         -0.7987   -5.5812    3.0213 H         1 <0>         0.1002
     32 H9          0.9811   -5.5578    3.0132 H         1 <0>         0.1102
     33 H10         0.9817   -4.7859    5.3696 H         1 <0>         0.0903
     34 H11        -0.7981   -4.8093    5.3777 H         1 <0>         0.0499
     35 H12        -1.9702   -6.9161    5.4251 H         1 <0>         0.0472
     36 H13        -1.2847   -7.2120    3.8084 H         1 <0>         0.0895
     37 H14        -1.9932   -9.3293    4.9398 H         1 <0>         0.1001
     38 H15        -0.2449   -9.2971    4.6025 H         1 <0>         0.0617
     39 H16         0.5629   -8.5590    8.0879 H         1 <0>         0.1010
     40 H17         1.2815   -8.8371    6.4826 H         1 <0>         0.0618
     41 H18         1.3073   -6.4309    7.0009 H         1 <0>         0.0902
     42 H19        -0.4479   -6.4574    7.3000 H         1 <0>         0.0471
@<TRIPOS>BOND
     1    1    2 1
     2    1   24 1
     3    1   25 1
     4    1   26 1
     5    2   14 2
     6    2    3 1
     7    3    4 2
     8    4   13 1
     9    4    5 1
    10    5   10 ar
    11    5    6 ar
    12    6    7 ar
    13    6   27 1
    14    7    8 ar
    15    7   28 1
    16    8    9 ar
    17    8   29 1
    18    9   10 ar
    19    9   30 1
    20   10   11 1
    21   11   12 2
    22   12   13 1
    23   12   15 1
    24   13   14 1
    25   15   16 1
    26   16   17 1
    27   16   31 1
    28   16   32 1
    29   17   18 1
    30   17   33 1
    31   17   34 1
    32   18   23 1
    33   18   19 1
    34   19   20 1
    35   19   35 1
    36   19   36 1
    37   20   21 1
    38   20   37 1
    39   20   38 1
    40   21   22 1
    41   22   23 1
    42   22   39 1
    43   22   40 1
    44   23   41 1
    45   23   42 1
@<TRIPOS>MOLECULE
ZINC14728559
   43    46     0     0     0
SMALL
USER_CHARGES

@<TRIPOS>ATOM
      1 C1         -0.0184    1.5028    0.0103 C.3       1 <0>        -0.0683
      2 C2          0.0021   -0.0041    0.0020 C.2       1 <0>         0.2726
      3 N1          0.0074   -0.7653   -1.0885 N.2       1 <0>        -0.5073
      4 C3          0.0262   -2.0350   -0.7426 C.2       1 <0>         0.3372
      5 C4          0.0401   -3.3025   -1.4814 C.ar      1 <0>        -0.0765
      6 C5          0.0349   -3.3461   -2.8738 C.ar      1 <0>        -0.0528
      7 C6          0.0489   -4.5644   -3.5167 C.ar      1 <0>        -0.1073
      8 C7          0.0682   -5.7468   -2.7882 C.ar      1 <0>        -0.0751
      9 C8          0.0737   -5.7268   -1.4123 C.ar      1 <0>        -0.0920
     10 C9          0.0597   -4.5036   -0.7361 C.ar      1 <0>         0.1290
     11 N2          0.0655   -4.4448    0.6171 N.2       1 <0>        -0.4923
     12 C10         0.0535   -3.3057    1.2616 C.2       1 <0>         0.3688
     13 N3          0.0333   -2.0947    0.6245 N.pl3     1 <0>        -0.3452
     14 N4          0.0230   -0.7655    1.0679 N.2       1 <0>        -0.3039
     15 S1          0.0618   -3.3326    3.0233 S.3       1 <0>         0.0785
     16 C11         0.0869   -5.0990    3.4352 C.3       1 <0>        -0.1703
     17 C12         0.0961   -5.2681    4.9558 C.3       1 <0>         0.0085
     18 N5          0.1164   -6.6986    5.2893 N.4       1 <0>        -0.3815
     19 C13        -1.1335   -7.3250    4.8370 C.3       1 <0>        -0.0514
     20 C14        -1.1098   -8.8153    5.1855 C.3       1 <0>         0.0373
     21 O1         -0.9265   -8.9670    6.5959 O.3       1 <0>        -0.3556
     22 C15         0.2671   -8.3520    7.0888 C.3       1 <0>         0.0362
     23 C16         0.2459   -6.8608    6.7439 C.3       1 <0>        -0.0433
     24 H1          1.0042    1.8801    0.0026 H         1 <0>         0.0977
     25 H2         -0.5455    1.8639   -0.8728 H         1 <0>         0.0988
     26 H3         -0.5286    1.8543    0.9071 H         1 <0>         0.0934
     27 H4          0.0195   -2.4302   -3.4458 H         1 <0>         0.1484
     28 H5          0.0445   -4.6004   -4.5961 H         1 <0>         0.1451
     29 H6          0.0786   -6.6934   -3.3080 H         1 <0>         0.1442
     30 H7          0.0891   -6.6529   -0.8570 H         1 <0>         0.1425
     31 H8         -0.7987   -5.5812    3.0213 H         1 <0>         0.1215
     32 H9          0.9811   -5.5578    3.0132 H         1 <0>         0.1225
     33 H10         0.9817   -4.7859    5.3696 H         1 <0>         0.1460
     34 H11        -0.7981   -4.8093    5.3777 H         1 <0>         0.1439
     35 H12        -1.9791   -6.8489    5.3334 H         1 <0>         0.1426
     36 H13        -1.2305   -7.2053    3.7580 H         1 <0>         0.1435
     37 H14        -2.0536   -9.2734    4.8897 H         1 <0>         0.1431
     38 H15        -0.2882   -9.2995    4.6575 H         1 <0>         0.0823
     39 H16         0.3197   -8.4747    8.1706 H         1 <0>         0.1440
     40 H17         1.1357   -8.8203    6.6260 H         1 <0>         0.0823
     41 H18         1.1729   -6.3966    7.0805 H         1 <0>         0.1456
     42 H19        -0.6002   -6.3849    7.2396 H         1 <0>         0.1419
     43 H20         0.8993   -7.1400    4.8305 H         1 <0>         0.4253
@<TRIPOS>BOND
     1    1    2 1
     2    1   24 1
     3    1   25 1
     4    1   26 1
     5    2   14 2
     6    2    3 1
     7    3    4 2
     8    4   13 1
     9    4    5 1
    10    5   10 ar
    11    5    6 ar
    12    6    7 ar
    13    6   27 1
    14    7    8 ar
    15    7   28 1
    16    8    9 ar
    17    8   29 1
    18    9   10 ar
    19    9   30 1
    20   10   11 1
    21   11   12 2
    22   12   13 1
    23   12   15 1
    24   13   14 1
    25   15   16 1
    26   16   17 1
    27   16   31 1
    28   16   32 1
    29   17   18 1
    30   17   33 1
    31   17   34 1
    32   18   23 1
    33   18   19 1
    34   18   43 1
    35   19   20 1
    36   19   35 1
    37   19   36 1
    38   20   21 1
    39   20   37 1
    40   20   38 1
    41   21   22 1
    42   22   23 1
    43   22   39 1
    44   22   40 1
    45   23   41 1
    46   23   42 1
@<TRIPOS>MOLECULE
ZINC00424907
   35    38     0     0     0
SMALL
USER_CHARGES
2-methyl-5-(4-pyridylmethylsulfanyl)-[1,2,4]triazolo[1,5-c]quinazoline
@<TRIPOS>ATOM
      1 C1         -1.0811   -3.4555   -0.0042 C.3       1 <0>        -0.0636
      2 C2         -0.3476   -2.1390   -0.0050 C.2       1 <0>         0.2602
      3 N1         -0.9231   -0.9400    0.0065 N.2       1 <0>        -0.5150
      4 C3          0.0021   -0.0041    0.0020 C.2       1 <0>         0.3335
      5 C4         -0.0178    1.4629    0.0101 C.ar      1 <0>        -0.0843
      6 C5         -1.2084    2.1862    0.0197 C.ar      1 <0>        -0.0535
      7 C6         -1.1684    3.5632    0.0323 C.ar      1 <0>        -0.1185
      8 C7          0.0476    4.2344    0.0243 C.ar      1 <0>        -0.0770
      9 C8          1.2354    3.5400    0.0093 C.ar      1 <0>        -0.0939
     10 C9          1.2220    2.1423    0.0019 C.ar      1 <0>         0.1399
     11 N2          2.3714    1.4258   -0.0134 N.2       1 <0>        -0.4923
     12 C10         2.3723    0.1171   -0.0202 C.2       1 <0>         0.3710
     13 N3          1.2219   -0.6241   -0.0130 N.pl3     1 <0>        -0.3423
     14 N4          0.9549   -1.9996   -0.0171 N.2       1 <0>        -0.2995
     15 S1          3.9195   -0.7258   -0.0401 S.3       1 <0>         0.0509
     16 C11         5.0483    0.6891   -0.0434 C.3       1 <0>        -0.0763
     17 C12         6.4721    0.1958   -0.0602 C.ar      1 <0>        -0.0411
     18 C13         7.1564   -0.0376    1.1229 C.ar      1 <0>        -0.1538
     19 C14         8.4598   -0.4938    1.0683 C.ar      1 <0>         0.1029
     20 N5          9.0551   -0.6977   -0.0906 N.ar      1 <0>        -0.4784
     21 C15         8.4368   -0.4820   -1.2352 C.ar      1 <0>         0.1030
     22 C16         7.1310   -0.0300   -1.2591 C.ar      1 <0>        -0.1539
     23 H1         -1.2475   -3.7781    1.0236 H         1 <0>         0.0938
     24 H2         -2.0406   -3.3371   -0.5077 H         1 <0>         0.0949
     25 H3         -0.4858   -4.2034   -0.5279 H         1 <0>         0.0909
     26 H4         -2.1572    1.6704    0.0210 H         1 <0>         0.1440
     27 H5         -2.0903    4.1256    0.0442 H         1 <0>         0.1399
     28 H6          0.0609    5.3143    0.0304 H         1 <0>         0.1406
     29 H7          2.1747    4.0729    0.0028 H         1 <0>         0.1445
     30 H8          4.8644    1.2985   -0.9283 H         1 <0>         0.1159
     31 H9          4.8820    1.2887    0.8515 H         1 <0>         0.1159
     32 H10         6.6757    0.1319    2.0751 H         1 <0>         0.1399
     33 H11         8.9986   -0.6812    1.9854 H         1 <0>         0.1610
     34 H12         8.9570   -0.6603   -2.1647 H         1 <0>         0.1610
     35 H13         6.6302    0.1455   -2.1997 H         1 <0>         0.1399
@<TRIPOS>BOND
     1    1    2 1
     2    1   23 1
     3    1   24 1
     4    1   25 1
     5    2   14 2
     6    2    3 1
     7    3    4 2
     8    4   13 1
     9    4    5 1
    10    5   10 ar
    11    5    6 ar
    12    6    7 ar
    13    6   26 1
    14    7    8 ar
    15    7   27 1
    16    8    9 ar
    17    8   28 1
    18    9   10 ar
    19    9   29 1
    20   10   11 1
    21   11   12 2
    22   12   13 1
    23   12   15 1
    24   13   14 1
    25   15   16 1
    26   16   17 1
    27   16   30 1
    28   16   31 1
    29   17   22 ar
    30   17   18 ar
    31   18   19 ar
    32   18   32 1
    33   19   20 ar
    34   19   33 1
    35   20   21 ar
    36   21   22 ar
    37   21   34 1
    38   22   35 1
@<TRIPOS>MOLECULE
ZINC13229753
   38    42     0     0     0
SMALL
USER_CHARGES
benzooxazol-2-ylmethylsulfanyl-methyl-BLAH
@<TRIPOS>ATOM
      1 C1         -1.0811   -3.4555   -0.0062 C.3       1 <0>        -0.0639
      2 C2         -0.3476   -2.1390   -0.0061 C.2       1 <0>         0.2616
      3 N1         -0.9231   -0.9400    0.0058 N.2       1 <0>        -0.5140
      4 C3          0.0021   -0.0041    0.0020 C.2       1 <0>         0.3353
      5 C4         -0.0178    1.4629    0.0101 C.ar      1 <0>        -0.0825
      6 C5         -1.2083    2.1861    0.0310 C.ar      1 <0>        -0.0536
      7 C6         -1.1684    3.5632    0.0328 C.ar      1 <0>        -0.1171
      8 C7          0.0475    4.2344    0.0243 C.ar      1 <0>        -0.0770
      9 C8          1.2354    3.5400    0.0093 C.ar      1 <0>        -0.0923
     10 C9          1.2220    2.1423    0.0019 C.ar      1 <0>         0.1397
     11 N2          2.3714    1.4258   -0.0129 N.2       1 <0>        -0.4923
     12 C10         2.3723    0.1171   -0.0199 C.2       1 <0>         0.3714
     13 N3          1.2219   -0.6241   -0.0129 N.pl3     1 <0>        -0.3419
     14 N4          0.9549   -1.9996   -0.0178 N.2       1 <0>        -0.2996
     15 S1          3.9195   -0.7258   -0.0386 S.3       1 <0>         0.0792
     16 C11         5.0483    0.6891   -0.0420 C.3       1 <0>        -0.0312
     17 C12         6.4722    0.1958   -0.0577 C.2       1 <0>         0.2471
     18 N5          7.1637   -0.0419   -1.1314 N.2       1 <0>        -0.4476
     19 C13         8.4029   -0.4710   -0.7687 C.ar      1 <0>         0.0164
     20 C14         9.5372   -0.8619   -1.4822 C.ar      1 <0>        -0.0543
     21 C15        10.6691   -1.2540   -0.8036 C.ar      1 <0>        -0.1186
     22 C16        10.6889   -1.2628    0.5835 C.ar      1 <0>        -0.0841
     23 C17         9.5756   -0.8792    1.3013 C.ar      1 <0>        -0.0943
     24 C18         8.4269   -0.4813    0.6341 C.ar      1 <0>         0.0176
     25 O1          7.2092   -0.0554    1.0357 O.3       1 <0>        -0.2047
     26 H1         -1.2478   -3.7786    1.0214 H         1 <0>         0.0940
     27 H2         -2.0405   -3.3369   -0.5099 H         1 <0>         0.0951
     28 H3         -0.4857   -4.2032   -0.5302 H         1 <0>         0.0911
     29 H4         -2.1570    1.6703    0.0416 H         1 <0>         0.1443
     30 H5         -2.0903    4.1256    0.0446 H         1 <0>         0.1401
     31 H6          0.0609    5.3143    0.0300 H         1 <0>         0.1410
     32 H7          2.1747    4.0729    0.0028 H         1 <0>         0.1456
     33 H8          4.8649    1.2981   -0.9272 H         1 <0>         0.1481
     34 H9          4.8815    1.2891    0.8526 H         1 <0>         0.1367
     35 H10         9.5270   -0.8565   -2.5621 H         1 <0>         0.1397
     36 H11        11.5474   -1.5563   -1.3546 H         1 <0>         0.1415
     37 H12        11.5824   -1.5727    1.1050 H         1 <0>         0.1446
     38 H13         9.5982   -0.8889    2.3810 H         1 <0>         0.1390
@<TRIPOS>BOND
     1    1    2 1
     2    1   26 1
     3    1   27 1
     4    1   28 1
     5    2   14 2
     6    2    3 1
     7    3    4 2
     8    4   13 1
     9    4    5 1
    10    5   10 ar
    11    5    6 ar
    12    6    7 ar
    13    6   29 1
    14    7    8 ar
    15    7   30 1
    16    8    9 ar
    17    8   31 1
    18    9   10 ar
    19    9   32 1
    20   10   11 1
    21   11   12 2
    22   12   13 1
    23   12   15 1
    24   13   14 1
    25   15   16 1
    26   16   17 1
    27   16   33 1
    28   16   34 1
    29   17   25 1
    30   17   18 2
    31   18   19 1
    32   19   24 ar
    33   19   20 ar
    34   20   21 ar
    35   20   35 1
    36   21   22 ar
    37   21   36 1
    38   22   23 ar
    39   22   37 1
    40   23   24 ar
    41   23   38 1
    42   24   25 1
@<TRIPOS>MOLECULE
ZINC44924158
   38    42     0     0     0
SMALL
USER_CHARGES

@<TRIPOS>ATOM
      1 C1         -0.0184    1.5028    0.0103 C.3       1 <0>        -0.0631
      2 C2          0.0021   -0.0041    0.0020 C.2       1 <0>         0.2585
      3 N1          0.0074   -0.7653   -1.0885 N.2       1 <0>        -0.5157
      4 C3          0.0262   -2.0350   -0.7426 C.2       1 <0>         0.3338
      5 C4          0.0401   -3.3025   -1.4814 C.ar      1 <0>        -0.0857
      6 C5          0.0349   -3.3461   -2.8738 C.ar      1 <0>        -0.0533
      7 C6          0.0489   -4.5644   -3.5167 C.ar      1 <0>        -0.1203
      8 C7          0.0682   -5.7468   -2.7882 C.ar      1 <0>        -0.0772
      9 C8          0.0737   -5.7268   -1.4123 C.ar      1 <0>        -0.0945
     10 C9          0.0597   -4.5036   -0.7361 C.ar      1 <0>         0.1417
     11 N2          0.0655   -4.4448    0.6171 N.2       1 <0>        -0.4945
     12 C10         0.0535   -3.3057    1.2616 C.2       1 <0>         0.3752
     13 N3          0.0333   -2.0947    0.6245 N.pl3     1 <0>        -0.3401
     14 N4          0.0230   -0.7655    1.0679 N.2       1 <0>        -0.2982
     15 S1          0.0618   -3.3326    3.0233 S.3       1 <0>         0.0490
     16 C11         0.0869   -5.0990    3.4352 C.3       1 <0>        -0.0292
     17 C12         0.0959   -5.2656    4.9329 C.2       1 <0>         0.0767
     18 C13         1.1970   -5.3328    5.7112 C.2       1 <0>        -0.0628
     19 N5          0.7685   -5.4840    7.0020 N.pl3     1 <0>        -0.3992
     20 C14         1.4304   -5.6045    8.1892 C.2       1 <0>         0.1123
     21 C15         0.7139   -5.7443    9.3317 C.2       1 <0>        -0.2018
     22 C16        -0.6865   -5.7617    9.2662 C.2       1 <0>         0.1770
     23 N6         -1.2984   -5.6439    8.1114 N.2       1 <0>        -0.4352
     24 C17        -0.6023   -5.5050    6.9738 C.2       1 <0>         0.3854
     25 N7         -0.9847   -5.3655    5.7127 N.2       1 <0>        -0.4542
     26 H1          1.0042    1.8801    0.0026 H         1 <0>         0.0931
     27 H2         -0.5455    1.8639   -0.8728 H         1 <0>         0.0944
     28 H3         -0.5286    1.8543    0.9071 H         1 <0>         0.0905
     29 H4          0.0195   -2.4302   -3.4458 H         1 <0>         0.1434
     30 H5          0.0445   -4.6004   -4.5961 H         1 <0>         0.1391
     31 H6          0.0786   -6.6934   -3.3080 H         1 <0>         0.1399
     32 H7          0.0891   -6.6529   -0.8570 H         1 <0>         0.1446
     33 H8         -0.7987   -5.5812    3.0213 H         1 <0>         0.1216
     34 H9          0.9811   -5.5578    3.0132 H         1 <0>         0.1205
     35 H10         2.2228   -5.2782    5.3778 H         1 <0>         0.1938
     36 H11         2.5099   -5.5891    8.2183 H         1 <0>         0.1785
     37 H12         1.2168   -5.8416   10.2825 H         1 <0>         0.1692
     38 H13        -1.2649   -5.8730   10.1714 H         1 <0>         0.1867
@<TRIPOS>BOND
     1    1    2 1
     2    1   26 1
     3    1   27 1
     4    1   28 1
     5    2   14 2
     6    2    3 1
     7    3    4 2
     8    4   13 1
     9    4    5 1
    10    5   10 ar
    11    5    6 ar
    12    6    7 ar
    13    6   29 1
    14    7    8 ar
    15    7   30 1
    16    8    9 ar
    17    8   31 1
    18    9   10 ar
    19    9   32 1
    20   10   11 1
    21   11   12 2
    22   12   13 1
    23   12   15 1
    24   13   14 1
    25   15   16 1
    26   16   17 1
    27   16   33 1
    28   16   34 1
    29   17   25 1
    30   17   18 2
    31   18   19 1
    32   18   35 1
    33   19   24 1
    34   19   20 1
    35   20   21 2
    36   20   36 1
    37   21   22 1
    38   21   37 1
    39   22   23 2
    40   22   38 1
    41   23   24 1
    42   24   25 2
@<TRIPOS>MOLECULE
ZINC08747709
   39    43     0     0     0
SMALL
USER_CHARGES
1,7-diazabicyclo[4.3.0]nona-2,4,6,8-tetraen-8-ylmethylsulfanyl-methyl-BLAH
@<TRIPOS>ATOM
      1 C1         -1.0811   -3.4555   -0.0042 C.3       1 <0>        -0.0630
      2 C2         -0.3476   -2.1390   -0.0050 C.2       1 <0>         0.2584
      3 N1         -0.9231   -0.9400    0.0065 N.2       1 <0>        -0.5163
      4 C3          0.0021   -0.0041    0.0020 C.2       1 <0>         0.3334
      5 C4         -0.0178    1.4629    0.0101 C.ar      1 <0>        -0.0858
      6 C5         -1.2084    2.1862    0.0197 C.ar      1 <0>        -0.0533
      7 C6         -1.1684    3.5632    0.0323 C.ar      1 <0>        -0.1206
      8 C7          0.0476    4.2344    0.0243 C.ar      1 <0>        -0.0773
      9 C8          1.2354    3.5400    0.0093 C.ar      1 <0>        -0.0946
     10 C9          1.2220    2.1423    0.0019 C.ar      1 <0>         0.1423
     11 N2          2.3714    1.4258   -0.0134 N.2       1 <0>        -0.4934
     12 C10         2.3723    0.1171   -0.0202 C.2       1 <0>         0.3718
     13 N3          1.2219   -0.6241   -0.0130 N.pl3     1 <0>        -0.3414
     14 N4          0.9549   -1.9996   -0.0171 N.2       1 <0>        -0.2989
     15 S1          3.9195   -0.7258   -0.0401 S.3       1 <0>         0.0550
     16 C11         5.0483    0.6891   -0.0434 C.3       1 <0>        -0.0294
     17 C12         6.4721    0.1958   -0.0602 C.2       1 <0>         0.0598
     18 C13         7.2294   -0.0631    1.0283 C.2       1 <0>        -0.0689
     19 N5          8.4492   -0.4909    0.5796 N.pl3     1 <0>        -0.3612
     20 C14         9.5842   -0.8863    1.2263 C.2       1 <0>         0.0542
     21 C15        10.6765   -1.2634    0.5292 C.2       1 <0>        -0.1370
     22 C16        10.6590   -1.2537   -0.8754 C.2       1 <0>        -0.0983
     23 C17         9.5344   -0.8616   -1.5325 C.2       1 <0>        -0.0785
     24 C18         8.4019   -0.4710   -0.7902 C.2       1 <0>         0.2296
     25 N6          7.1975   -0.0528   -1.1532 N.2       1 <0>        -0.4764
     26 H1         -1.2475   -3.7781    1.0236 H         1 <0>         0.0930
     27 H2         -2.0406   -3.3371   -0.5077 H         1 <0>         0.0943
     28 H3         -0.4858   -4.2034   -0.5279 H         1 <0>         0.0904
     29 H4         -2.1572    1.6704    0.0210 H         1 <0>         0.1432
     30 H5         -2.0903    4.1256    0.0442 H         1 <0>         0.1389
     31 H6          0.0609    5.3143    0.0304 H         1 <0>         0.1398
     32 H7          2.1747    4.0729    0.0028 H         1 <0>         0.1447
     33 H8          4.8644    1.2985   -0.9283 H         1 <0>         0.1198
     34 H9          4.8820    1.2887    0.8515 H         1 <0>         0.1180
     35 H10         6.9276    0.0450    2.0597 H         1 <0>         0.1882
     36 H11         9.6084   -0.8977    2.3060 H         1 <0>         0.1659
     37 H12        11.5680   -1.5743    1.0535 H         1 <0>         0.1540
     38 H13        11.5344   -1.5560   -1.4310 H         1 <0>         0.1459
     39 H14         9.5094   -0.8506   -2.6122 H         1 <0>         0.1537
@<TRIPOS>BOND
     1    1    2 1
     2    1   26 1
     3    1   27 1
     4    1   28 1
     5    2   14 2
     6    2    3 1
     7    3    4 2
     8    4   13 1
     9    4    5 1
    10    5   10 ar
    11    5    6 ar
    12    6    7 ar
    13    6   29 1
    14    7    8 ar
    15    7   30 1
    16    8    9 ar
    17    8   31 1
    18    9   10 ar
    19    9   32 1
    20   10   11 1
    21   11   12 2
    22   12   13 1
    23   12   15 1
    24   13   14 1
    25   15   16 1
    26   16   17 1
    27   16   33 1
    28   16   34 1
    29   17   25 1
    30   17   18 2
    31   18   19 1
    32   18   35 1
    33   19   24 1
    34   19   20 1
    35   20   21 2
    36   20   36 1
    37   21   22 1
    38   21   37 1
    39   22   23 2
    40   22   38 1
    41   23   24 1
    42   23   39 1
    43   24   25 2
@<TRIPOS>MOLECULE
ZINC71332730
   36    40     0     0     0
SMALL
USER_CHARGES

@<TRIPOS>ATOM
      1 C1         -0.0184    1.5028    0.0103 C.3       1 <0>        -0.0630
      2 C2          0.0021   -0.0041    0.0020 C.2       1 <0>         0.2583
      3 N1          0.0074   -0.7653   -1.0885 N.2       1 <0>        -0.5158
      4 C3          0.0262   -2.0350   -0.7426 C.2       1 <0>         0.3336
      5 C4          0.0401   -3.3025   -1.4814 C.ar      1 <0>        -0.0859
      6 C5          0.0349   -3.3461   -2.8738 C.ar      1 <0>        -0.0532
      7 C6          0.0489   -4.5644   -3.5167 C.ar      1 <0>        -0.1204
      8 C7          0.0682   -5.7468   -2.7882 C.ar      1 <0>        -0.0772
      9 C8          0.0737   -5.7268   -1.4123 C.ar      1 <0>        -0.0947
     10 C9          0.0597   -4.5036   -0.7361 C.ar      1 <0>         0.1418
     11 N2          0.0655   -4.4448    0.6171 N.2       1 <0>        -0.4949
     12 C10         0.0535   -3.3057    1.2616 C.2       1 <0>         0.3753
     13 N3          0.0333   -2.0947    0.6245 N.pl3     1 <0>        -0.3402
     14 N4          0.0230   -0.7655    1.0679 N.2       1 <0>        -0.2981
     15 S1          0.0618   -3.3326    3.0233 S.3       1 <0>         0.0451
     16 C11         0.0869   -5.0990    3.4352 C.3       1 <0>        -0.0230
     17 C12         0.0959   -5.2656    4.9329 C.2       1 <0>         0.0413
     18 C13         1.1899   -5.3327    5.7095 C.2       1 <0>        -0.0078
     19 N5          0.7657   -5.4863    7.0267 N.pl3     1 <0>        -0.4345
     20 C14         1.3257   -5.6155    8.2790 C.2       1 <0>         0.0256
     21 C15         0.5577   -5.7492    9.3592 C.2       1 <0>        -0.1702
     22 S2         -1.0825   -5.6993    8.6540 S.3       1 <0>         0.1361
     23 C16        -0.6022   -5.5021    6.9541 C.2       1 <0>         0.1793
     24 N6         -0.9877   -5.3662    5.7180 N.2       1 <0>        -0.4275
     25 H1          1.0042    1.8801    0.0026 H         1 <0>         0.0930
     26 H2         -0.5455    1.8639   -0.8728 H         1 <0>         0.0944
     27 H3         -0.5286    1.8543    0.9071 H         1 <0>         0.0905
     28 H4          0.0195   -2.4302   -3.4458 H         1 <0>         0.1433
     29 H5          0.0445   -4.6004   -4.5961 H         1 <0>         0.1391
     30 H6          0.0786   -6.6934   -3.3080 H         1 <0>         0.1399
     31 H7          0.0891   -6.6529   -0.8570 H         1 <0>         0.1445
     32 H8         -0.7987   -5.5812    3.0213 H         1 <0>         0.1203
     33 H9          0.9811   -5.5578    3.0132 H         1 <0>         0.1188
     34 H10         2.2146   -5.2780    5.3725 H         1 <0>         0.1889
     35 H11         2.4004   -5.6087    8.3861 H         1 <0>         0.1773
     36 H12         0.8507   -5.8592   10.3929 H         1 <0>         0.2199
@<TRIPOS>BOND
     1    1    2 1
     2    1   25 1
     3    1   26 1
     4    1   27 1
     5    2   14 2
     6    2    3 1
     7    3    4 2
     8    4   13 1
     9    4    5 1
    10    5   10 ar
    11    5    6 ar
    12    6    7 ar
    13    6   28 1
    14    7    8 ar
    15    7   29 1
    16    8    9 ar
    17    8   30 1
    18    9   10 ar
    19    9   31 1
    20   10   11 1
    21   11   12 2
    22   12   13 1
    23   12   15 1
    24   13   14 1
    25   15   16 1
    26   16   17 1
    27   16   32 1
    28   16   33 1
    29   17   24 1
    30   17   18 2
    31   18   19 1
    32   18   34 1
    33   19   23 1
    34   19   20 1
    35   20   21 2
    36   20   35 1
    37   21   22 1
    38   21   36 1
    39   22   23 1
    40   23   24 2
@<TRIPOS>MOLECULE
ZINC19796168
   63    66     0     0     0
SMALL
USER_CHARGES

@<TRIPOS>ATOM
      1 C1         -0.0187    1.5258    0.0104 C.3       1 <0>        -0.1516
      2 C2          0.0021   -0.0041    0.0020 C.3       1 <0>        -0.1160
      3 C3          0.7182   -0.4975   -1.2568 C.3       1 <0>        -0.0368
      4 C4          0.7386   -2.0043   -1.2651 C.2       1 <0>         0.1083
      5 C5          1.7436   -2.8145   -0.7017 C.2       1 <0>         0.0436
      6 C6          1.3716   -4.1454   -0.9309 C.2       1 <0>        -0.0357
      7 C7          2.2155   -5.1793   -0.4631 C.2       1 <0>         0.5719
      8 O1          1.9272   -6.3498   -0.6430 O.2       1 <0>        -0.5217
      9 N1          3.3497   -4.8379    0.1877 N.am      1 <0>        -0.6330
     10 H1          3.9439   -5.5300    0.5176 H         1 <0>         0.4219
     11 C8          3.6639   -3.5203    0.3833 C.2       1 <0>         0.3994
     12 N2          2.8908   -2.5515   -0.0437 N.2       1 <0>        -0.4298
     13 C9          4.9101   -3.1798    1.0980 C.ar      1 <0>        -0.1126
     14 C10         5.7536   -4.1922    1.5597 C.ar      1 <0>         0.0399
     15 C11         6.9158   -3.8678    2.2265 C.ar      1 <0>        -0.7185
     16 C12         7.2508   -2.5412    2.4411 C.ar      1 <0>         0.0430
     17 C13         6.4250   -1.5305    1.9894 C.ar      1 <0>        -0.2315
     18 C14         5.2556   -1.8391    1.3116 C.ar      1 <0>         0.2415
     19 O2          4.4461   -0.8467    0.8623 O.3       1 <0>        -0.2578
     20 C15         4.8632    0.4961    1.1168 C.3       1 <0>         0.0414
     21 C16         3.8319    1.4685    0.5407 C.3       1 <0>        -0.1519
     22 S1          7.9793   -5.1464    2.8085 S.o2      1 <0>         2.6926
     23 O3          8.7312   -4.5930    3.8798 O.2       1 <0>        -0.9482
     24 O4          7.1730   -6.3063    2.9631 O.2       1 <0>        -0.9501
     25 N3          9.0568   -5.4772    1.5953 N.pl3     1 <0>        -0.9979
     26 C17         8.7556   -6.4921    0.5742 C.3       1 <0>         0.1239
     27 C18         8.9742   -5.8704   -0.8093 C.3       1 <0>         0.0382
     28 N4         10.3268   -5.3015   -0.8788 N.3       1 <0>        -0.5395
     29 C19        10.4964   -4.2104    0.0900 C.3       1 <0>         0.0386
     30 C20        10.3376   -4.7598    1.5068 C.3       1 <0>         0.1243
     31 C21        10.6381   -4.8489   -2.2412 C.3       1 <0>         0.0245
     32 N5          0.1842   -4.1164   -1.6082 N.pl3     1 <0>        -0.3299
     33 N6         -0.1751   -2.7746   -1.7907 N.2       1 <0>        -0.2328
     34 C22        -0.5794   -5.2824   -2.0596 C.3       1 <0>         0.0994
     35 H2          1.0039    1.9031    0.0027 H         1 <0>         0.0577
     36 H3         -0.5459    1.8868   -0.8726 H         1 <0>         0.0559
     37 H4         -0.5289    1.8773    0.9072 H         1 <0>         0.0565
     38 H5          0.5293   -0.3651    0.8851 H         1 <0>         0.0665
     39 H6         -1.0205   -0.3814    0.0098 H         1 <0>         0.0628
     40 H7          0.1910   -0.1364   -2.1398 H         1 <0>         0.0831
     41 H8          1.7408   -0.1202   -1.2645 H         1 <0>         0.0935
     42 H9          5.4957   -5.2279    1.3950 H         1 <0>         0.1438
     43 H10         8.1628   -2.2958    2.9650 H         1 <0>         0.1492
     44 H11         6.6926   -0.4983    2.1608 H         1 <0>         0.1488
     45 H12         4.9489    0.6524    2.1922 H         1 <0>         0.0678
     46 H13         5.8306    0.6715    0.6460 H         1 <0>         0.0666
     47 H14         3.7463    1.3123   -0.5346 H         1 <0>         0.0692
     48 H15         2.8646    1.2931    1.0115 H         1 <0>         0.0720
     49 H16         4.1502    2.4927    0.7349 H         1 <0>         0.0796
     50 H17         9.4199   -7.3470    0.7005 H         1 <0>         0.0879
     51 H18         7.7185   -6.8131    0.6717 H         1 <0>         0.0935
     52 H19         8.8627   -6.6382   -1.5748 H         1 <0>         0.0901
     53 H20         8.2393   -5.0824   -0.9741 H         1 <0>         0.0394
     54 H21        11.4890   -3.7744   -0.0233 H         1 <0>         0.0905
     55 H22         9.7403   -3.4456   -0.0874 H         1 <0>         0.0393
     56 H23        10.3460   -3.9360    2.2206 H         1 <0>         0.0948
     57 H24        11.1569   -5.4449    1.7245 H         1 <0>         0.0867
     58 H25         9.9216   -4.0848   -2.5429 H         1 <0>         0.0257
     59 H26        11.6450   -4.4322   -2.2645 H         1 <0>         0.0713
     60 H27        10.5786   -5.6939   -2.9273 H         1 <0>         0.0713
     61 H28        -1.2781   -5.5834   -1.2791 H         1 <0>         0.0824
     62 H29        -1.1323   -5.0268   -2.9634 H         1 <0>         0.0965
     63 H30         0.1042   -6.1043   -2.2721 H         1 <0>         0.1003
@<TRIPOS>BOND
     1    1    2 1
     2    1   35 1
     3    1   36 1
     4    1   37 1
     5    2    3 1
     6    2   38 1
     7    2   39 1
     8    3    4 1
     9    3   40 1
    10    3   41 1
    11    4   33 2
    12    4    5 1
    13    5   12 1
    14    5    6 2
    15    6    7 1
    16    6   32 1
    17    7    8 2
    18    7    9 am
    19    9   10 1
    20    9   11 1
    21   11   12 2
    22   11   13 1
    23   13   18 ar
    24   13   14 ar
    25   14   15 ar
    26   14   42 1
    27   15   16 ar
    28   15   22 1
    29   16   17 ar
    30   16   43 1
    31   17   18 ar
    32   17   44 1
    33   18   19 1
    34   19   20 1
    35   20   21 1
    36   20   45 1
    37   20   46 1
    38   21   47 1
    39   21   48 1
    40   21   49 1
    41   22   23 2
    42   22   24 2
    43   22   25 1
    44   25   30 1
    45   25   26 1
    46   26   27 1
    47   26   50 1
    48   26   51 1
    49   27   28 1
    50   27   52 1
    51   27   53 1
    52   28   29 1
    53   28   31 1
    54   29   30 1
    55   29   54 1
    56   29   55 1
    57   30   56 1
    58   30   57 1
    59   31   58 1
    60   31   59 1
    61   31   60 1
    62   32   33 1
    63   32   34 1
    64   34   61 1
    65   34   62 1
    66   34   63 1
@<TRIPOS>MOLECULE
ZINC19796168
   63    66     0     0     0
SMALL
USER_CHARGES

@<TRIPOS>ATOM
      1 C1         -0.0187    1.5258    0.0104 C.3       1 <0>        -0.1539
      2 C2          0.0021   -0.0041    0.0020 C.3       1 <0>        -0.1188
      3 C3          0.7182   -0.4975   -1.2568 C.3       1 <0>        -0.0455
      4 C4          0.7386   -2.0043   -1.2651 C.2       1 <0>         0.0795
      5 C5          1.7371   -2.8090   -0.7054 C.2       1 <0>         0.0226
      6 C6          1.3740   -4.1350   -0.9304 C.2       1 <0>        -0.0270
      7 C7          2.2608   -5.1909   -0.4384 C.2       1 <0>         0.5560
      8 O1          1.9844   -6.3672   -0.6123 O.2       1 <0>        -0.4907
      9 N1          3.3842   -4.8398    0.2075 N.2       1 <0>        -0.5489
     10 C8          3.6977   -3.5767    0.4033 C.2       1 <0>         0.4949
     11 N2          2.9154   -2.5523   -0.0295 N.pl3     1 <0>        -0.5912
     12 C9          4.9471   -3.2598    1.1207 C.ar      1 <0>        -0.1387
     13 C10         5.3072   -1.9297    1.3507 C.ar      1 <0>         0.0502
     14 C11         6.4754   -1.6404    2.0219 C.ar      1 <0>        -0.7241
     15 C12         7.2958   -2.6630    2.4697 C.ar      1 <0>         0.0516
     16 C13         6.9520   -3.9820    2.2486 C.ar      1 <0>        -0.2347
     17 C14         5.7769   -4.2915    1.5805 C.ar      1 <0>         0.2542
     18 O2          5.4349   -5.5872    1.3679 O.3       1 <0>        -0.2513
     19 C15         6.3296   -6.5843    1.8652 C.3       1 <0>         0.0415
     20 C16         5.7806   -7.9733    1.5332 C.3       1 <0>        -0.1498
     21 S1          6.9282    0.0377    2.3112 S.o2      1 <0>         2.6935
     22 O3          8.3389    0.0542    2.4813 O.2       1 <0>        -0.9470
     23 O4          6.2716    0.8126    1.3174 O.2       1 <0>        -0.9501
     24 N3          6.2708    0.4783    3.7659 N.pl3     1 <0>        -0.9978
     25 C17         4.9211    1.0580    3.8397 C.3       1 <0>         0.1243
     26 C18         4.1139    0.2804    4.8848 C.3       1 <0>         0.0380
     27 N4          4.8523    0.2619    6.1546 N.3       1 <0>        -0.5392
     28 C19         6.1314   -0.4472    6.0169 C.3       1 <0>         0.0382
     29 C20         7.0189    0.2948    5.0189 C.3       1 <0>         0.1242
     30 C21         4.0386   -0.3238    7.2283 C.3       1 <0>         0.0243
     31 N5          0.1890   -4.1166   -1.6070 N.pl3     1 <0>        -0.3265
     32 N6         -0.1769   -2.7759   -1.7917 N.2       1 <0>        -0.2363
     33 C22        -0.5677   -5.2881   -2.0556 C.3       1 <0>         0.1018
     34 H1          1.0039    1.9031    0.0027 H         1 <0>         0.0587
     35 H2         -0.5459    1.8868   -0.8726 H         1 <0>         0.0584
     36 H3         -0.5289    1.8773    0.9072 H         1 <0>         0.0590
     37 H4          0.5293   -0.3651    0.8851 H         1 <0>         0.0617
     38 H5         -1.0205   -0.3814    0.0098 H         1 <0>         0.0685
     39 H6          0.1910   -0.1364   -2.1398 H         1 <0>         0.0924
     40 H7          1.7408   -0.1202   -1.2645 H         1 <0>         0.0851
     41 H8          4.6710   -1.1293    1.0027 H         1 <0>         0.1448
     42 H9          8.2097   -2.4272    2.9946 H         1 <0>         0.1511
     43 H10         7.5970   -4.7736    2.6002 H         1 <0>         0.1511
     44 H11         7.3075   -6.4595    1.4002 H         1 <0>         0.0690
     45 H12         6.4252   -6.4802    2.9460 H         1 <0>         0.0679
     46 H13         6.4630   -8.7339    1.9125 H         1 <0>         0.0796
     47 H14         4.8027   -8.0982    1.9981 H         1 <0>         0.0699
     48 H15         5.6850   -8.0774    0.4524 H         1 <0>         0.0705
     49 H16         4.9880    2.1054    4.1338 H         1 <0>         0.0882
     50 H17         4.4346    0.9780    2.8676 H         1 <0>         0.0929
     51 H18         3.1485    0.7644    5.0325 H         1 <0>         0.0901
     52 H19         3.9598   -0.7416    4.5387 H         1 <0>         0.0392
     53 H20         6.6291   -0.4910    6.9857 H         1 <0>         0.0908
     54 H21         5.9492   -1.4591    5.6551 H         1 <0>         0.0394
     55 H22         7.9186   -0.2894    4.8260 H         1 <0>         0.0949
     56 H23         7.2913    1.2675    5.4285 H         1 <0>         0.0873
     57 H24         3.7712   -1.3470    6.9645 H         1 <0>         0.0259
     58 H25         4.6091   -0.3253    8.1570 H         1 <0>         0.0715
     59 H26         3.1316    0.2663    7.3599 H         1 <0>         0.0715
     60 H27        -1.2651   -5.5910   -1.2745 H         1 <0>         0.0826
     61 H28        -1.1218   -5.0381   -2.9604 H         1 <0>         0.0959
     62 H29         0.1207   -6.1067   -2.2656 H         1 <0>         0.1018
     63 H30         3.1857   -1.6357    0.1370 H         1 <0>         0.4171
@<TRIPOS>BOND
     1    1    2 1
     2    1   34 1
     3    1   35 1
     4    1   36 1
     5    2    3 1
     6    2   37 1
     7    2   38 1
     8    3    4 1
     9    3   39 1
    10    3   40 1
    11    4   32 2
    12    4    5 1
    13    5   11 1
    14    5    6 2
    15    6    7 1
    16    6   31 1
    17    7    8 2
    18    7    9 1
    19    9   10 2
    20   10   11 1
    21   10   12 1
    22   11   63 1
    23   12   17 ar
    24   12   13 ar
    25   13   14 ar
    26   13   41 1
    27   14   15 ar
    28   14   21 1
    29   15   16 ar
    30   15   42 1
    31   16   17 ar
    32   16   43 1
    33   17   18 1
    34   18   19 1
    35   19   20 1
    36   19   44 1
    37   19   45 1
    38   20   46 1
    39   20   47 1
    40   20   48 1
    41   21   22 2
    42   21   23 2
    43   21   24 1
    44   24   29 1
    45   24   25 1
    46   25   26 1
    47   25   49 1
    48   25   50 1
    49   26   27 1
    50   26   51 1
    51   26   52 1
    52   27   28 1
    53   27   30 1
    54   28   29 1
    55   28   53 1
    56   28   54 1
    57   29   55 1
    58   29   56 1
    59   30   57 1
    60   30   58 1
    61   30   59 1
    62   31   32 1
    63   31   33 1
    64   33   60 1
    65   33   61 1
    66   33   62 1
@<TRIPOS>MOLECULE
ZINC19796168
   62    65     0     0     0
SMALL
USER_CHARGES

@<TRIPOS>ATOM
      1 C1         -0.0187    1.5258    0.0104 C.3       1 <0>        -0.1485
      2 C2          0.0021   -0.0041    0.0020 C.3       1 <0>        -0.1148
      3 C3         -1.4333   -0.5336    0.0129 C.3       1 <0>        -0.0265
      4 C4         -1.4129   -2.0405    0.0046 C.2       1 <0>         0.0755
      5 C5         -1.4070   -2.8569   -1.1475 C.ar      1 <0>         0.0668
      6 C6         -1.3869   -4.1920   -0.7014 C.ar      1 <0>        -0.0515
      7 C7         -1.3777   -5.2165   -1.6565 C.ar      1 <0>         0.4648
      8 O1         -1.3588   -6.5164   -1.2751 O.3       1 <0>        -0.6909
      9 N1         -1.3884   -4.8893   -2.9402 N.ar      1 <0>        -0.5725
     10 C8         -1.4074   -3.6162   -3.3266 C.ar      1 <0>         0.3612
     11 N2         -1.4163   -2.6161   -2.4630 N.ar      1 <0>        -0.5554
     12 C9         -1.4186   -3.3091   -4.7764 C.ar      1 <0>        -0.0636
     13 C10        -1.4328   -1.9850   -5.2116 C.ar      1 <0>         0.0543
     14 C11        -1.4432   -1.7045   -6.5622 C.ar      1 <0>        -0.7317
     15 C12        -1.4396   -2.7334   -7.4883 C.ar      1 <0>         0.0205
     16 C13        -1.4256   -4.0494   -7.0685 C.ar      1 <0>        -0.2451
     17 C14        -1.4092   -4.3463   -5.7145 C.ar      1 <0>         0.2216
     18 O2         -1.3897   -5.6394   -5.3005 O.3       1 <0>        -0.2427
     19 C15        -1.3811   -6.6454   -6.3153 C.3       1 <0>         0.0442
     20 C16        -1.3591   -8.0288   -5.6620 C.3       1 <0>        -0.1464
     21 S1         -1.4617   -0.0302   -7.1108 S.o2      1 <0>         2.6962
     22 O3         -2.0201   -0.0370   -8.4174 O.2       1 <0>        -0.9629
     23 O4         -2.0135    0.7385   -6.0505 O.2       1 <0>        -0.9522
     24 N3          0.1150    0.4496   -7.2724 N.pl3     1 <0>        -1.0004
     25 C17         0.8390    1.0557   -6.1447 C.3       1 <0>         0.1268
     26 C18         2.1670    0.3130   -5.9632 C.3       1 <0>         0.0372
     27 N4          2.8976    0.3041   -7.2376 N.3       1 <0>        -0.5398
     28 C19         2.1569   -0.4314   -8.2713 C.3       1 <0>         0.0376
     29 C20         0.8304    0.2753   -8.5456 C.3       1 <0>         0.1276
     30 C21         4.2487   -0.2463   -7.0660 C.3       1 <0>         0.0248
     31 N5         -1.3812   -4.1504    0.6672 N.pl3     1 <0>        -0.3678
     32 N6         -1.3920   -2.8055    1.0596 N.2       1 <0>        -0.2631
     33 C22        -1.3618   -5.3088    1.5638 C.3       1 <0>         0.1224
     34 H1          1.0039    1.9031    0.0027 H         1 <0>         0.0507
     35 H2         -0.5459    1.8868   -0.8726 H         1 <0>         0.0575
     36 H3         -0.5289    1.8773    0.9072 H         1 <0>         0.0512
     37 H4          0.5123   -0.3556   -0.8948 H         1 <0>         0.0656
     38 H5          0.5293   -0.3651    0.8851 H         1 <0>         0.0578
     39 H6         -1.9435   -0.1821    0.9097 H         1 <0>         0.0708
     40 H7         -1.9605   -0.1726   -0.8702 H         1 <0>         0.0861
     41 H8         -1.4360   -1.1795   -4.4922 H         1 <0>         0.1566
     42 H9         -1.4482   -2.5062   -8.5441 H         1 <0>         0.1359
     43 H10        -1.4233   -4.8477   -7.7959 H         1 <0>         0.1361
     44 H11        -2.2755   -6.5484   -6.9307 H         1 <0>         0.0581
     45 H12        -0.4957   -6.5243   -6.9395 H         1 <0>         0.0570
     46 H13        -1.3526   -8.7961   -6.4360 H         1 <0>         0.0694
     47 H14        -0.4647   -8.1258   -5.0466 H         1 <0>         0.0690
     48 H15        -2.2445   -8.1499   -5.0378 H         1 <0>         0.0696
     49 H16         1.0335    2.1070   -6.3571 H         1 <0>         0.0814
     50 H17         0.2427    0.9670   -5.2366 H         1 <0>         0.0979
     51 H18         2.7652    0.8176   -5.2045 H         1 <0>         0.0879
     52 H19         1.9704   -0.7122   -5.6495 H         1 <0>         0.0449
     53 H20         2.7478   -0.4666   -9.1865 H         1 <0>         0.0858
     54 H21         1.9605   -1.4462   -7.9254 H         1 <0>         0.0417
     55 H22         0.2284   -0.3292   -9.2240 H         1 <0>         0.0922
     56 H23         1.0240    1.2501   -8.9932 H         1 <0>         0.0807
     57 H24         4.1801   -1.2690   -6.6954 H         1 <0>         0.0264
     58 H25         4.7675   -0.2413   -8.0246 H         1 <0>         0.0675
     59 H26         4.8011    0.3631   -6.3508 H         1 <0>         0.0692
     60 H27        -0.3294   -5.5825    1.7815 H         1 <0>         0.0592
     61 H28        -1.8748   -5.0582    2.4923 H         1 <0>         0.0722
     62 H29        -1.8667   -6.1476    1.0847 H         1 <0>         0.0961
@<TRIPOS>BOND
     1    1    2 1
     2    1   34 1
     3    1   35 1
     4    1   36 1
     5    2    3 1
     6    2   37 1
     7    2   38 1
     8    3    4 1
     9    3   39 1
    10    3   40 1
    11    4   32 2
    12    4    5 1
    13    5   11 ar
    14    5    6 ar
    15    6    7 ar
    16    6   31 1
    17    7    8 1
    18    7    9 ar
    19    9   10 ar
    20   10   11 ar
    21   10   12 1
    22   12   17 ar
    23   12   13 ar
    24   13   14 ar
    25   13   41 1
    26   14   15 ar
    27   14   21 1
    28   15   16 ar
    29   15   42 1
    30   16   17 ar
    31   16   43 1
    32   17   18 1
    33   18   19 1
    34   19   20 1
    35   19   44 1
    36   19   45 1
    37   20   46 1
    38   20   47 1
    39   20   48 1
    40   21   22 2
    41   21   23 2
    42   21   24 1
    43   24   29 1
    44   24   25 1
    45   25   26 1
    46   25   49 1
    47   25   50 1
    48   26   27 1
    49   26   51 1
    50   26   52 1
    51   27   28 1
    52   27   30 1
    53   28   29 1
    54   28   53 1
    55   28   54 1
    56   29   55 1
    57   29   56 1
    58   30   57 1
    59   30   58 1
    60   30   59 1
    61   31   32 1
    62   31   33 1
    63   33   60 1
    64   33   61 1
    65   33   62 1
@<TRIPOS>MOLECULE
ZINC19796168
   64    67     0     0     0
SMALL
USER_CHARGES

@<TRIPOS>ATOM
      1 C1         -0.0187    1.5258    0.0104 C.3       1 <0>        -0.1524
      2 C2          0.0021   -0.0041    0.0020 C.3       1 <0>        -0.1163
      3 C3         -1.4333   -0.5336    0.0129 C.3       1 <0>        -0.0382
      4 C4         -1.4129   -2.0405    0.0046 C.2       1 <0>         0.1125
      5 C5         -1.4070   -2.8548   -1.1446 C.2       1 <0>         0.0358
      6 C6         -1.3861   -4.1841   -0.7032 C.2       1 <0>        -0.0303
      7 C7         -1.3769   -5.2214   -1.6643 C.2       1 <0>         0.5721
      8 O1         -1.3591   -6.3907   -1.3206 O.2       1 <0>        -0.5177
      9 N1         -1.3887   -4.8848   -2.9731 N.am      1 <0>        -0.6346
     10 H1         -1.3827   -5.5793   -3.6502 H         1 <0>         0.4185
     11 C8         -1.4095   -3.5686   -3.3476 C.2       1 <0>         0.3827
     12 N2         -1.4171   -2.5966   -2.4679 N.2       1 <0>        -0.4195
     13 C9         -1.4219   -3.2333   -4.7854 C.ar      1 <0>        -0.1025
     14 C10        -1.4183   -4.2493   -5.7432 C.ar      1 <0>         0.0333
     15 C11        -1.4299   -3.9298   -7.0842 C.ar      1 <0>        -0.7276
     16 C12        -1.4448   -2.6046   -7.4863 C.ar      1 <0>         0.0370
     17 C13        -1.4485   -1.5903   -6.5488 C.ar      1 <0>        -0.2285
     18 C14        -1.4433   -1.8942   -5.1961 C.ar      1 <0>         0.2470
     19 O2         -1.4527   -0.8984   -4.2738 O.3       1 <0>        -0.2539
     20 C15        -1.4745    0.4426   -4.7671 C.3       1 <0>         0.0414
     21 C16        -1.4823    1.4191   -3.5893 C.3       1 <0>        -0.1545
     22 S1         -1.4253   -5.2129   -8.2917 S.o2      1 <0>         2.6914
     23 O3         -0.8874   -4.6500   -9.4805 O.2       1 <0>        -0.9316
     24 O4         -0.8594   -6.3568   -7.6667 O.2       1 <0>        -0.9334
     25 N3         -3.0059   -5.5847   -8.6172 N.pl3     1 <0>        -1.0127
     26 C17        -3.7155   -6.6148   -7.8430 C.3       1 <0>         0.0947
     27 C18        -5.0462   -6.0287   -7.3599 C.3       1 <0>        -0.0248
     28 N4         -5.7976   -5.5098   -8.5098 N.4       1 <0>        -0.3832
     29 C19        -5.0699   -4.3889   -9.1182 C.3       1 <0>        -0.0235
     30 C20        -3.7420   -4.8899   -9.6846 C.3       1 <0>         0.0949
     31 C21        -7.1182   -5.0483   -8.0616 C.3       1 <0>        -0.0476
     32 N5         -1.3799   -4.1501    0.6637 N.pl3     1 <0>        -0.3251
     33 N6         -1.3920   -2.8068    1.0614 N.2       1 <0>        -0.2289
     34 C22        -1.3598   -5.3128    1.5547 C.3       1 <0>         0.0963
     35 H2          1.0039    1.9031    0.0027 H         1 <0>         0.0582
     36 H3         -0.5459    1.8868   -0.8726 H         1 <0>         0.0570
     37 H4         -0.5289    1.8773    0.9072 H         1 <0>         0.0575
     38 H5          0.5123   -0.3556   -0.8948 H         1 <0>         0.0655
     39 H6          0.5293   -0.3651    0.8851 H         1 <0>         0.0644
     40 H7         -1.9435   -0.1821    0.9097 H         1 <0>         0.0854
     41 H8         -1.9605   -0.1726   -0.8702 H         1 <0>         0.0931
     42 H9         -1.4060   -5.2840   -5.4339 H         1 <0>         0.1444
     43 H10        -1.4531   -2.3629   -8.5389 H         1 <0>         0.1495
     44 H11        -1.4598   -0.5592   -6.8698 H         1 <0>         0.1518
     45 H12        -0.5902    0.6189   -5.3794 H         1 <0>         0.0706
     46 H13        -2.3699    0.5934   -5.3701 H         1 <0>         0.0677
     47 H14        -1.4990    2.4420   -3.9655 H         1 <0>         0.0830
     48 H15        -2.3667    1.2428   -2.9770 H         1 <0>         0.0703
     49 H16        -0.5869    1.2683   -2.9863 H         1 <0>         0.0743
     50 H17        -3.9053   -7.4822   -8.4752 H         1 <0>         0.1071
     51 H18        -3.1115   -6.9087   -6.9845 H         1 <0>         0.1349
     52 H19        -5.6284   -6.8070   -6.8666 H         1 <0>         0.1469
     53 H20        -4.8527   -5.2186   -6.6568 H         1 <0>         0.1345
     54 H21        -5.6695   -3.9589   -9.9204 H         1 <0>         0.1472
     55 H22        -4.8756   -3.6285   -8.3618 H         1 <0>         0.1345
     56 H23        -3.1556   -4.0439  -10.0432 H         1 <0>         0.1362
     57 H24        -3.9345   -5.5801  -10.5059 H         1 <0>         0.1058
     58 H25        -6.9949   -4.2582   -7.3209 H         1 <0>         0.1220
     59 H26        -7.6771   -4.6629   -8.9144 H         1 <0>         0.1268
     60 H27        -7.6626   -5.8814   -7.6170 H         1 <0>         0.1264
     61 H28        -0.3273   -5.5873    1.7707 H         1 <0>         0.0857
     62 H29        -1.8725   -5.0668    2.4846 H         1 <0>         0.0997
     63 H30        -1.8648   -6.1494    1.0718 H         1 <0>         0.1010
     64 H31        -5.9143   -6.2436   -9.1925 H         1 <0>         0.4277
@<TRIPOS>BOND
     1    1    2 1
     2    1   35 1
     3    1   36 1
     4    1   37 1
     5    2    3 1
     6    2   38 1
     7    2   39 1
     8    3    4 1
     9    3   40 1
    10    3   41 1
    11    4   33 2
    12    4    5 1
    13    5   12 1
    14    5    6 2
    15    6    7 1
    16    6   32 1
    17    7    8 2
    18    7    9 am
    19    9   10 1
    20    9   11 1
    21   11   12 2
    22   11   13 1
    23   13   18 ar
    24   13   14 ar
    25   14   15 ar
    26   14   42 1
    27   15   16 ar
    28   15   22 1
    29   16   17 ar
    30   16   43 1
    31   17   18 ar
    32   17   44 1
    33   18   19 1
    34   19   20 1
    35   20   21 1
    36   20   45 1
    37   20   46 1
    38   21   47 1
    39   21   48 1
    40   21   49 1
    41   22   23 2
    42   22   24 2
    43   22   25 1
    44   25   30 1
    45   25   26 1
    46   26   27 1
    47   26   50 1
    48   26   51 1
    49   27   28 1
    50   27   52 1
    51   27   53 1
    52   28   29 1
    53   28   31 1
    54   28   64 1
    55   29   30 1
    56   29   54 1
    57   29   55 1
    58   30   56 1
    59   30   57 1
    60   31   58 1
    61   31   59 1
    62   31   60 1
    63   32   33 1
    64   32   34 1
    65   34   61 1
    66   34   62 1
    67   34   63 1
@<TRIPOS>MOLECULE
ZINC00056555
   46    48     0     0     0
SMALL
USER_CHARGES

@<TRIPOS>ATOM
      1 C1         -0.0173    1.4248    0.0099 C.3       1 <0>         0.0258
      2 O1          0.0021   -0.0041    0.0020 O.3       1 <0>        -0.3063
      3 C2          0.6262   -0.6188    1.0422 C.ar      1 <0>         0.0999
      4 C3          1.2021    0.1367    2.0510 C.ar      1 <0>        -0.1710
      5 C4          1.8358   -0.4897    3.1079 C.ar      1 <0>        -0.1122
      6 C5          1.8971   -1.8699    3.1612 C.ar      1 <0>        -0.0760
      7 C6          1.3251   -2.6295    2.1578 C.ar      1 <0>        -0.1547
      8 C7          0.6830   -2.0080    1.0988 C.ar      1 <0>         0.1015
      9 O2          0.1145   -2.7540    0.1140 O.3       1 <0>        -0.3064
     10 C8          0.2115   -4.1743    0.2380 C.3       1 <0>         0.0255
     11 C9          2.5896   -2.5476    4.3154 C.3       1 <0>        -0.0305
     12 C10         1.5954   -2.8002    5.4194 C.ar      1 <0>         0.1803
     13 C11         1.3868   -1.8306    6.4126 C.ar      1 <0>        -0.0927
     14 C12         2.0813   -0.6102    6.4178 C.ar      1 <0>        -0.1656
     15 C13         1.8397    0.2976    7.4073 C.ar      1 <0>         0.1202
     16 C14         0.9067    0.0284    8.4207 C.ar      1 <0>         0.1418
     17 C15         0.2161   -1.1496    8.4419 C.ar      1 <0>        -0.1891
     18 C16         0.4428   -2.1015    7.4380 C.ar      1 <0>        -0.0102
     19 C17        -0.2384   -3.3323    7.4069 C.ar      1 <0>        -0.1601
     20 C18         0.0362   -4.2060    6.3992 C.ar      1 <0>         0.0826
     21 N1          0.9194   -3.9252    5.4505 N.ar      1 <0>        -0.4840
     22 O3          0.6880    0.9516    9.3935 O.3       1 <0>        -0.3019
     23 C19        -0.2734    0.6206   10.3977 C.3       1 <0>         0.0223
     24 O4          2.5122    1.4790    7.4120 O.3       1 <0>        -0.3019
     25 C20         3.4494    1.6962    6.3553 C.3       1 <0>         0.0208
     26 H1          1.0053    1.8021    0.0021 H         1 <0>         0.0553
     27 H2         -0.5445    1.7859   -0.8732 H         1 <0>         0.1013
     28 H3         -0.5275    1.7763    0.9067 H         1 <0>         0.0545
     29 H4          1.1562    1.2150    2.0113 H         1 <0>         0.1358
     30 H5          2.2842    0.1003    3.8935 H         1 <0>         0.1221
     31 H6          1.3747   -3.7075    2.2017 H         1 <0>         0.1401
     32 H7          1.2614   -4.4664    0.2576 H         1 <0>         0.0558
     33 H8         -0.2714   -4.4922    1.1620 H         1 <0>         0.0564
     34 H9         -0.2815   -4.6476   -0.6111 H         1 <0>         0.1010
     35 H10         3.0097   -3.4961    3.9808 H         1 <0>         0.0985
     36 H11         3.3894   -1.9067    4.6863 H         1 <0>         0.0913
     37 H12         2.8023   -0.3917    5.6438 H         1 <0>         0.1473
     38 H13        -0.4993   -1.3466    9.2266 H         1 <0>         0.1459
     39 H14        -0.9645   -3.5793    8.1673 H         1 <0>         0.1371
     40 H15        -0.4831   -5.1525    6.3692 H         1 <0>         0.1540
     41 H16        -0.3511    1.4413   11.1107 H         1 <0>         0.1057
     42 H17        -1.2436    0.4521    9.9304 H         1 <0>         0.0589
     43 H18         0.0414   -0.2840   10.9179 H         1 <0>         0.0591
     44 H19         4.2164    0.9223    6.3853 H         1 <0>         0.0590
     45 H20         2.9316    1.6577    5.3969 H         1 <0>         0.0571
     46 H21         3.9148    2.6741    6.4778 H         1 <0>         0.1062
@<TRIPOS>BOND
     1    1    2 1
     2    1   26 1
     3    1   27 1
     4    1   28 1
     5    2    3 1
     6    3    8 ar
     7    3    4 ar
     8    4    5 ar
     9    4   29 1
    10    5    6 ar
    11    5   30 1
    12    6    7 ar
    13    6   11 1
    14    7    8 ar
    15    7   31 1
    16    8    9 1
    17    9   10 1
    18   10   32 1
    19   10   33 1
    20   10   34 1
    21   11   12 1
    22   11   35 1
    23   11   36 1
    24   12   21 ar
    25   12   13 ar
    26   13   18 ar
    27   13   14 ar
    28   14   15 ar
    29   14   37 1
    30   15   16 ar
    31   15   24 1
    32   16   17 ar
    33   16   22 1
    34   17   18 ar
    35   17   38 1
    36   18   19 ar
    37   19   20 ar
    38   19   39 1
    39   20   21 ar
    40   20   40 1
    41   22   23 1
    42   23   41 1
    43   23   42 1
    44   23   43 1
    45   24   25 1
    46   25   44 1
    47   25   45 1
    48   25   46 1
@<TRIPOS>MOLECULE
ZINC14956507
   51    55     0     0     0
SMALL
USER_CHARGES
6,7-dimethoxy-4-[(3R)-3-quinoxalin-2-yloxypyrrolidin-1-yl]quinazoline
@<TRIPOS>ATOM
      1 C1         -6.2798   -7.7495    1.2059 C.3       1 <0>         0.0224
      2 O1         -7.5778   -7.7374    0.6083 O.3       1 <0>        -0.3009
      3 C2         -8.0146   -6.5522    0.1046 C.ar      1 <0>         0.1126
      4 C3         -7.2155   -5.4474    0.1877 C.ar      1 <0>        -0.1328
      5 C4         -7.6638   -4.2269   -0.3314 C.ar      1 <0>        -0.1267
      6 C5         -8.9414   -4.1439   -0.9384 C.ar      1 <0>         0.1770
      7 C6         -9.7440   -5.2887   -1.0122 C.ar      1 <0>        -0.1864
      8 C7         -9.2799   -6.4775   -0.4940 C.ar      1 <0>         0.1640
      9 O2        -10.0566   -7.5899   -0.5643 O.3       1 <0>        -0.2962
     10 C8        -11.3354   -7.4499   -1.1865 C.3       1 <0>         0.0199
     11 N1         -9.3471   -2.9615   -1.4276 N.ar      1 <0>        -0.5071
     12 C9         -8.5729   -1.9061   -1.3433 C.ar      1 <0>         0.3099
     13 N2         -7.3749   -1.9350   -0.7809 N.ar      1 <0>        -0.5589
     14 C10        -6.8755   -3.0531   -0.2710 C.ar      1 <0>         0.3796
     15 N3         -5.6234   -3.0699    0.3078 N.pl3     1 <0>        -0.4684
     16 C11        -5.5341   -2.0805    1.4120 C.3       1 <0>         0.0436
     17 C12        -4.0084   -1.8609    1.5688 C.3       1 <0>        -0.1357
     18 C13        -3.5006   -1.9083    0.1094 C.3       1 <0>         0.0829
     19 H1         -3.3953   -0.8993   -0.2891 H         1 <0>         0.1056
     20 C14        -4.5829   -2.6799   -0.6682 C.3       1 <0>         0.0461
     21 O3         -2.2523   -2.6005    0.0408 O.3       1 <0>        -0.2842
     22 C15        -1.1268   -1.8464    0.0920 C.ar      1 <0>         0.3017
     23 C16         0.1311   -2.4675    0.0288 C.ar      1 <0>         0.0861
     24 N4          1.2313   -1.7552    0.0763 N.ar      1 <0>        -0.3909
     25 C17         1.1575   -0.4230    0.1862 C.ar      1 <0>         0.0394
     26 C18         2.3205    0.3644    0.2387 C.ar      1 <0>        -0.0674
     27 C19         2.2156    1.7168    0.3502 C.ar      1 <0>        -0.1132
     28 C20         0.9689    2.3362    0.4133 C.ar      1 <0>        -0.0834
     29 C21        -0.1786    1.6057    0.3652 C.ar      1 <0>        -0.1001
     30 C22        -0.1099    0.2068    0.2503 C.ar      1 <0>         0.1263
     31 N5         -1.2221   -0.5367    0.2003 N.ar      1 <0>        -0.4953
     32 H2         -6.2582   -7.0502    2.0418 H         1 <0>         0.0599
     33 H3         -6.0550   -8.7534    1.5660 H         1 <0>         0.1054
     34 H4         -5.5363   -7.4540    0.4657 H         1 <0>         0.0605
     35 H5         -6.2422   -5.5153    0.6509 H         1 <0>         0.1597
     36 H6        -10.7201   -5.2400   -1.4718 H         1 <0>         0.1557
     37 H7        -11.9263   -6.7141   -0.6410 H         1 <0>         0.0619
     38 H8        -11.2040   -7.1189   -2.2167 H         1 <0>         0.0620
     39 H9        -11.8514   -8.4100   -1.1764 H         1 <0>         0.1077
     40 H10        -8.9305   -0.9705   -1.7473 H         1 <0>         0.1966
     41 H11        -6.0303   -1.1501    1.1359 H         1 <0>         0.0726
     42 H12        -5.9631   -2.4865    2.3281 H         1 <0>         0.0934
     43 H13        -3.5621   -2.6615    2.1587 H         1 <0>         0.0898
     44 H14        -3.8027   -0.8890    2.0174 H         1 <0>         0.0879
     45 H15        -5.0160   -2.0393   -1.4365 H         1 <0>         0.0783
     46 H16        -4.1485   -3.5680   -1.1271 H         1 <0>         0.1011
     47 H17         0.1931   -3.5421   -0.0595 H         1 <0>         0.1838
     48 H18         3.2935   -0.1018    0.1912 H         1 <0>         0.1409
     49 H19         3.1115    2.3187    0.3899 H         1 <0>         0.1371
     50 H20         0.9123    3.4111    0.5016 H         1 <0>         0.1371
     51 H21        -1.1380    2.0995    0.4107 H         1 <0>         0.1394
@<TRIPOS>BOND
     1    1    2 1
     2    1   32 1
     3    1   33 1
     4    1   34 1
     5    2    3 1
     6    3    8 ar
     7    3    4 ar
     8    4    5 ar
     9    4   35 1
    10    5   14 ar
    11    5    6 ar
    12    6    7 ar
    13    6   11 ar
    14    7    8 ar
    15    7   36 1
    16    8    9 1
    17    9   10 1
    18   10   37 1
    19   10   38 1
    20   10   39 1
    21   11   12 ar
    22   12   13 ar
    23   12   40 1
    24   13   14 ar
    25   14   15 1
    26   15   20 1
    27   15   16 1
    28   16   17 1
    29   16   41 1
    30   16   42 1
    31   17   18 1
    32   17   43 1
    33   17   44 1
    34   18   19 1
    35   18   20 1
    36   18   21 1
    37   20   45 1
    38   20   46 1
    39   21   22 1
    40   22   31 ar
    41   22   23 ar
    42   23   24 ar
    43   23   47 1
    44   24   25 ar
    45   25   30 ar
    46   25   26 ar
    47   26   27 ar
    48   26   48 1
    49   27   28 ar
    50   27   49 1
    51   28   29 ar
    52   28   50 1
    53   29   30 ar
    54   29   51 1
    55   30   31 ar
@<TRIPOS>MOLECULE
ZINC05794229
   41    43     0     0     0
SMALL
USER_CHARGES
3-methyl-2-(4-propylphenyl)-quinoline-4-carboxylic acid
@<TRIPOS>ATOM
      1 C1         -5.7883    5.7647    8.0995 C.3       1 <0>        -0.1526
      2 C2         -5.3003    5.4654    6.6806 C.3       1 <0>        -0.1196
      3 C3         -4.8139    4.0169    6.6035 C.3       1 <0>        -0.0795
      4 C4         -4.3333    3.7222    5.2059 C.ar      1 <0>        -0.0800
      5 C5         -3.0090    3.9421    4.8720 C.ar      1 <0>        -0.1219
      6 C6         -2.5633    3.6744    3.5937 C.ar      1 <0>        -0.0919
      7 C7         -3.4504    3.1811    2.6382 C.ar      1 <0>        -0.0378
      8 C8         -4.7848    2.9661    2.9791 C.ar      1 <0>        -0.0789
      9 C9         -5.2182    3.2332    4.2617 C.ar      1 <0>        -0.1241
     10 C10        -2.9777    2.8921    1.2627 C.ar      1 <0>         0.2060
     11 C11        -1.7567    2.2215    1.0932 C.ar      1 <0>        -0.1337
     12 C12        -1.3037    1.9448   -0.1892 C.ar      1 <0>        -0.0184
     13 C13        -2.1411    2.3835   -1.3062 C.ar      1 <0>        -0.0884
     14 C14        -1.7724    2.1443   -2.6345 C.ar      1 <0>        -0.0687
     15 C15        -2.5853    2.5645   -3.6453 C.ar      1 <0>        -0.1352
     16 C16        -3.7818    3.2239   -3.3718 C.ar      1 <0>        -0.1049
     17 C17        -4.1733    3.4674   -2.0915 C.ar      1 <0>        -0.1025
     18 C18        -3.3603    3.0486   -1.0216 C.ar      1 <0>         0.1274
     19 N1         -3.7181    3.2730    0.2436 N.ar      1 <0>        -0.4855
     20 C19        -0.0243    1.2410   -0.4176 C.2       1 <0>         0.5026
     21 O1         -0.0026    0.0288   -0.4903 O.co2     1 <0>        -0.6171
     22 C20        -0.9449    1.8051    2.2927 C.3       1 <0>        -0.1069
     23 H1         -6.6083    5.0921    8.3511 H         1 <0>         0.0532
     24 H2         -4.9693    5.6184    8.8038 H         1 <0>         0.0536
     25 H3         -6.1348    6.7966    8.1545 H         1 <0>         0.0532
     26 H4         -4.4803    6.1380    6.4291 H         1 <0>         0.0634
     27 H5         -6.1193    5.6117    5.9764 H         1 <0>         0.0630
     28 H6         -5.6339    3.3443    6.8551 H         1 <0>         0.0701
     29 H7         -3.9949    3.8706    7.3077 H         1 <0>         0.0709
     30 H8         -2.3226    4.3243    5.6131 H         1 <0>         0.1231
     31 H9         -1.5293    3.8472    3.3339 H         1 <0>         0.1307
     32 H10        -5.4775    2.5882    2.2416 H         1 <0>         0.1254
     33 H11        -6.2510    3.0634    4.5280 H         1 <0>         0.1209
     34 H12        -0.8473    1.6338   -2.8580 H         1 <0>         0.1312
     35 H13        -2.2980    2.3842   -4.6706 H         1 <0>         0.1239
     36 H14        -4.4088    3.5474   -4.1895 H         1 <0>         0.1241
     37 H15        -5.1041    3.9795   -1.8971 H         1 <0>         0.1296
     38 H16        -0.2072    2.5755    2.5173 H         1 <0>         0.0720
     39 H17        -1.6049    1.6731    3.1501 H         1 <0>         0.0688
     40 H18        -0.4354    0.8657    2.0783 H         1 <0>         0.0728
     41 O2          1.1170    1.9443   -0.5506 O.co2     1 <0>        -0.7383
@<TRIPOS>BOND
     1    1    2 1
     2    1   23 1
     3    1   24 1
     4    1   25 1
     5    2    3 1
     6    2   26 1
     7    2   27 1
     8    3    4 1
     9    3   28 1
    10    3   29 1
    11    4    9 ar
    12    4    5 ar
    13    5    6 ar
    14    5   30 1
    15    6    7 ar
    16    6   31 1
    17    7    8 ar
    18    7   10 1
    19    8    9 ar
    20    8   32 1
    21    9   33 1
    22   10   19 ar
    23   10   11 ar
    24   11   12 ar
    25   11   22 1
    26   12   13 ar
    27   12   20 1
    28   13   18 ar
    29   13   14 ar
    30   14   15 ar
    31   14   34 1
    32   15   16 ar
    33   15   35 1
    34   16   17 ar
    35   16   36 1
    36   17   18 ar
    37   17   37 1
    38   18   19 ar
    39   20   21 2
    40   20   41 1
    41   22   38 1
    42   22   39 1
    43   22   40 1
@<TRIPOS>MOLECULE
ZINC35859742
   50    54     0     0     0
SMALL
USER_CHARGES

@<TRIPOS>ATOM
      1 C1         -0.0178    1.4608    0.0101 C.3       1 <0>         0.0984
      2 N1          0.0021   -0.0041    0.0020 N.pl3     1 <0>        -0.3664
      3 C2          0.0077   -0.7858   -1.0958 C.2       1 <0>         0.0822
      4 C3          0.0278   -2.0853   -0.6832 C.2       1 <0>        -0.2042
      5 C4          0.0344   -2.0813    0.7350 C.2       1 <0>         0.1416
      6 N2          0.0245   -0.8283    1.1333 N.2       1 <0>        -0.2823
      7 C5          0.0552   -3.2768    1.6120 C.ar      1 <0>        -0.0563
      8 C6         -0.6178   -4.4360    1.2289 C.ar      1 <0>        -0.0478
      9 C7         -0.5967   -5.5461    2.0467 C.ar      1 <0>        -0.1475
     10 C8          0.0939   -5.5102    3.2505 C.ar      1 <0>         0.1442
     11 C9          0.7648   -4.3573    3.6351 C.ar      1 <0>        -0.2086
     12 C10         0.7526   -3.2458    2.8187 C.ar      1 <0>        -0.0464
     13 O1          0.1129   -6.6057    4.0542 O.3       1 <0>        -0.3099
     14 C11         0.8426   -6.4998    5.2783 C.3       1 <0>         0.1106
     15 C12         0.7518   -7.8018    6.0316 C.ar      1 <0>         0.1588
     16 C13         0.0305   -8.8571    5.4772 C.ar      1 <0>        -0.1546
     17 C14        -0.0626  -10.0444    6.1457 C.ar      1 <0>        -0.0549
     18 C15         0.5848  -10.1584    7.3904 C.ar      1 <0>        -0.1030
     19 C16         0.5338  -11.3479    8.1350 C.ar      1 <0>        -0.0959
     20 C17         1.1735  -11.4187    9.3346 C.ar      1 <0>        -0.1148
     21 C18         1.8791  -10.3257    9.8342 C.ar      1 <0>        -0.0989
     22 C19         1.9488   -9.1578    9.1394 C.ar      1 <0>        -0.0933
     23 C20         1.3016   -9.0458    7.8964 C.ar      1 <0>         0.1323
     24 N3          1.3579   -7.9132    7.1885 N.ar      1 <0>        -0.4702
     25 C21         0.0398   -3.2828   -1.5570 C.ar      1 <0>         0.0455
     26 C22         0.9701   -4.3078   -1.3581 C.ar      1 <0>        -0.1584
     27 C23         0.9462   -5.4043   -2.1941 C.ar      1 <0>         0.1028
     28 N4          0.0622   -5.4932   -3.1698 N.ar      1 <0>        -0.4893
     29 C24        -0.8324   -4.5486   -3.3914 C.ar      1 <0>         0.1017
     30 C25        -0.8824   -3.4210   -2.5990 C.ar      1 <0>        -0.1707
     31 H1          1.0048    1.8381    0.0023 H         1 <0>         0.0793
     32 H2         -0.5450    1.8219   -0.8730 H         1 <0>         0.0916
     33 H3         -0.5280    1.8123    0.9069 H         1 <0>         0.0933
     34 H4         -0.0019   -0.4438   -2.1202 H         1 <0>         0.1806
     35 H5         -1.1556   -4.4644    0.2927 H         1 <0>         0.1304
     36 H6         -1.1182   -6.4443    1.7506 H         1 <0>         0.1361
     37 H7          1.3006   -4.3322    4.5725 H         1 <0>         0.1341
     38 H8          1.2789   -2.3509    3.1160 H         1 <0>         0.1304
     39 H9          1.8874   -6.2782    5.0604 H         1 <0>         0.0909
     40 H10         0.4202   -5.6988    5.8849 H         1 <0>         0.0907
     41 H11        -0.4549   -8.7362    4.5200 H         1 <0>         0.1483
     42 H12        -0.6179  -10.8728    5.7310 H         1 <0>         0.1428
     43 H13        -0.0102  -12.2015    7.7583 H         1 <0>         0.1319
     44 H14         1.1334  -12.3338    9.9067 H         1 <0>         0.1296
     45 H15         2.3783  -10.4068   10.7885 H         1 <0>         0.1320
     46 H16         2.4993   -8.3200    9.5413 H         1 <0>         0.1367
     47 H17         1.6966   -4.2414   -0.5618 H         1 <0>         0.1328
     48 H18         1.6609   -6.2008   -2.0486 H         1 <0>         0.1553
     49 H19        -1.5376   -4.6623   -4.2014 H         1 <0>         0.1554
     50 H20        -1.6204   -2.6542   -2.7830 H         1 <0>         0.1331
@<TRIPOS>BOND
     1    1    2 1
     2    1   31 1
     3    1   32 1
     4    1   33 1
     5    2    6 1
     6    2    3 1
     7    3    4 2
     8    3   34 1
     9    4    5 1
    10    4   25 1
    11    5    6 2
    12    5    7 1
    13    7   12 ar
    14    7    8 ar
    15    8    9 ar
    16    8   35 1
    17    9   10 ar
    18    9   36 1
    19   10   11 ar
    20   10   13 1
    21   11   12 ar
    22   11   37 1
    23   12   38 1
    24   13   14 1
    25   14   15 1
    26   14   39 1
    27   14   40 1
    28   15   24 ar
    29   15   16 ar
    30   16   17 ar
    31   16   41 1
    32   17   18 ar
    33   17   42 1
    34   18   23 ar
    35   18   19 ar
    36   19   20 ar
    37   19   43 1
    38   20   21 ar
    39   20   44 1
    40   21   22 ar
    41   21   45 1
    42   22   23 ar
    43   22   46 1
    44   23   24 ar
    45   25   30 ar
    46   25   26 ar
    47   26   27 ar
    48   26   47 1
    49   27   28 ar
    50   27   48 1
    51   28   29 ar
    52   29   30 ar
    53   29   49 1
    54   30   50 1
@<TRIPOS>MOLECULE
ZINC00643046
   76    79     0     0     0
SMALL
USER_CHARGES

@<TRIPOS>ATOM
      1 C1          0.4883    2.4897    1.2990 C.3       1 <0>        -0.1142
      2 C2          1.1580    2.1388    2.6297 C.3       1 <0>        -0.1362
      3 C3          1.3103    0.6181    2.7347 C.3       1 <0>         0.1570
      4 N1          2.0305    0.1319    1.5500 N.pl3     1 <0>        -0.6468
      5 C4          1.5224    0.4890    0.2185 C.3       1 <0>         0.1574
      6 C5          1.3678    2.0112    0.1416 C.3       1 <0>        -0.1364
      7 C6          3.1637   -0.6453    1.6854 C.ar      1 <0>         0.5085
      8 C7          3.0733   -2.0580    1.7467 C.ar      1 <0>         0.0614
      9 C8          4.2673   -2.7976    1.8855 C.ar      1 <0>         0.0615
     10 C9          4.1770   -4.2103    1.9469 C.ar      1 <0>         0.5084
     11 N2          2.9771   -4.7656    1.8709 N.ar      1 <0>        -0.5394
     12 C10         1.8782   -4.0279    1.7403 C.ar      1 <0>         0.5543
     13 N3          1.9084   -2.7098    1.6788 N.ar      1 <0>        -0.5235
     14 N4          0.6525   -4.6689    1.6658 N.pl3     1 <0>        -0.5657
     15 C11        -0.5766   -3.8848    1.5217 C.3       1 <0>         0.1412
     16 C12        -0.8807   -3.6815    0.0361 C.3       1 <0>         0.0611
     17 O1         -1.1650   -4.9445   -0.5691 O.3       1 <0>        -0.5712
     18 C13         0.5852   -6.1309    1.7310 C.3       1 <0>         0.1388
     19 C14         0.4380   -6.5701    3.1892 C.3       1 <0>         0.0609
     20 O2         -0.8147   -6.1108    3.7009 O.3       1 <0>        -0.5703
     21 N5          5.3102   -4.9876    2.0819 N.pl3     1 <0>        -0.6466
     22 C15         5.8166   -5.3477    3.4132 C.3       1 <0>         0.1569
     23 C16         5.9722   -6.8700    3.4864 C.3       1 <0>        -0.1363
     24 C17         6.8536   -7.3449    2.3290 C.3       1 <0>        -0.1141
     25 C18         6.1855   -6.9910    0.9983 C.3       1 <0>        -0.1368
     26 C19         6.0290   -5.4752    0.8969 C.3       1 <0>         0.1575
     27 N6          5.4322   -2.1458    1.9543 N.ar      1 <0>        -0.5233
     28 C20         5.4623   -0.8277    1.8928 C.ar      1 <0>         0.5543
     29 N7          4.3640   -0.0904    1.7559 N.ar      1 <0>        -0.5392
     30 N8          6.6881   -0.1867    1.9678 N.pl3     1 <0>        -0.5657
     31 C21         7.9171   -0.9709    2.1123 C.3       1 <0>         0.1413
     32 C22         8.4692   -1.3136    0.7271 C.3       1 <0>         0.0611
     33 O3          8.8633   -0.1124    0.0609 O.3       1 <0>        -0.5711
     34 C23         6.7554    1.2753    1.9026 C.3       1 <0>         0.1387
     35 C24         6.6545    1.8540    3.3153 C.3       1 <0>         0.0609
     36 O4          7.7974    1.4565    4.0756 O.3       1 <0>        -0.5703
     37 H1         -0.4844    2.0011    1.2421 H         1 <0>         0.0624
     38 H2          0.3565    3.5696    1.2325 H         1 <0>         0.0610
     39 H3          2.1412    2.6070    2.6767 H         1 <0>         0.0658
     40 H4          0.5425    2.5006    3.4533 H         1 <0>         0.0687
     41 H5          1.8745    0.3686    3.6333 H         1 <0>         0.0616
     42 H6          0.3248    0.1544    2.7790 H         1 <0>         0.0608
     43 H7          2.2266    0.1543   -0.5432 H         1 <0>         0.0616
     44 H8          0.5542    0.0148    0.0576 H         1 <0>         0.0598
     45 H9          0.9016    2.2821   -0.8057 H         1 <0>         0.0686
     46 H10         2.3490    2.4805    0.2121 H         1 <0>         0.0663
     47 H11        -1.4038   -4.4160    1.9926 H         1 <0>         0.0919
     48 H12        -0.4472   -2.9149    2.0021 H         1 <0>         0.0972
     49 H13        -1.7438   -3.0246   -0.0716 H         1 <0>         0.0528
     50 H14        -0.0175   -3.2303   -0.4531 H         1 <0>         0.0456
     51 H15        -1.3673   -4.8916   -1.5132 H         1 <0>         0.3764
     52 H16        -0.2732   -6.4810    1.1577 H         1 <0>         0.0932
     53 H17         1.4983   -6.5556    1.3140 H         1 <0>         0.0953
     54 H18         0.4771   -7.6579    3.2467 H         1 <0>         0.0527
     55 H19         1.2495   -6.1456    3.7802 H         1 <0>         0.0445
     56 H20        -0.9758   -6.3537    4.6229 H         1 <0>         0.3766
     57 H21         6.7842   -4.8733    3.5767 H         1 <0>         0.0609
     58 H22         5.1111   -5.0155    4.1748 H         1 <0>         0.0615
     59 H23         6.4372   -7.1430    4.4336 H         1 <0>         0.0688
     60 H24         4.9913   -7.3398    3.4133 H         1 <0>         0.0658
     61 H25         7.8259   -6.8558    2.3885 H         1 <0>         0.0624
     62 H26         6.9861   -8.4249    2.3929 H         1 <0>         0.0611
     63 H27         6.8025   -7.3503    0.1746 H         1 <0>         0.0691
     64 H28         5.2027   -7.4597    0.9486 H         1 <0>         0.0661
     65 H29         5.4635   -5.2271   -0.0013 H         1 <0>         0.0615
     66 H30         7.0143   -5.0114    0.8506 H         1 <0>         0.0595
     67 H31         8.6559   -0.3900    2.6644 H         1 <0>         0.0919
     68 H32         7.6994   -1.8910    2.6545 H         1 <0>         0.0972
     69 H33         9.3325   -1.9706    0.8325 H         1 <0>         0.0527
     70 H34         7.6986   -1.8169    0.1432 H         1 <0>         0.0456
     71 H35         9.2237   -0.2542   -0.8252 H         1 <0>         0.3764
     72 H36         7.7021    1.5757    1.4536 H         1 <0>         0.0932
     73 H37         5.9306    1.6503    1.2966 H         1 <0>         0.0954
     74 H38         6.6152    2.9419    3.2604 H         1 <0>         0.0528
     75 H39         5.7504    1.4816    3.7968 H         1 <0>         0.0444
     76 H40         7.8004    1.7883    4.9839 H         1 <0>         0.3766
@<TRIPOS>BOND
     1    1    6 1
     2    1    2 1
     3    1   37 1
     4    1   38 1
     5    2    3 1
     6    2   39 1
     7    2   40 1
     8    3    4 1
     9    3   41 1
    10    3   42 1
    11    4    5 1
    12    4    7 1
    13    5    6 1
    14    5   43 1
    15    5   44 1
    16    6   45 1
    17    6   46 1
    18    7   29 ar
    19    7    8 ar
    20    8   13 ar
    21    8    9 ar
    22    9   10 ar
    23    9   27 ar
    24   10   11 ar
    25   10   21 1
    26   11   12 ar
    27   12   13 ar
    28   12   14 1
    29   14   15 1
    30   14   18 1
    31   15   16 1
    32   15   47 1
    33   15   48 1
    34   16   17 1
    35   16   49 1
    36   16   50 1
    37   17   51 1
    38   18   19 1
    39   18   52 1
    40   18   53 1
    41   19   20 1
    42   19   54 1
    43   19   55 1
    44   20   56 1
    45   21   26 1
    46   21   22 1
    47   22   23 1
    48   22   57 1
    49   22   58 1
    50   23   24 1
    51   23   59 1
    52   23   60 1
    53   24   25 1
    54   24   61 1
    55   24   62 1
    56   25   26 1
    57   25   63 1
    58   25   64 1
    59   26   65 1
    60   26   66 1
    61   27   28 ar
    62   28   29 ar
    63   28   30 1
    64   30   31 1
    65   30   34 1
    66   31   32 1
    67   31   67 1
    68   31   68 1
    69   32   33 1
    70   32   69 1
    71   32   70 1
    72   33   71 1
    73   34   35 1
    74   34   72 1
    75   34   73 1
    76   35   36 1
    77   35   74 1
    78   35   75 1
    79   36   76 1
