@<TRIPOS>MOLECULE
ZINC01490579
   71    75     0     0     0
SMALL
USER_CHARGES

@<TRIPOS>ATOM
      1 C1        -11.7309    8.6432   -0.7715 C.3       1 <0>         0.0256
      2 O1        -11.7915    7.8281    0.4006 O.3       1 <0>        -0.3010
      3 C2        -10.6149    7.5598    1.0276 C.ar      1 <0>         0.1529
      4 C3         -9.4319    8.0702    0.5247 C.ar      1 <0>        -0.1816
      5 C4         -8.2240    7.7940    1.1688 C.ar      1 <0>         0.0441
      6 C5         -8.2133    6.9984    2.3165 C.ar      1 <0>        -0.2128
      7 C6         -9.3995    6.4948    2.8184 C.ar      1 <0>         0.1497
      8 C7        -10.6021    6.7716    2.1746 C.ar      1 <0>         0.0376
      9 O2        -11.7666    6.2706    2.6669 O.3       1 <0>        -0.3124
     10 C8        -12.1772    4.9898    2.1843 C.3       1 <0>         0.0354
     11 O3         -9.3904    5.7243    3.9390 O.3       1 <0>        -0.3011
     12 C9         -8.1210    5.4805    4.5484 C.3       1 <0>         0.0240
     13 C10        -6.9585    8.3376    0.6332 C.2       1 <0>        -0.0231
     14 C11        -5.9204    7.4354    0.1138 C.ar      1 <0>        -0.0413
     15 C12        -6.0907    6.0513    0.1090 C.ar      1 <0>        -0.0610
     16 C13        -5.0943    5.2437   -0.3920 C.ar      1 <0>        -0.1714
     17 C14        -3.9140    5.7965   -0.8838 C.ar      1 <0>         0.1364
     18 C15        -3.7270    7.1684   -0.8872 C.ar      1 <0>        -0.0844
     19 C16        -4.7268    7.9997   -0.3892 C.ar      1 <0>        -0.0870
     20 C17        -4.5731    9.4617   -0.3718 C.2       1 <0>         0.5503
     21 O4         -3.5543    9.9726   -0.7999 O.2       1 <0>        -0.4960
     22 N1         -5.5606   10.2347    0.1177 N.am      1 <0>        -0.4586
     23 C18        -6.7343    9.7019    0.6137 C.2       1 <0>         0.1106
     24 C19        -7.7671   10.6041    1.1312 C.2       1 <0>         0.4960
     25 O5         -8.7548   10.1491    1.6758 O.2       1 <0>        -0.4612
     26 O6         -7.6221   11.9394    1.0034 O.3       1 <0>        -0.3257
     27 C20        -8.6093   12.7619    1.6285 C.3       1 <0>         0.0316
     28 C21        -5.3919   11.6249    0.1246 C.ar      1 <0>         0.0587
     29 C22        -4.8210   12.2498    1.2261 C.ar      1 <0>        -0.0388
     30 C23        -4.6504   13.6194    1.2309 C.ar      1 <0>        -0.1891
     31 C24        -5.0593   14.3742    0.1387 C.ar      1 <0>         0.2332
     32 C25        -5.6351   13.7498   -0.9607 C.ar      1 <0>        -0.1886
     33 C26        -5.8008   12.3796   -0.9676 C.ar      1 <0>        -0.0308
     34 N2         -4.8918   15.7622    0.1460 N.pl3     1 <0>        -0.8753
     35 O7         -2.9406    4.9830   -1.3693 O.3       1 <0>        -0.3059
     36 C27        -3.1945    3.5771   -1.3379 C.3       1 <0>         0.1121
     37 C28        -2.0124    2.8402   -1.9128 C.ar      1 <0>         0.1187
     38 C29        -0.9168    3.5523   -2.3635 C.ar      1 <0>        -0.1492
     39 C30         0.1657    2.8647   -2.8902 C.ar      1 <0>        -0.0734
     40 C31         0.1054    1.4804   -2.9440 C.ar      1 <0>        -0.1702
     41 C32        -1.0235    0.8367   -2.4743 C.ar      1 <0>         0.1049
     42 N3         -2.0372    1.5238   -1.9846 N.ar      1 <0>        -0.4800
     43 H1        -11.3065    9.6144   -0.5171 H         1 <0>         0.0562
     44 H2        -11.1043    8.1577   -1.5197 H         1 <0>         0.0557
     45 H3        -12.7356    8.7793   -1.1718 H         1 <0>         0.1031
     46 H4         -9.4423    8.6815   -0.3656 H         1 <0>         0.1285
     47 H5         -7.2799    6.7800    2.8140 H         1 <0>         0.1363
     48 H6        -12.3114    5.0347    1.1035 H         1 <0>         0.0440
     49 H7        -11.4146    4.2491    2.4252 H         1 <0>         0.0442
     50 H8        -13.1188    4.7085    2.6559 H         1 <0>         0.0921
     51 H9         -8.2556    4.8544    5.4304 H         1 <0>         0.1033
     52 H10        -7.4687    4.9724    3.8382 H         1 <0>         0.0569
     53 H11        -7.6705    6.4289    4.8413 H         1 <0>         0.0575
     54 H12        -7.0014    5.6152    0.4924 H         1 <0>         0.1428
     55 H13        -5.2274    4.1719   -0.4001 H         1 <0>         0.1426
     56 H14        -2.8115    7.5911   -1.2740 H         1 <0>         0.1526
     57 H15        -8.6759   12.5092    2.6867 H         1 <0>         0.0620
     58 H16        -8.3293   13.8100    1.5222 H         1 <0>         0.1018
     59 H17        -9.5759   12.5941    1.1534 H         1 <0>         0.0611
     60 H18        -4.5072   11.6635    2.0770 H         1 <0>         0.1208
     61 H19        -4.2024   14.1047    2.0855 H         1 <0>         0.1260
     62 H20        -5.9533   14.3365   -1.8097 H         1 <0>         0.1260
     63 H21        -6.2488   11.8942   -1.8221 H         1 <0>         0.1209
     64 H22        -5.1776   16.2892   -0.6165 H         1 <0>         0.4000
     65 H23        -4.4898   16.1982    0.9136 H         1 <0>         0.4000
     66 H24        -4.0833    3.3551   -1.9285 H         1 <0>         0.0900
     67 H25        -3.3544    3.2598   -0.3074 H         1 <0>         0.0900
     68 H26        -0.9043    4.6307   -2.3065 H         1 <0>         0.1453
     69 H27         1.0351    3.3947   -3.2503 H         1 <0>         0.1384
     70 H28         0.9303    0.9124   -3.3483 H         1 <0>         0.1385
     71 H29        -1.0783   -0.2412   -2.5127 H         1 <0>         0.1614
@<TRIPOS>BOND
     1    1    2 1
     2    1   43 1
     3    1   44 1
     4    1   45 1
     5    2    3 1
     6    3    8 ar
     7    3    4 ar
     8    4    5 ar
     9    4   46 1
    10    5    6 ar
    11    5   13 1
    12    6    7 ar
    13    6   47 1
    14    7    8 ar
    15    7   11 1
    16    8    9 1
    17    9   10 1
    18   10   48 1
    19   10   49 1
    20   10   50 1
    21   11   12 1
    22   12   51 1
    23   12   52 1
    24   12   53 1
    25   13   23 2
    26   13   14 1
    27   14   19 ar
    28   14   15 ar
    29   15   16 ar
    30   15   54 1
    31   16   17 ar
    32   16   55 1
    33   17   18 ar
    34   17   35 1
    35   18   19 ar
    36   18   56 1
    37   19   20 1
    38   20   21 2
    39   20   22 am
    40   22   23 1
    41   22   28 1
    42   23   24 1
    43   24   25 2
    44   24   26 1
    45   26   27 1
    46   27   57 1
    47   27   58 1
    48   27   59 1
    49   28   33 ar
    50   28   29 ar
    51   29   30 ar
    52   29   60 1
    53   30   31 ar
    54   30   61 1
    55   31   32 ar
    56   31   34 1
    57   32   33 ar
    58   32   62 1
    59   33   63 1
    60   34   64 1
    61   34   65 1
    62   35   36 1
    63   36   37 1
    64   36   66 1
    65   36   67 1
    66   37   42 ar
    67   37   38 ar
    68   38   39 ar
    69   38   68 1
    70   39   40 ar
    71   39   69 1
    72   40   41 ar
    73   40   70 1
    74   41   42 ar
    75   41   71 1
