@<TRIPOS>MOLECULE
ZINC00004982
   41    43     0     0     0
SMALL
USER_CHARGES

@<TRIPOS>ATOM
      1 C1          0.5684    1.3813    0.2968 C.3       1 <0>         0.0255
      2 O1          0.3927   -0.0330    0.1934 O.3       1 <0>        -0.3057
      3 C2          0.7874   -0.6210   -0.9677 C.ar      1 <0>         0.0999
      4 C3          1.3368    0.1460   -1.9826 C.ar      1 <0>        -0.1683
      5 C4          1.7379   -0.4533   -3.1620 C.ar      1 <0>        -0.1118
      6 C5          1.5917   -1.8175   -3.3324 C.ar      1 <0>        -0.0754
      7 C6          1.0438   -2.5883   -2.3241 C.ar      1 <0>        -0.1639
      8 C7          0.6455   -1.9949   -1.1370 C.ar      1 <0>         0.1082
      9 O2          0.1119   -2.7526   -0.1417 O.3       1 <0>        -0.2957
     10 C8          0.1029   -4.1681   -0.3377 C.3       1 <0>         0.0783
     11 C9         -1.1687   -4.5874   -1.1040 C.3       1 <0>        -0.1488
     12 C10        -1.5683   -5.9405   -0.4650 C.3       1 <0>        -0.1241
     13 C11        -1.2445   -5.7198    1.0335 C.3       1 <0>        -0.1241
     14 C12         0.0547   -4.8881    1.0213 C.3       1 <0>        -0.1219
     15 C13         2.0301   -2.4655   -4.6204 C.3       1 <0>        -0.0563
     16 H1          1.8368   -3.5381   -4.6006 H         1 <0>         0.1000
     17 C14         1.3426   -1.8017   -5.8359 C.3       1 <0>        -0.1504
     18 C15         2.4091   -1.7972   -6.9087 C.2       1 <0>         0.5187
     19 O3          2.2042   -1.6224   -8.0913 O.2       1 <0>        -0.5316
     20 N1          3.6171   -2.0147   -6.3606 N.am      1 <0>        -0.7338
     21 C16         3.5210   -2.1776   -4.9046 C.3       1 <0>         0.1066
     22 H2          1.6254    1.6250    0.1896 H         1 <0>         0.0553
     23 H3         -0.0002    1.8766   -0.4903 H         1 <0>         0.0555
     24 H4          0.2140    1.7213    1.2699 H         1 <0>         0.1015
     25 H5          1.4515    1.2119   -1.8523 H         1 <0>         0.1366
     26 H6          2.1660    0.1456   -3.9522 H         1 <0>         0.1272
     27 H7          0.9304   -3.6537   -2.4598 H         1 <0>         0.1375
     28 H8          0.9909   -4.4738   -0.8910 H         1 <0>         0.0759
     29 H9         -1.9594   -3.8506   -0.9629 H         1 <0>         0.0806
     30 H10        -0.9503   -4.7158   -2.1641 H         1 <0>         0.0710
     31 H11        -2.6315   -6.1352   -0.6059 H         1 <0>         0.0722
     32 H12        -0.9681   -6.7532   -0.8743 H         1 <0>         0.0701
     33 H13        -2.0475   -5.1659    1.5198 H         1 <0>         0.0703
     34 H14        -1.0814   -6.6747    1.5332 H         1 <0>         0.0710
     35 H15         0.9189   -5.5439    1.1272 H         1 <0>         0.0774
     36 H16         0.0382   -4.1579    1.8303 H         1 <0>         0.0823
     37 H17         0.4823   -2.3897   -6.1557 H         1 <0>         0.1062
     38 H18         1.0407   -0.7827   -5.5939 H         1 <0>         0.1096
     39 H19         4.4459   -2.0590   -6.8626 H         1 <0>         0.4120
     40 H20         3.8309   -1.2616   -4.4015 H         1 <0>         0.0783
     41 H21         4.1362   -3.0155   -4.5767 H         1 <0>         0.0842
@<TRIPOS>BOND
     1    1    2 1
     2    1   22 1
     3    1   23 1
     4    1   24 1
     5    2    3 1
     6    3    8 ar
     7    3    4 ar
     8    4    5 ar
     9    4   25 1
    10    5    6 ar
    11    5   26 1
    12    6    7 ar
    13    6   15 1
    14    7    8 ar
    15    7   27 1
    16    8    9 1
    17    9   10 1
    18   10   14 1
    19   10   11 1
    20   10   28 1
    21   11   12 1
    22   11   29 1
    23   11   30 1
    24   12   13 1
    25   12   31 1
    26   12   32 1
    27   13   14 1
    28   13   33 1
    29   13   34 1
    30   14   35 1
    31   14   36 1
    32   15   16 1
    33   15   21 1
    34   15   17 1
    35   17   18 1
    36   17   37 1
    37   17   38 1
    38   18   19 2
    39   18   20 am
    40   20   21 1
    41   20   39 1
    42   21   40 1
    43   21   41 1
@<TRIPOS>MOLECULE
ZINC02000919
   41    43     0     0     0
SMALL
USER_CHARGES

@<TRIPOS>ATOM
      1 C1          0.5684    1.3813    0.2968 C.3       1 <0>         0.0255
      2 O1          0.3927   -0.0330    0.1934 O.3       1 <0>        -0.3057
      3 C2          0.7874   -0.6210   -0.9677 C.ar      1 <0>         0.0999
      4 C3          1.3368    0.1460   -1.9826 C.ar      1 <0>        -0.1683
      5 C4          1.7379   -0.4533   -3.1620 C.ar      1 <0>        -0.1118
      6 C5          1.5917   -1.8175   -3.3324 C.ar      1 <0>        -0.0754
      7 C6          1.0438   -2.5883   -2.3241 C.ar      1 <0>        -0.1640
      8 C7          0.6455   -1.9949   -1.1370 C.ar      1 <0>         0.1082
      9 O2          0.1119   -2.7526   -0.1417 O.3       1 <0>        -0.2956
     10 C8          0.1029   -4.1681   -0.3377 C.3       1 <0>         0.0781
     11 C9         -1.1687   -4.5874   -1.1040 C.3       1 <0>        -0.1484
     12 C10        -1.5683   -5.9405   -0.4650 C.3       1 <0>        -0.1242
     13 C11        -1.2445   -5.7198    1.0335 C.3       1 <0>        -0.1240
     14 C12         0.0547   -4.8881    1.0213 C.3       1 <0>        -0.1221
     15 C13         2.0301   -2.4655   -4.6204 C.3       1 <0>        -0.0563
     16 H1          1.8596   -3.5417   -4.5910 H         1 <0>         0.1000
     17 C14         3.5130   -2.1483   -4.9227 C.3       1 <0>        -0.1506
     18 C15         3.5576   -1.9806   -6.4255 C.2       1 <0>         0.5187
     19 O3          4.5674   -2.0006   -7.0970 O.2       1 <0>        -0.5316
     20 N1          2.3152   -1.8068   -6.9084 N.am      1 <0>        -0.7338
     21 C16         1.3168   -1.8256   -5.8320 C.3       1 <0>         0.1067
     22 H2          1.6254    1.6250    0.1896 H         1 <0>         0.0555
     23 H3         -0.0002    1.8766   -0.4903 H         1 <0>         0.0553
     24 H4          0.2140    1.7213    1.2699 H         1 <0>         0.1015
     25 H5          1.4515    1.2119   -1.8523 H         1 <0>         0.1366
     26 H6          2.1660    0.1456   -3.9522 H         1 <0>         0.1272
     27 H7          0.9304   -3.6537   -2.4598 H         1 <0>         0.1374
     28 H8          0.9909   -4.4738   -0.8910 H         1 <0>         0.0760
     29 H9         -1.9594   -3.8506   -0.9629 H         1 <0>         0.0805
     30 H10        -0.9503   -4.7158   -2.1641 H         1 <0>         0.0708
     31 H11        -2.6315   -6.1352   -0.6059 H         1 <0>         0.0721
     32 H12        -0.9681   -6.7532   -0.8743 H         1 <0>         0.0702
     33 H13        -2.0475   -5.1659    1.5198 H         1 <0>         0.0703
     34 H14        -1.0814   -6.6747    1.5332 H         1 <0>         0.0710
     35 H15         0.9189   -5.5439    1.1272 H         1 <0>         0.0776
     36 H16         0.0382   -4.1579    1.8303 H         1 <0>         0.0823
     37 H17         3.8145   -1.2257   -4.4268 H         1 <0>         0.1096
     38 H18         4.1511   -2.9756   -4.6120 H         1 <0>         0.1061
     39 H19         2.1051   -1.6852   -7.8475 H         1 <0>         0.4120
     40 H20         0.4568   -2.4279   -6.1248 H         1 <0>         0.0843
     41 H21         1.0026   -0.8100   -5.5915 H         1 <0>         0.0783
@<TRIPOS>BOND
     1    1    2 1
     2    1   22 1
     3    1   23 1
     4    1   24 1
     5    2    3 1
     6    3    8 ar
     7    3    4 ar
     8    4    5 ar
     9    4   25 1
    10    5    6 ar
    11    5   26 1
    12    6    7 ar
    13    6   15 1
    14    7    8 ar
    15    7   27 1
    16    8    9 1
    17    9   10 1
    18   10   14 1
    19   10   11 1
    20   10   28 1
    21   11   12 1
    22   11   29 1
    23   11   30 1
    24   12   13 1
    25   12   31 1
    26   12   32 1
    27   13   14 1
    28   13   33 1
    29   13   34 1
    30   14   35 1
    31   14   36 1
    32   15   16 1
    33   15   21 1
    34   15   17 1
    35   17   18 1
    36   17   37 1
    37   17   38 1
    38   18   19 2
    39   18   20 am
    40   20   21 1
    41   20   39 1
    42   21   40 1
    43   21   41 1
