@<TRIPOS>MOLECULE
ZINC00170907
   40    43     0     0     0
SMALL
USER_CHARGES
3-(3-aminophenyl)-1-benzyl-7H-purine-2,6-dione
@<TRIPOS>ATOM
      1 C1          3.9323    8.7014   -3.6711 C.ar      1 <0>        -0.1083
      2 C2          3.1047    9.6353   -3.0762 C.ar      1 <0>        -0.1276
      3 C3          2.5997    9.4045   -1.8103 C.ar      1 <0>        -0.0929
      4 C4          2.9221    8.2397   -1.1393 C.ar      1 <0>        -0.1219
      5 C5          3.7538    7.3082   -1.7320 C.ar      1 <0>        -0.0905
      6 C6          4.2547    7.5366   -3.0001 C.ar      1 <0>        -0.1264
      7 C7          2.3718    7.9882    0.2410 C.3       1 <0>         0.1571
      8 N1          1.0919    7.2834    0.1354 N.am      1 <0>        -0.5435
      9 C8         -0.0524    7.9932    0.0508 C.2       1 <0>         0.5961
     10 O1         -0.0242    9.2108    0.0610 O.2       1 <0>        -0.5089
     11 C9         -1.2828    7.3084   -0.0502 C.2       1 <0>        -0.1496
     12 C10        -1.2848    5.9193   -0.0657 C.2       1 <0>         0.3230
     13 N2         -2.5576    5.5264   -0.1619 N.2       1 <0>        -0.4915
     14 C11        -3.3417    6.5727   -0.2158 C.2       1 <0>         0.2748
     15 N3         -2.6032    7.6978   -0.1504 N.pl3     1 <0>        -0.5207
     16 H1         -2.9466    8.6368   -0.1706 H         1 <0>         0.4453
     17 N4         -0.0757    5.2474    0.0300 N.am      1 <0>        -0.4669
     18 C12         1.0754    5.9394    0.1249 C.2       1 <0>         0.7113
     19 O2          2.1266    5.3332    0.2034 O.2       1 <0>        -0.5155
     20 C13        -0.0512    3.8472    0.0223 C.ar      1 <0>         0.1807
     21 C14         0.0564    3.1602   -1.1806 C.ar      1 <0>        -0.1498
     22 C15         0.0854    1.7791   -1.1890 C.ar      1 <0>        -0.0607
     23 C16        -0.0030    1.0760   -0.0028 C.ar      1 <0>        -0.1818
     24 C17        -0.1108    1.7570    1.2035 C.ar      1 <0>         0.2256
     25 C18        -0.1349    3.1448    1.2155 C.ar      1 <0>        -0.1712
     26 N5         -0.1953    1.0459    2.4027 N.pl3     1 <0>        -0.8754
     27 H2          4.3271    8.8819   -4.6599 H         1 <0>         0.1229
     28 H3          2.8531   10.5455   -3.6003 H         1 <0>         0.1234
     29 H4          1.9534   10.1343   -1.3454 H         1 <0>         0.1286
     30 H5          4.0093    6.4002   -1.2060 H         1 <0>         0.1308
     31 H6          4.9015    6.8071   -3.4647 H         1 <0>         0.1243
     32 H7          2.2217    8.9397    0.7511 H         1 <0>         0.1111
     33 H8          3.0763    7.3794    0.8076 H         1 <0>         0.1120
     34 H9         -4.4179    6.5394   -0.2999 H         1 <0>         0.2346
     35 H10         0.1219    3.7067   -2.1098 H         1 <0>         0.1210
     36 H11         0.1733    1.2477   -2.1251 H         1 <0>         0.1313
     37 H12         0.0162   -0.0037   -0.0130 H         1 <0>         0.1268
     38 H13        -0.2183    3.6765    2.1518 H         1 <0>         0.1218
     39 H14        -0.1787    0.0760    2.3937 H         1 <0>         0.4012
     40 H15        -0.2705    1.5218    3.2446 H         1 <0>         0.3991
@<TRIPOS>BOND
     1    1    6 ar
     2    1    2 ar
     3    1   27 1
     4    2    3 ar
     5    2   28 1
     6    3    4 ar
     7    3   29 1
     8    4    5 ar
     9    4    7 1
    10    5    6 ar
    11    5   30 1
    12    6   31 1
    13    7    8 1
    14    7   32 1
    15    7   33 1
    16    8   18 am
    17    8    9 am
    18    9   10 2
    19    9   11 1
    20   11   15 1
    21   11   12 2
    22   12   13 1
    23   12   17 1
    24   13   14 2
    25   14   15 1
    26   14   34 1
    27   15   16 1
    28   17   18 am
    29   17   20 1
    30   18   19 2
    31   20   25 ar
    32   20   21 ar
    33   21   22 ar
    34   21   35 1
    35   22   23 ar
    36   22   36 1
    37   23   24 ar
    38   23   37 1
    39   24   25 ar
    40   24   26 1
    41   25   38 1
    42   26   39 1
    43   26   40 1
@<TRIPOS>MOLECULE
ZINC03651379
   54    57     0     0     0
SMALL
USER_CHARGES
(4S)-1-[(4-bromophenyl)methyl]-4-[3-(cyclopentoxy)-4-methoxy-phenyl]pyrrolidin-2-one
@<TRIPOS>ATOM
      1 C1          3.7572    7.1769   -3.7685 C.3       1 <0>         0.0256
      2 O1          3.6732    7.3342   -2.3506 O.3       1 <0>        -0.3057
      3 C2          2.8504    6.4821   -1.6826 C.ar      1 <0>         0.1001
      4 C3          2.1394    5.5163   -2.3767 C.ar      1 <0>        -0.1683
      5 C4          1.3071    4.6478   -1.6955 C.ar      1 <0>        -0.1115
      6 C5          1.1738    4.7468   -0.3230 C.ar      1 <0>        -0.0747
      7 C6          1.8803    5.7081    0.3756 C.ar      1 <0>        -0.1636
      8 C7          2.7203    6.5783   -0.3005 C.ar      1 <0>         0.1084
      9 O2          3.4164    7.5242    0.3853 O.3       1 <0>        -0.2956
     10 C8          3.3297    7.4870    1.8111 C.3       1 <0>         0.0784
     11 C9          2.1028    8.2920    2.2871 C.3       1 <0>        -0.1482
     12 C10         2.5803    8.9763    3.5920 C.3       1 <0>        -0.1242
     13 C11         4.0466    9.3524    3.2638 C.3       1 <0>        -0.1239
     14 C12         4.5656    8.1613    2.4321 C.3       1 <0>        -0.1221
     15 C13         0.2611    3.8009    0.4140 C.3       1 <0>        -0.0535
     16 H1          0.2399    4.0326    1.4788 H         1 <0>         0.0989
     17 C14         0.6784    2.3311    0.1757 C.3       1 <0>        -0.1480
     18 C15        -0.6332    1.5816    0.0948 C.2       1 <0>         0.5197
     19 O3         -0.7531    0.3787    0.1934 O.2       1 <0>        -0.5251
     20 N1         -1.6457    2.4421   -0.1081 N.am      1 <0>        -0.6157
     21 C16        -1.1621    3.8255   -0.1864 C.3       1 <0>         0.1084
     22 C17        -3.0518    2.0498   -0.2315 C.3       1 <0>         0.1638
     23 C18        -3.6965    2.0560    1.1306 C.ar      1 <0>        -0.0970
     24 C19        -3.6901    0.9096    1.9033 C.ar      1 <0>        -0.0903
     25 C20        -4.2771    0.9162    3.1546 C.ar      1 <0>        -0.0918
     26 C21        -4.8801    2.0669    3.6295 C.ar      1 <0>        -0.0853
     27 C22        -4.8908    3.2122    2.8539 C.ar      1 <0>        -0.0936
     28 C23        -4.2990    3.2063    1.6048 C.ar      1 <0>        -0.0994
     29 Br1        -5.6901    2.0743    5.3382 Br        1 <0>        -0.0485
     30 H2          4.1200    6.1760   -4.0022 H         1 <0>         0.0554
     31 H3          2.7700    7.3176   -4.2087 H         1 <0>         0.0553
     32 H4          4.4456    7.9173   -4.1760 H         1 <0>         0.1014
     33 H5          2.2385    5.4395   -3.4494 H         1 <0>         0.1364
     34 H6          0.7566    3.8929   -2.2372 H         1 <0>         0.1271
     35 H7          1.7773    5.7809    1.4482 H         1 <0>         0.1370
     36 H8          3.2558    6.4549    2.1537 H         1 <0>         0.0758
     37 H9          1.8252    9.0394    1.5439 H         1 <0>         0.0805
     38 H10         1.2647    7.6254    2.4906 H         1 <0>         0.0706
     39 H11         2.5382    8.2812    4.4305 H         1 <0>         0.0702
     40 H12         1.9896    9.8688    3.7986 H         1 <0>         0.0721
     41 H13         4.6271    9.4597    4.1801 H         1 <0>         0.0710
     42 H14         4.0829   10.2711    2.6783 H         1 <0>         0.0703
     43 H15         5.0910    7.4566    3.0767 H         1 <0>         0.0775
     44 H16         5.2316    8.5168    1.6459 H         1 <0>         0.0823
     45 H17         1.2765    1.9644    1.0099 H         1 <0>         0.1054
     46 H18         1.2305    2.2360   -0.7593 H         1 <0>         0.1098
     47 H19        -1.8053    4.4862    0.3948 H         1 <0>         0.0820
     48 H20        -1.1272    4.1507   -1.2262 H         1 <0>         0.0798
     49 H21        -3.5699    2.7546   -0.8818 H         1 <0>         0.0925
     50 H22        -3.1136    1.0487   -0.6582 H         1 <0>         0.0958
     51 H23        -3.2229    0.0100    1.5307 H         1 <0>         0.1358
     52 H24        -4.2687    0.0216    3.7598 H         1 <0>         0.1340
     53 H25        -5.3618    4.1108    3.2241 H         1 <0>         0.1339
     54 H26        -4.3070    4.1005    0.9993 H         1 <0>         0.1310
@<TRIPOS>BOND
     1    1    2 1
     2    1   30 1
     3    1   31 1
     4    1   32 1
     5    2    3 1
     6    3    8 ar
     7    3    4 ar
     8    4    5 ar
     9    4   33 1
    10    5    6 ar
    11    5   34 1
    12    6    7 ar
    13    6   15 1
    14    7    8 ar
    15    7   35 1
    16    8    9 1
    17    9   10 1
    18   10   14 1
    19   10   11 1
    20   10   36 1
    21   11   12 1
    22   11   37 1
    23   11   38 1
    24   12   13 1
    25   12   39 1
    26   12   40 1
    27   13   14 1
    28   13   41 1
    29   13   42 1
    30   14   43 1
    31   14   44 1
    32   15   16 1
    33   15   21 1
    34   15   17 1
    35   17   18 1
    36   17   45 1
    37   17   46 1
    38   18   19 2
    39   18   20 am
    40   20   21 1
    41   20   22 1
    42   21   47 1
    43   21   48 1
    44   22   23 1
    45   22   49 1
    46   22   50 1
    47   23   28 ar
    48   23   24 ar
    49   24   25 ar
    50   24   51 1
    51   25   26 ar
    52   25   52 1
    53   26   27 ar
    54   26   29 1
    55   27   28 ar
    56   27   53 1
    57   28   54 1
@<TRIPOS>MOLECULE
ZINC20438518
   59    64     0     0     0
SMALL
USER_CHARGES
dimethyl-morpholino-N-(3-pyridylmethyl)BLAHamine
@<TRIPOS>ATOM
      1 C1         -2.5921    9.1026   -2.4979 C.3       1 <0>        -0.1388
      2 C2         -2.5717    7.5842   -2.3106 C.3       1 <0>         0.1076
      3 C3         -2.6390    6.8956   -3.6757 C.3       1 <0>        -0.1060
      4 C4         -2.3335    5.4300   -3.5199 C.ar      1 <0>         0.0541
      5 C5         -1.7355    4.9328   -2.4044 C.ar      1 <0>        -0.1612
      6 C6         -1.4595    3.5644   -2.3133 C.ar      1 <0>         0.3569
      7 N1         -1.7908    2.7456   -3.2995 N.ar      1 <0>        -0.4807
      8 C7         -2.3794    3.1931   -4.3889 C.ar      1 <0>         0.1433
      9 C8         -2.6873    4.5518   -4.5733 C.ar      1 <0>        -0.1495
     10 C9         -3.3446    4.8973   -5.8471 C.ar      1 <0>         0.2290
     11 C10        -3.5851    3.8296   -6.7209 C.ar      1 <0>        -0.2946
     12 S1         -2.9549    2.4070   -5.8739 S.3       1 <0>         0.1295
     13 C11        -4.1991    4.0371   -7.9476 C.ar      1 <0>         0.5021
     14 N2         -4.5542    5.2797   -8.2745 N.ar      1 <0>        -0.5617
     15 C12        -4.3199    6.2754   -7.4397 C.ar      1 <0>         0.3489
     16 N3         -3.7436    6.1164   -6.2746 N.ar      1 <0>        -0.5378
     17 N4         -4.4367    2.9791   -8.8118 N.pl3     1 <0>        -0.7102
     18 C13        -5.0859    3.2195  -10.1029 C.3       1 <0>         0.1781
     19 C14        -5.2262    1.9155  -10.8451 C.ar      1 <0>        -0.1678
     20 C15        -4.2244    1.4835  -11.7011 C.ar      1 <0>        -0.0536
     21 C16        -4.3944    0.2754  -12.3593 C.ar      1 <0>        -0.1736
     22 C17        -5.5532   -0.4486  -12.1496 C.ar      1 <0>         0.1098
     23 N5         -6.4873   -0.0043  -11.3320 N.ar      1 <0>        -0.4846
     24 C18        -6.3574    1.1380  -10.6858 C.ar      1 <0>         0.1212
     25 N6         -0.8389    3.0606   -1.1783 N.pl3     1 <0>        -0.4776
     26 C19         0.0944    1.9788   -1.5244 C.3       1 <0>         0.0184
     27 C20         0.7990    1.4942   -0.2545 C.3       1 <0>         0.0616
     28 O1         -0.1812    1.0787    0.7004 O.3       1 <0>        -0.3800
     29 C21        -1.1071    2.1077    1.0600 C.3       1 <0>         0.0635
     30 C22        -1.8309    2.5986   -0.1966 C.3       1 <0>         0.0195
     31 C23        -1.3474    5.8273   -1.2551 C.3       1 <0>         0.1162
     32 O2         -1.3531    7.1938   -1.6671 O.3       1 <0>        -0.3641
     33 C24        -3.7661    7.1536   -1.4569 C.3       1 <0>        -0.1818
     34 H1         -3.5292    9.3985   -2.9922 H         1 <0>         0.0753
     35 H2         -1.7374    9.4068   -3.1200 H         1 <0>         0.0671
     36 H3         -2.5244    9.5941   -1.5161 H         1 <0>         0.0679
     37 H4         -3.6480    7.0151   -4.0973 H         1 <0>         0.1116
     38 H5         -1.9022    7.3518   -4.3532 H         1 <0>         0.1004
     39 H6         -4.6190    7.2710   -7.7323 H         1 <0>         0.2022
     40 H7         -4.1377    1.9593   -8.5279 H         1 <0>         0.4351
     41 H8         -6.0819    3.6559   -9.9369 H         1 <0>         0.0840
     42 H9         -4.4750    3.9154  -10.6966 H         1 <0>         0.0823
     43 H10        -3.3311    2.0723  -11.8484 H         1 <0>         0.1368
     44 H11        -3.6331   -0.0936  -13.0305 H         1 <0>         0.1394
     45 H12        -5.6952   -1.3888  -12.6618 H         1 <0>         0.1594
     46 H13        -7.1440    1.4694  -10.0241 H         1 <0>         0.1568
     47 H14        -0.4622    1.1455   -1.9780 H         1 <0>         0.0701
     48 H15         0.8410    2.3536   -2.2400 H         1 <0>         0.0899
     49 H16         1.4560    0.6469   -0.5003 H         1 <0>         0.1061
     50 H17         1.3996    2.3137    0.1670 H         1 <0>         0.0639
     51 H18        -1.8409    1.7072    1.7749 H         1 <0>         0.1070
     52 H19        -0.5636    2.9447    1.5226 H         1 <0>         0.0663
     53 H20        -2.5019    3.4298    0.0656 H         1 <0>         0.0920
     54 H21        -2.4186    1.7753   -0.6288 H         1 <0>         0.0605
     55 H22        -2.0646    5.6977   -0.4312 H         1 <0>         0.0700
     56 H23        -0.3381    5.5612   -0.9079 H         1 <0>         0.1201
     57 H24        -3.7477    6.0617   -1.3247 H         1 <0>         0.0579
     58 H25        -4.7001    7.4465   -1.9588 H         1 <0>         0.0714
     59 H26        -3.7093    7.6430   -0.4734 H         1 <0>         0.0704
@<TRIPOS>BOND
     1    1    2 1
     2    1   34 1
     3    1   35 1
     4    1   36 1
     5    2   32 1
     6    2    3 1
     7    2   33 1
     8    3    4 1
     9    3   37 1
    10    3   38 1
    11    4    9 ar
    12    4    5 ar
    13    5    6 ar
    14    5   31 1
    15    6    7 ar
    16    6   25 1
    17    7    8 ar
    18    8   12 1
    19    8    9 ar
    20    9   10 1
    21   10   16 ar
    22   10   11 ar
    23   11   12 1
    24   11   13 ar
    25   13   14 ar
    26   13   17 1
    27   14   15 ar
    28   15   16 ar
    29   15   39 1
    30   17   18 1
    31   17   40 1
    32   18   19 1
    33   18   41 1
    34   18   42 1
    35   19   24 ar
    36   19   20 ar
    37   20   21 ar
    38   20   43 1
    39   21   22 ar
    40   21   44 1
    41   22   23 ar
    42   22   45 1
    43   23   24 ar
    44   24   46 1
    45   25   30 1
    46   25   26 1
    47   26   27 1
    48   26   47 1
    49   26   48 1
    50   27   28 1
    51   27   49 1
    52   27   50 1
    53   28   29 1
    54   29   30 1
    55   29   51 1
    56   29   52 1
    57   30   53 1
    58   30   54 1
    59   31   32 1
    60   31   55 1
    61   31   56 1
    62   33   57 1
    63   33   58 1
    64   33   59 1
@<TRIPOS>MOLECULE
ZINC19939212
   66    71     0     0     0
SMALL
USER_CHARGES
dimethyl-morpholino-N-(2-morpholinoethyl)BLAHamine
@<TRIPOS>ATOM
      1 C1         -2.5870    9.1031   -2.4967 C.3       1 <0>        -0.1389
      2 C2         -2.5683    7.5847   -2.3093 C.3       1 <0>         0.1076
      3 C3         -2.6390    6.8962   -3.6742 C.3       1 <0>        -0.1060
      4 C4         -2.3340    5.4304   -3.5199 C.ar      1 <0>         0.0540
      5 C5         -1.7357    4.9328   -2.4047 C.ar      1 <0>        -0.1612
      6 C6         -1.4595    3.5644   -2.3133 C.ar      1 <0>         0.3566
      7 N1         -1.7909    2.7459   -3.2995 N.ar      1 <0>        -0.4807
      8 C7         -2.3794    3.1939   -4.3888 C.ar      1 <0>         0.1432
      9 C8         -2.6883    4.5525   -4.5736 C.ar      1 <0>        -0.1487
     10 C9         -3.3463    4.8963   -5.8475 C.ar      1 <0>         0.2289
     11 C10        -3.5856    3.8279   -6.7210 C.ar      1 <0>        -0.2954
     12 S1         -2.9539    2.4062   -5.8733 S.3       1 <0>         0.1282
     13 C11        -4.1991    4.0331   -7.9483 C.ar      1 <0>         0.5038
     14 N2         -4.5560    5.2748   -8.2764 N.ar      1 <0>        -0.5601
     15 C12        -4.3235    6.2712   -7.4420 C.ar      1 <0>         0.3487
     16 N3         -3.7474    6.1142   -6.2765 N.ar      1 <0>        -0.5381
     17 N4         -4.4352    2.9738   -8.8111 N.pl3     1 <0>        -0.7132
     18 C13        -5.0844    3.2119  -10.1027 C.3       1 <0>         0.1335
     19 C14        -5.2251    1.8869  -10.8547 C.3       1 <0>         0.0412
     20 N5         -5.8761    2.1256  -12.1498 N.3       1 <0>        -0.5311
     21 C15        -7.2668    2.5658  -11.9672 C.3       1 <0>         0.0106
     22 C16        -7.8872    2.8598  -13.3356 C.3       1 <0>         0.0611
     23 O1         -7.7921    1.6931  -14.1571 O.3       1 <0>        -0.3843
     24 C17        -6.4513    1.2370  -14.3564 C.3       1 <0>         0.0611
     25 C18        -5.8164    0.9265  -12.9984 C.3       1 <0>         0.0174
     26 N6         -0.8389    3.0606   -1.1783 N.pl3     1 <0>        -0.4775
     27 C19         0.0944    1.9788   -1.5244 C.3       1 <0>         0.0185
     28 C20         0.7989    1.4941   -0.2545 C.3       1 <0>         0.0616
     29 O2         -0.1813    1.0787    0.7004 O.3       1 <0>        -0.3800
     30 C21        -1.1071    2.1077    1.0600 C.3       1 <0>         0.0635
     31 C22        -1.8309    2.5986   -0.1966 C.3       1 <0>         0.0195
     32 C23        -1.3454    5.8265   -1.2554 C.3       1 <0>         0.1161
     33 O3         -1.3492    7.1930   -1.6676 O.3       1 <0>        -0.3639
     34 C24        -3.7618    7.1558   -1.4535 C.3       1 <0>        -0.1817
     35 H1         -3.5244    9.4002   -2.9896 H         1 <0>         0.0752
     36 H2         -1.7329    9.4061   -3.1201 H         1 <0>         0.0672
     37 H3         -2.5172    9.5946   -1.5151 H         1 <0>         0.0679
     38 H4         -3.6488    7.0162   -4.0935 H         1 <0>         0.1113
     39 H5         -1.9035    7.3520   -4.3534 H         1 <0>         0.1006
     40 H6         -4.6244    7.2662   -7.7352 H         1 <0>         0.2020
     41 H7         -4.1351    1.9547   -8.5259 H         1 <0>         0.4336
     42 H8         -6.0809    3.6473   -9.9374 H         1 <0>         0.0714
     43 H9         -4.4742    3.9078  -10.6971 H         1 <0>         0.0816
     44 H10        -4.2285    1.4515  -11.0200 H         1 <0>         0.0853
     45 H11        -5.8353    1.1909  -10.2603 H         1 <0>         0.0438
     46 H12        -7.8398    1.7720  -11.4656 H         1 <0>         0.0454
     47 H13        -7.2852    3.4767  -11.3508 H         1 <0>         0.0918
     48 H14        -8.9444    3.1351  -13.2073 H         1 <0>         0.1013
     49 H15        -7.3471    3.6912  -13.8121 H         1 <0>         0.0628
     50 H16        -6.4615    0.3275  -14.9751 H         1 <0>         0.1016
     51 H17        -5.8695    2.0198  -14.8649 H         1 <0>         0.0625
     52 H18        -4.7667    0.6303  -13.1413 H         1 <0>         0.0895
     53 H19        -6.3660    0.1063  -12.5134 H         1 <0>         0.0457
     54 H20        -0.4622    1.1455   -1.9781 H         1 <0>         0.0700
     55 H21         0.8411    2.3536   -2.2400 H         1 <0>         0.0901
     56 H22         1.4558    0.6467   -0.5003 H         1 <0>         0.1061
     57 H23         1.3996    2.3135    0.1671 H         1 <0>         0.0640
     58 H24        -1.8409    1.7072    1.7749 H         1 <0>         0.1070
     59 H25        -0.5636    2.9447    1.5226 H         1 <0>         0.0663
     60 H26        -2.5019    3.4298    0.0656 H         1 <0>         0.0919
     61 H27        -2.4186    1.7753   -0.6288 H         1 <0>         0.0604
     62 H28        -2.0623    5.6979   -0.4311 H         1 <0>         0.0700
     63 H29        -0.3364    5.5586   -0.9089 H         1 <0>         0.1202
     64 H30        -3.7446    6.0639   -1.3213 H         1 <0>         0.0579
     65 H31        -4.6962    7.4499   -1.9538 H         1 <0>         0.0714
     66 H32        -3.7026    7.6452   -0.4702 H         1 <0>         0.0704
@<TRIPOS>BOND
     1    1    2 1
     2    1   35 1
     3    1   36 1
     4    1   37 1
     5    2   33 1
     6    2    3 1
     7    2   34 1
     8    3    4 1
     9    3   38 1
    10    3   39 1
    11    4    9 ar
    12    4    5 ar
    13    5    6 ar
    14    5   32 1
    15    6    7 ar
    16    6   26 1
    17    7    8 ar
    18    8   12 1
    19    8    9 ar
    20    9   10 1
    21   10   16 ar
    22   10   11 ar
    23   11   12 1
    24   11   13 ar
    25   13   14 ar
    26   13   17 1
    27   14   15 ar
    28   15   16 ar
    29   15   40 1
    30   17   18 1
    31   17   41 1
    32   18   19 1
    33   18   42 1
    34   18   43 1
    35   19   20 1
    36   19   44 1
    37   19   45 1
    38   20   25 1
    39   20   21 1
    40   21   22 1
    41   21   46 1
    42   21   47 1
    43   22   23 1
    44   22   48 1
    45   22   49 1
    46   23   24 1
    47   24   25 1
    48   24   50 1
    49   24   51 1
    50   25   52 1
    51   25   53 1
    52   26   31 1
    53   26   27 1
    54   27   28 1
    55   27   54 1
    56   27   55 1
    57   28   29 1
    58   28   56 1
    59   28   57 1
    60   29   30 1
    61   30   31 1
    62   30   58 1
    63   30   59 1
    64   31   60 1
    65   31   61 1
    66   32   33 1
    67   32   62 1
    68   32   63 1
    69   34   64 1
    70   34   65 1
    71   34   66 1
@<TRIPOS>MOLECULE
ZINC19939212
   67    72     0     0     0
SMALL
USER_CHARGES
dimethyl-morpholino-N-(2-morpholinoethyl)BLAHamine
@<TRIPOS>ATOM
      1 C1         -2.5870    9.1031   -2.4967 C.3       1 <0>        -0.1400
      2 C2         -2.5683    7.5847   -2.3093 C.3       1 <0>         0.1073
      3 C3         -2.6390    6.8962   -3.6742 C.3       1 <0>        -0.1068
      4 C4         -2.3340    5.4304   -3.5199 C.ar      1 <0>         0.0572
      5 C5         -1.7357    4.9328   -2.4047 C.ar      1 <0>        -0.1566
      6 C6         -1.4595    3.5644   -2.3133 C.ar      1 <0>         0.3660
      7 N1         -1.7909    2.7459   -3.2995 N.ar      1 <0>        -0.4811
      8 C7         -2.3794    3.1939   -4.3888 C.ar      1 <0>         0.1491
      9 C8         -2.6883    4.5525   -4.5736 C.ar      1 <0>        -0.1575
     10 C9         -3.3463    4.8963   -5.8475 C.ar      1 <0>         0.2379
     11 C10        -3.5856    3.8279   -6.7210 C.ar      1 <0>        -0.2917
     12 S1         -2.9539    2.4062   -5.8733 S.3       1 <0>         0.1278
     13 C11        -4.1991    4.0331   -7.9483 C.ar      1 <0>         0.4978
     14 N2         -4.5560    5.2748   -8.2764 N.ar      1 <0>        -0.5645
     15 C12        -4.3235    6.2712   -7.4420 C.ar      1 <0>         0.3484
     16 N3         -3.7474    6.1142   -6.2765 N.ar      1 <0>        -0.5235
     17 N4         -4.4352    2.9738   -8.8111 N.pl3     1 <0>        -0.7226
     18 C13        -5.0844    3.2119  -10.1027 C.3       1 <0>         0.1121
     19 C14        -5.2251    1.8869  -10.8547 C.3       1 <0>        -0.0215
     20 N5         -5.8761    2.1256  -12.1498 N.4       1 <0>        -0.3961
     21 C15        -7.2668    2.5658  -11.9672 C.3       1 <0>        -0.0475
     22 C16        -7.8872    2.8598  -13.3356 C.3       1 <0>         0.0348
     23 O1         -7.7921    1.6931  -14.1571 O.3       1 <0>        -0.3566
     24 C17        -6.4513    1.2370  -14.3564 C.3       1 <0>         0.0337
     25 C18        -5.8164    0.9265  -12.9984 C.3       1 <0>        -0.0394
     26 N6         -0.8389    3.0606   -1.1783 N.pl3     1 <0>        -0.4785
     27 C19         0.0944    1.9788   -1.5244 C.3       1 <0>         0.0187
     28 C20         0.7989    1.4941   -0.2545 C.3       1 <0>         0.0605
     29 O2         -0.1813    1.0787    0.7004 O.3       1 <0>        -0.3785
     30 C21        -1.1071    2.1077    1.0600 C.3       1 <0>         0.0623
     31 C22        -1.8309    2.5986   -0.1966 C.3       1 <0>         0.0201
     32 C23        -1.3454    5.8265   -1.2554 C.3       1 <0>         0.1130
     33 O3         -1.3492    7.1930   -1.6676 O.3       1 <0>        -0.3614
     34 C24        -3.7618    7.1558   -1.4535 C.3       1 <0>        -0.1826
     35 H1         -3.5244    9.4002   -2.9896 H         1 <0>         0.0752
     36 H2         -1.7329    9.4061   -3.1201 H         1 <0>         0.0677
     37 H3         -2.5172    9.5946   -1.5151 H         1 <0>         0.0705
     38 H4         -3.6488    7.0162   -4.0935 H         1 <0>         0.1103
     39 H5         -1.9035    7.3520   -4.3534 H         1 <0>         0.1017
     40 H6         -4.6244    7.2662   -7.7352 H         1 <0>         0.2059
     41 H7         -4.1351    1.9547   -8.5259 H         1 <0>         0.4421
     42 H8         -6.0809    3.6473   -9.9374 H         1 <0>         0.0886
     43 H9         -4.4742    3.9078  -10.6971 H         1 <0>         0.0901
     44 H10        -4.2285    1.4515  -11.0200 H         1 <0>         0.1412
     45 H11        -5.8353    1.1909  -10.2603 H         1 <0>         0.1364
     46 H12        -7.8398    1.7720  -11.4656 H         1 <0>         0.1385
     47 H13        -7.2852    3.4767  -11.3508 H         1 <0>         0.1455
     48 H14        -8.9444    3.1351  -13.2073 H         1 <0>         0.1439
     49 H15        -7.3471    3.6912  -13.8121 H         1 <0>         0.0839
     50 H16        -6.4615    0.3275  -14.9751 H         1 <0>         0.1441
     51 H17        -5.8695    2.0198  -14.8649 H         1 <0>         0.0835
     52 H18        -4.7667    0.6303  -13.1413 H         1 <0>         0.1449
     53 H19        -6.3660    0.1063  -12.5134 H         1 <0>         0.1382
     54 H20        -0.4622    1.1455   -1.9781 H         1 <0>         0.0699
     55 H21         0.8411    2.3536   -2.2400 H         1 <0>         0.0904
     56 H22         1.4558    0.6467   -0.5003 H         1 <0>         0.1076
     57 H23         1.3996    2.3135    0.1671 H         1 <0>         0.0656
     58 H24        -1.8409    1.7072    1.7749 H         1 <0>         0.1090
     59 H25        -0.5636    2.9447    1.5226 H         1 <0>         0.0681
     60 H26        -2.5019    3.4298    0.0656 H         1 <0>         0.0929
     61 H27        -2.4186    1.7753   -0.6288 H         1 <0>         0.0610
     62 H28        -2.0623    5.6979   -0.4311 H         1 <0>         0.0735
     63 H29        -0.3364    5.5586   -0.9089 H         1 <0>         0.1232
     64 H30        -3.7446    6.0639   -1.3213 H         1 <0>         0.0571
     65 H31        -4.6962    7.4499   -1.9538 H         1 <0>         0.0714
     66 H32        -3.7026    7.6452   -0.4702 H         1 <0>         0.0732
     67 H33        -5.3267    2.9317  -12.6581 H         1 <0>         0.4444
@<TRIPOS>BOND
     1    1    2 1
     2    1   35 1
     3    1   36 1
     4    1   37 1
     5    2   33 1
     6    2    3 1
     7    2   34 1
     8    3    4 1
     9    3   38 1
    10    3   39 1
    11    4    9 ar
    12    4    5 ar
    13    5    6 ar
    14    5   32 1
    15    6    7 ar
    16    6   26 1
    17    7    8 ar
    18    8   12 1
    19    8    9 ar
    20    9   10 1
    21   10   16 ar
    22   10   11 ar
    23   11   12 1
    24   11   13 ar
    25   13   14 ar
    26   13   17 1
    27   14   15 ar
    28   15   16 ar
    29   15   40 1
    30   17   18 1
    31   17   41 1
    32   18   19 1
    33   18   42 1
    34   18   43 1
    35   19   20 1
    36   19   44 1
    37   19   45 1
    38   20   25 1
    39   20   21 1
    40   20   67 1
    41   21   22 1
    42   21   46 1
    43   21   47 1
    44   22   23 1
    45   22   48 1
    46   22   49 1
    47   23   24 1
    48   24   25 1
    49   24   50 1
    50   24   51 1
    51   25   52 1
    52   25   53 1
    53   26   31 1
    54   26   27 1
    55   27   28 1
    56   27   54 1
    57   27   55 1
    58   28   29 1
    59   28   56 1
    60   28   57 1
    61   29   30 1
    62   30   31 1
    63   30   58 1
    64   30   59 1
    65   31   60 1
    66   31   61 1
    67   32   33 1
    68   32   62 1
    69   32   63 1
    70   34   64 1
    71   34   65 1
    72   34   66 1
@<TRIPOS>MOLECULE
ZINC00001553
   30    32     0     0     0
SMALL
USER_CHARGES

@<TRIPOS>ATOM
      1 C1         -0.0169    1.3933    0.0097 C.ar      1 <0>        -0.0474
      2 C2          1.1680    2.0964    0.0022 C.ar      1 <0>        -0.1378
      3 C3          2.3808    1.4179   -0.0135 C.ar      1 <0>         0.1550
      4 C4          2.4041    0.0283   -0.0212 C.ar      1 <0>        -0.1353
      5 C5          1.2238   -0.6824   -0.0138 C.ar      1 <0>        -0.0626
      6 C6          0.0021   -0.0041    0.0020 C.ar      1 <0>        -0.0581
      7 C7         -1.2632   -0.7605    0.0105 C.2       1 <0>         0.1537
      8 N1         -2.3857   -0.1200    0.0198 N.2       1 <0>        -0.2436
      9 N2         -3.6108   -0.7914    0.0545 N.am      1 <0>        -0.5600
     10 C8         -3.6669   -2.0960    0.3833 C.2       1 <0>         0.4943
     11 O1         -4.7226   -2.6919    0.3373 O.2       1 <0>        -0.5184
     12 C9         -2.4092   -2.8127    0.8085 C.3       1 <0>        -0.1438
     13 C10        -1.2252   -2.2657    0.0021 C.3       1 <0>        -0.1215
     14 N3          3.5832    2.1367   -0.0221 N.pl3     1 <0>        -0.4158
     15 C11         4.8484    1.6087   -0.0430 C.2       1 <0>        -0.0544
     16 C12         5.7047    2.6479   -0.0442 C.2       1 <0>        -0.0182
     17 N4          4.9879    3.7814   -0.0245 N.2       1 <0>        -0.4823
     18 C13         3.7160    3.4888   -0.0171 C.2       1 <0>         0.1917
     19 H1         -0.9589    1.9212    0.0260 H         1 <0>         0.1471
     20 H2          1.1542    3.1763    0.0081 H         1 <0>         0.1387
     21 H3          3.3487   -0.4951   -0.0334 H         1 <0>         0.1384
     22 H4          1.2428   -1.7622   -0.0205 H         1 <0>         0.1429
     23 H5         -4.4274   -0.3137   -0.1596 H         1 <0>         0.4334
     24 H6         -2.2376   -2.6473    1.8721 H         1 <0>         0.1090
     25 H7         -2.5160   -3.8805    0.6174 H         1 <0>         0.1179
     26 H8         -1.2851   -2.6243   -1.0255 H         1 <0>         0.1018
     27 H9         -0.2926   -2.6075    0.4510 H         1 <0>         0.1077
     28 H10         5.1083    0.5605   -0.0556 H         1 <0>         0.1802
     29 H11         6.7825    2.5803   -0.0585 H         1 <0>         0.1768
     30 H12         2.9050    4.2019   -0.0057 H         1 <0>         0.2107
@<TRIPOS>BOND
     1    1    6 ar
     2    1    2 ar
     3    1   19 1
     4    2    3 ar
     5    2   20 1
     6    3    4 ar
     7    3   14 1
     8    4    5 ar
     9    4   21 1
    10    5    6 ar
    11    5   22 1
    12    6    7 1
    13    7   13 1
    14    7    8 2
    15    8    9 1
    16    9   10 am
    17    9   23 1
    18   10   11 2
    19   10   12 1
    20   12   13 1
    21   12   24 1
    22   12   25 1
    23   13   26 1
    24   13   27 1
    25   14   18 1
    26   14   15 1
    27   15   16 2
    28   15   28 1
    29   16   17 1
    30   16   29 1
    31   17   18 2
    32   18   30 1
@<TRIPOS>MOLECULE
ZINC00001553
   31    33     0     0     0
SMALL
USER_CHARGES

@<TRIPOS>ATOM
      1 C1         -0.0169    1.3933    0.0097 C.ar      1 <0>        -0.0564
      2 C2          1.1680    2.0964    0.0022 C.ar      1 <0>        -0.0994
      3 C3          2.3808    1.4179   -0.0135 C.ar      1 <0>         0.0862
      4 C4          2.4041    0.0283   -0.0212 C.ar      1 <0>        -0.1073
      5 C5          1.2238   -0.6824   -0.0138 C.ar      1 <0>        -0.0696
      6 C6          0.0021   -0.0041    0.0020 C.ar      1 <0>        -0.0043
      7 C7         -1.2632   -0.7605    0.0105 C.2       1 <0>         0.1265
      8 N1         -2.3857   -0.1200    0.0198 N.2       1 <0>        -0.2211
      9 N2         -3.6108   -0.7914    0.0545 N.am      1 <0>        -0.5570
     10 C8         -3.6669   -2.0960    0.3833 C.2       1 <0>         0.4939
     11 O1         -4.7226   -2.6919    0.3373 O.2       1 <0>        -0.5030
     12 C9         -2.4092   -2.8127    0.8085 C.3       1 <0>        -0.1449
     13 C10        -1.2252   -2.2657    0.0021 C.3       1 <0>        -0.1195
     14 N3          3.5832    2.1367   -0.0221 N.pl3     1 <0>        -0.3495
     15 C11         3.7173    3.5013   -0.0106 C.2       1 <0>         0.0226
     16 C12         5.0379    3.7635   -0.0251 C.2       1 <0>         0.0125
     17 N4          5.6968    2.5953   -0.0449 N.pl3     1 <0>        -0.4704
     18 C13         4.8369    1.6135   -0.0374 C.cat     1 <0>         0.2851
     19 H1         -0.9589    1.9212    0.0260 H         1 <0>         0.1590
     20 H2          1.1542    3.1763    0.0081 H         1 <0>         0.1468
     21 H3          3.3487   -0.4951   -0.0334 H         1 <0>         0.1453
     22 H4          1.2428   -1.7622   -0.0205 H         1 <0>         0.1564
     23 H5         -4.4274   -0.3137   -0.1596 H         1 <0>         0.4373
     24 H6         -2.2376   -2.6473    1.8721 H         1 <0>         0.1112
     25 H7         -2.5160   -3.8805    0.6174 H         1 <0>         0.1223
     26 H8         -1.2851   -2.6243   -1.0255 H         1 <0>         0.1047
     27 H9         -0.2926   -2.6075    0.4510 H         1 <0>         0.1075
     28 H10         2.9172    4.2265    0.0062 H         1 <0>         0.2254
     29 H11         5.4888    4.7449   -0.0214 H         1 <0>         0.2288
     30 H12         5.0809    0.5615   -0.0452 H         1 <0>         0.2625
     31 H13         6.6616    2.4957   -0.0583 H         1 <0>         0.4683
@<TRIPOS>BOND
     1    1    6 ar
     2    1    2 ar
     3    1   19 1
     4    2    3 ar
     5    2   20 1
     6    3    4 ar
     7    3   14 1
     8    4    5 ar
     9    4   21 1
    10    5    6 ar
    11    5   22 1
    12    6    7 1
    13    7   13 1
    14    7    8 2
    15    8    9 1
    16    9   10 am
    17    9   23 1
    18   10   11 2
    19   10   12 1
    20   12   13 1
    21   12   24 1
    22   12   25 1
    23   13   26 1
    24   13   27 1
    25   14   18 1
    26   14   15 1
    27   15   16 2
    28   15   28 1
    29   16   17 1
    30   16   29 1
    31   17   18 2
    32   17   31 1
    33   18   30 1
@<TRIPOS>MOLECULE
ZINC08673078
   23    24     0     0     0
SMALL
USER_CHARGES

@<TRIPOS>ATOM
      1 C1         -0.0169    1.3939    0.0097 C.ar      1 <0>        -0.1624
      2 C2          1.1800    2.0794    0.0020 C.ar      1 <0>         0.1016
      3 N1          2.3305    1.4332   -0.0129 N.ar      1 <0>        -0.4869
      4 C3          2.3924    0.1152   -0.0206 C.ar      1 <0>         0.1015
      5 C4          1.2432   -0.6476   -0.0138 C.ar      1 <0>        -0.1588
      6 C5          0.0021   -0.0041    0.0020 C.ar      1 <0>         0.0158
      7 C6         -1.2599   -0.7831    0.0099 C.2       1 <0>        -0.1056
      8 C7         -1.5839   -1.5963    1.1189 C.2       1 <0>        -0.1372
      9 C8         -2.7511   -2.3045    1.1050 C.2       1 <0>         0.1121
     10 C9         -3.6060   -2.2075   -0.0162 C.2       1 <0>         0.5103
     11 N2         -3.2701   -1.4242   -1.0580 N.am      1 <0>        -0.5917
     12 C10        -2.1143   -0.7124   -1.0511 C.2       1 <0>         0.0847
     13 O1         -4.6517   -2.8362   -0.0400 O.2       1 <0>        -0.5475
     14 N3         -3.0974   -3.1189    2.1905 N.pl3     1 <0>        -0.8547
     15 H1         -0.9548    1.9292    0.0260 H         1 <0>         0.1370
     16 H2          1.1756    3.1593    0.0078 H         1 <0>         0.1576
     17 H3          3.3557   -0.3729   -0.0328 H         1 <0>         0.1576
     18 H4          1.3013   -1.7260   -0.0208 H         1 <0>         0.1369
     19 H5         -0.9170   -1.6572    1.9662 H         1 <0>         0.1324
     20 H6         -1.8667   -0.0870   -1.8961 H         1 <0>         0.1636
     21 H7         -2.5068   -3.1820    2.9574 H         1 <0>         0.4048
     22 H8         -3.9279   -3.6199    2.1754 H         1 <0>         0.4072
     23 H9         -3.8639   -1.3647   -1.8227 H         1 <0>         0.4217
@<TRIPOS>BOND
     1    1    6 ar
     2    1    2 ar
     3    1   15 1
     4    2    3 ar
     5    2   16 1
     6    3    4 ar
     7    4    5 ar
     8    4   17 1
     9    5    6 ar
    10    5   18 1
    11    6    7 1
    12    7   12 2
    13    7    8 1
    14    8    9 2
    15    8   19 1
    16    9   10 1
    17    9   14 1
    18   10   11 am
    19   10   13 2
    20   11   12 1
    21   11   23 1
    22   12   20 1
    23   14   21 1
    24   14   22 1
@<TRIPOS>MOLECULE
ZINC06096369
   56    60     0     0     0
SMALL
USER_CHARGES
N-benzyl-6-chloro-2-piperazin-1-yl-4-pyrrolidin-1-yl-pteridin-7-amine
@<TRIPOS>ATOM
      1 C1         -0.0167    1.3781    0.0096 C.ar      1 <0>        -0.1032
      2 C2          1.1709    2.0855    0.0021 C.ar      1 <0>        -0.1204
      3 C3          2.3773    1.4107   -0.0141 C.ar      1 <0>        -0.0976
      4 C4          2.3960    0.0285   -0.0217 C.ar      1 <0>        -0.1250
      5 C5          1.2084   -0.6789   -0.0136 C.ar      1 <0>        -0.0970
      6 C6          0.0021   -0.0041    0.0020 C.ar      1 <0>        -0.1199
      7 C7          3.7112   -0.7071   -0.0392 C.3       1 <0>         0.1676
      8 N1          4.1233   -0.9376   -1.4260 N.pl3     1 <0>        -0.6748
      9 C8          5.3086   -1.6007   -1.6949 C.ar      1 <0>         0.4465
     10 C9          5.6993   -1.8192   -3.0285 C.ar      1 <0>         0.0927
     11 N2          6.8207   -2.4464   -3.3007 N.ar      1 <0>        -0.3357
     12 C10         7.5947   -2.8794   -2.3047 C.ar      1 <0>        -0.0909
     13 C11         7.2078   -2.6630   -0.9599 C.ar      1 <0>         0.4006
     14 N3          6.0674   -2.0189   -0.6964 N.ar      1 <0>        -0.4976
     15 N4          8.0050   -3.1085    0.0202 N.ar      1 <0>        -0.5628
     16 C12         9.1304   -3.7375   -0.2646 C.ar      1 <0>         0.5511
     17 N5          9.5318   -3.9618   -1.5119 N.ar      1 <0>        -0.5832
     18 C13         8.8134   -3.5604   -2.5506 C.ar      1 <0>         0.4746
     19 N6          9.2413   -3.7991   -3.8393 N.pl3     1 <0>        -0.4390
     20 C14         9.4865   -2.5254   -4.5632 C.3       1 <0>         0.0513
     21 C15        10.4217   -2.9512   -5.7228 C.3       1 <0>        -0.1256
     22 C16        11.3266   -4.0172   -5.0636 C.3       1 <0>        -0.1343
     23 C17        10.5323   -4.5206   -3.8441 C.3       1 <0>         0.0330
     24 N7          9.9235   -4.1812    0.7769 N.pl3     1 <0>        -0.4597
     25 C18        11.2842   -3.6360    0.6721 C.3       1 <0>         0.0354
     26 C19        12.1498   -4.2123    1.7950 C.3       1 <0>         0.0032
     27 C20        10.1891   -4.4221    3.1987 C.3       1 <0>        -0.0005
     28 C21         9.3235   -3.8457    2.0758 C.3       1 <0>         0.0392
     29 Cl1         4.6911   -1.2559   -4.3247 Cl        1 <0>         0.0091
     30 H1         -0.9592    1.9054    0.0170 H         1 <0>         0.1274
     31 H2          1.1563    3.1654    0.0081 H         1 <0>         0.1275
     32 H3          3.3051    1.9634   -0.0207 H         1 <0>         0.1241
     33 H4          1.2231   -1.7587   -0.0199 H         1 <0>         0.1248
     34 H5         -0.9258   -0.5567    0.0079 H         1 <0>         0.1278
     35 H6          4.4679   -0.1107    0.4703 H         1 <0>         0.0854
     36 H7          3.5990   -1.6641    0.4703 H         1 <0>         0.0861
     37 H8          3.5657   -0.6257   -2.1559 H         1 <0>         0.4221
     38 H9          8.5532   -2.1178   -4.9515 H         1 <0>         0.1100
     39 H10         9.9824   -1.8035   -3.9143 H         1 <0>         0.0578
     40 H11        11.0136   -2.1049   -6.0715 H         1 <0>         0.0863
     41 H12         9.8501   -3.3845   -6.5436 H         1 <0>         0.0864
     42 H13        12.2674   -3.5694   -4.7436 H         1 <0>         0.0748
     43 H14        11.5135   -4.8365   -5.7578 H         1 <0>         0.0831
     44 H15        11.0819   -4.3045   -2.9280 H         1 <0>         0.0850
     45 H16        10.3578   -5.5933   -3.9280 H         1 <0>         0.0918
     46 H17        11.7117   -3.9083   -0.2929 H         1 <0>         0.1398
     47 H18        11.2487   -2.5502    0.7611 H         1 <0>         0.0724
     48 H19        13.1517   -3.7870    1.7366 H         1 <0>         0.1456
     49 H20        12.2075   -5.2957    1.6901 H         1 <0>         0.1444
     50 H21         9.7615   -4.1497    4.1637 H         1 <0>         0.1458
     51 H22        10.2243   -5.5079    3.1100 H         1 <0>         0.1415
     52 H23         9.2657   -2.7623    2.1807 H         1 <0>         0.0831
     53 H24         8.3214   -4.2707    2.1341 H         1 <0>         0.1374
     54 N8         11.5542   -3.8716    3.1010 N.4       1 <0>        -0.5207
     55 H25        11.5157   -2.8503    3.1999 H         1 <0>         0.4321
     56 H26        12.1335   -4.2665    3.8511 H         1 <0>         0.4411
@<TRIPOS>BOND
     1    1    6 ar
     2    1    2 ar
     3    1   30 1
     4    2    3 ar
     5    2   31 1
     6    3    4 ar
     7    3   32 1
     8    4    5 ar
     9    4    7 1
    10    5    6 ar
    11    5   33 1
    12    6   34 1
    13    7    8 1
    14    7   35 1
    15    7   36 1
    16    8    9 1
    17    8   37 1
    18    9   14 ar
    19    9   10 ar
    20   10   11 ar
    21   10   29 1
    22   11   12 ar
    23   12   18 ar
    24   12   13 ar
    25   13   14 ar
    26   13   15 ar
    27   15   16 ar
    28   16   17 ar
    29   16   24 1
    30   17   18 ar
    31   18   19 1
    32   19   23 1
    33   19   20 1
    34   20   21 1
    35   20   38 1
    36   20   39 1
    37   21   22 1
    38   21   40 1
    39   21   41 1
    40   22   23 1
    41   22   42 1
    42   22   43 1
    43   23   44 1
    44   23   45 1
    45   24   28 1
    46   24   25 1
    47   25   26 1
    48   25   46 1
    49   25   47 1
    50   26   48 1
    51   26   49 1
    52   26   54 1
    53   27   28 1
    54   27   50 1
    55   27   51 1
    56   27   54 1
    57   28   52 1
    58   28   53 1
    59   54   55 1
    60   54   56 1
@<TRIPOS>MOLECULE
ZINC18324776
   66    69     0     0     0
SMALL
USER_CHARGES

@<TRIPOS>ATOM
      1 C1         -0.0187    1.5258    0.0104 C.3       1 <0>        -0.1515
      2 C2          0.0021   -0.0041    0.0020 C.3       1 <0>        -0.1161
      3 C3          0.7182   -0.4975   -1.2568 C.3       1 <0>        -0.0382
      4 C4          0.7386   -2.0043   -1.2651 C.2       1 <0>         0.2940
      5 N1          1.6787   -2.7529   -0.7375 N.2       1 <0>        -0.4766
      6 C5          1.3866   -4.0413   -0.9211 C.2       1 <0>         0.1350
      7 C6          0.1960   -4.0985   -1.6021 C.2       1 <0>        -0.1676
      8 N2         -0.2036   -2.7889   -1.8075 N.pl3     1 <0>        -0.2813
      9 N3         -1.4027   -2.5429   -2.4823 N.2       1 <0>        -0.2666
     10 C7         -2.1451   -3.5211   -2.9147 C.2       1 <0>         0.4182
     11 N4         -1.8014   -4.8460   -2.7370 N.am      1 <0>        -0.6707
     12 H1         -2.3837   -5.5441   -3.0753 H         1 <0>         0.4225
     13 C8         -0.6544   -5.1776   -2.1025 C.2       1 <0>         0.6004
     14 O1         -0.3442   -6.3438   -1.9407 O.2       1 <0>        -0.4846
     15 C9         -3.4025   -3.2011   -3.6216 C.ar      1 <0>        -0.1222
     16 C10        -4.2233   -4.2270   -4.0923 C.ar      1 <0>         0.0523
     17 C11        -5.3956   -3.9221   -4.7514 C.ar      1 <0>        -0.7181
     18 C12        -5.7625   -2.6016   -4.9484 C.ar      1 <0>         0.0502
     19 C13        -4.9584   -1.5773   -4.4871 C.ar      1 <0>        -0.2291
     20 C14        -3.7798   -1.8669   -3.8177 C.ar      1 <0>         0.2417
     21 O2         -2.9915   -0.8612   -3.3589 O.3       1 <0>        -0.2691
     22 C15        -3.4407    0.4746   -3.5956 C.3       1 <0>         0.0430
     23 C16        -2.4300    1.4636   -3.0113 C.3       1 <0>        -0.1534
     24 S1         -6.4307   -5.2183   -5.3457 S.o2      1 <0>         2.6925
     25 O3         -7.1994   -4.6697   -6.4075 O.2       1 <0>        -0.9459
     26 O4         -5.5978   -6.3568   -5.5173 O.2       1 <0>        -0.9478
     27 N5         -7.4957   -5.5895   -4.1331 N.pl3     1 <0>        -0.9969
     28 C17        -7.1670   -6.6094   -3.1256 C.3       1 <0>         0.1241
     29 C18        -7.3951   -6.0101   -1.7339 C.3       1 <0>         0.0390
     30 N6         -8.7605   -5.4743   -1.6528 N.3       1 <0>        -0.5346
     31 C19        -8.9594   -4.3757   -2.6075 C.3       1 <0>         0.0359
     32 C20        -8.7928   -4.9036   -4.0315 C.3       1 <0>         0.1244
     33 C21        -9.0775   -5.0460   -0.2838 C.3       1 <0>         0.0507
     34 C22       -10.5711   -4.7305   -0.1811 C.3       1 <0>        -0.1507
     35 C23         2.2115   -5.2172   -0.4653 C.3       1 <0>        -0.0791
     36 H2          1.0039    1.9031    0.0027 H         1 <0>         0.0592
     37 H3         -0.5459    1.8868   -0.8726 H         1 <0>         0.0568
     38 H4         -0.5289    1.8773    0.9072 H         1 <0>         0.0582
     39 H5          0.5293   -0.3651    0.8851 H         1 <0>         0.0698
     40 H6         -1.0205   -0.3814    0.0098 H         1 <0>         0.0616
     41 H7          0.1910   -0.1364   -2.1398 H         1 <0>         0.0903
     42 H8          1.7408   -0.1202   -1.2645 H         1 <0>         0.1010
     43 H9         -3.9405   -5.2583   -3.9410 H         1 <0>         0.1476
     44 H10        -6.6820   -2.3711   -5.4658 H         1 <0>         0.1528
     45 H11        -5.2508   -0.5496   -4.6443 H         1 <0>         0.1519
     46 H12        -3.5339    0.6418   -4.6687 H         1 <0>         0.0707
     47 H13        -4.4100    0.6217   -3.1194 H         1 <0>         0.0698
     48 H14        -2.3368    1.2964   -1.9383 H         1 <0>         0.0715
     49 H15        -1.4607    1.3165   -3.4876 H         1 <0>         0.0696
     50 H16        -2.7726    2.4825   -3.1919 H         1 <0>         0.0831
     51 H17        -7.8113   -7.4781   -3.2603 H         1 <0>         0.0891
     52 H18        -6.1229   -6.9045   -3.2305 H         1 <0>         0.0932
     53 H19        -7.2628   -6.7844   -0.9782 H         1 <0>         0.0906
     54 H20        -6.6785   -5.2070   -1.5617 H         1 <0>         0.0379
     55 H21        -9.9616   -3.9647   -2.4854 H         1 <0>         0.0938
     56 H22        -8.2210   -3.5954   -2.4231 H         1 <0>         0.0379
     57 H23        -8.8232   -4.0716   -4.7350 H         1 <0>         0.0943
     58 H24        -9.5965   -5.6053   -4.2549 H         1 <0>         0.0876
     59 H25        -8.8260   -5.8445    0.4142 H         1 <0>         0.0769
     60 H26        -8.5002   -4.1544   -0.0392 H         1 <0>         0.0325
     61 H27       -10.8226   -3.9319   -0.8791 H         1 <0>         0.0550
     62 H28       -11.1485   -5.6221   -0.4257 H         1 <0>         0.0654
     63 H29       -10.8063   -4.4127    0.8346 H         1 <0>         0.0603
     64 H30         1.9006   -5.5126    0.5368 H         1 <0>         0.0820
     65 H31         2.0655   -6.0513   -1.1517 H         1 <0>         0.0840
     66 H32         3.2651   -4.9383   -0.4514 H         1 <0>         0.0816
@<TRIPOS>BOND
     1    1    2 1
     2    1   36 1
     3    1   37 1
     4    1   38 1
     5    2    3 1
     6    2   39 1
     7    2   40 1
     8    3    4 1
     9    3   41 1
    10    3   42 1
    11    4    8 1
    12    4    5 2
    13    5    6 1
    14    6    7 2
    15    6   35 1
    16    7   13 1
    17    7    8 1
    18    8    9 1
    19    9   10 2
    20   10   11 1
    21   10   15 1
    22   11   12 1
    23   11   13 am
    24   13   14 2
    25   15   20 ar
    26   15   16 ar
    27   16   17 ar
    28   16   43 1
    29   17   18 ar
    30   17   24 1
    31   18   19 ar
    32   18   44 1
    33   19   20 ar
    34   19   45 1
    35   20   21 1
    36   21   22 1
    37   22   23 1
    38   22   46 1
    39   22   47 1
    40   23   48 1
    41   23   49 1
    42   23   50 1
    43   24   25 2
    44   24   26 2
    45   24   27 1
    46   27   32 1
    47   27   28 1
    48   28   29 1
    49   28   51 1
    50   28   52 1
    51   29   30 1
    52   29   53 1
    53   29   54 1
    54   30   31 1
    55   30   33 1
    56   31   32 1
    57   31   55 1
    58   31   56 1
    59   32   57 1
    60   32   58 1
    61   33   34 1
    62   33   59 1
    63   33   60 1
    64   34   61 1
    65   34   62 1
    66   34   63 1
    67   35   64 1
    68   35   65 1
    69   35   66 1
@<TRIPOS>MOLECULE
ZINC18324776
   65    68     0     0     0
SMALL
USER_CHARGES

@<TRIPOS>ATOM
      1 C1         -0.0187    1.5258    0.0104 C.3       1 <0>        -0.1472
      2 C2          0.0021   -0.0041    0.0020 C.3       1 <0>        -0.1154
      3 C3         -1.4333   -0.5336    0.0129 C.3       1 <0>        -0.0179
      4 C4         -1.4129   -2.0405    0.0046 C.2       1 <0>         0.2125
      5 N1         -1.4071   -2.7931   -1.0712 N.2       1 <0>        -0.4896
      6 C5         -1.3882   -4.0792   -0.7236 C.2       1 <0>         0.0659
      7 C6         -1.3817   -4.1334    0.6527 C.2       1 <0>        -0.1332
      8 N2         -1.3919   -2.8203    1.0938 N.pl3     1 <0>        -0.2435
      9 N3         -1.3825   -2.5794    2.4721 N.2       1 <0>        -0.3804
     10 C7         -1.3611   -3.5896    3.3115 C.2       1 <0>         0.3856
     11 N4         -1.3477   -4.8635    2.8932 N.2       1 <0>        -0.6634
     12 C8         -1.3637   -5.1706    1.6102 C.2       1 <0>         0.5160
     13 O1         -1.3482   -6.4650    1.2164 O.3       1 <0>        -0.6444
     14 C9         -1.3510   -3.3124    4.7674 C.ar      1 <0>        -0.0696
     15 C10        -1.3226   -4.3652    5.6804 C.ar      1 <0>         0.0723
     16 C11        -1.3133   -4.1018    7.0345 C.ar      1 <0>        -0.7301
     17 C12        -1.3321   -2.7951    7.4910 C.ar      1 <0>         0.0273
     18 C13        -1.3608   -1.7438    6.5951 C.ar      1 <0>        -0.2428
     19 C14        -1.3641   -1.9932    5.2316 C.ar      1 <0>         0.2183
     20 O2         -1.3862   -0.9606    4.3499 O.3       1 <0>        -0.2614
     21 C15        -1.3985    0.3595    4.8970 C.3       1 <0>         0.0448
     22 C16        -1.4229    1.3826    3.7597 C.3       1 <0>        -0.1490
     23 S1         -1.2780   -5.4337    8.1875 S.o2      1 <0>         2.6955
     24 O3         -1.8252   -4.9355    9.4005 O.2       1 <0>        -0.9613
     25 O4         -1.8158   -6.5654    7.5173 O.2       1 <0>        -0.9471
     26 N5          0.3135   -5.7760    8.4916 N.pl3     1 <0>        -0.9993
     27 C17         1.0454   -6.7536    7.6720 C.3       1 <0>         0.1257
     28 C18         2.3494   -6.1074    7.1922 C.3       1 <0>         0.0382
     29 N6          3.0902   -5.5890    8.3500 N.3       1 <0>        -0.5349
     30 C19         2.3371   -4.5289    9.0333 C.3       1 <0>         0.0355
     31 C20         1.0342   -5.1059    9.5847 C.3       1 <0>         0.1277
     32 C21         4.4231   -5.1157    7.9532 C.3       1 <0>         0.0491
     33 C22         5.2521   -4.8186    9.2044 C.3       1 <0>        -0.1481
     34 C23        -1.3761   -5.2575   -1.6630 C.3       1 <0>        -0.0570
     35 H1          1.0039    1.9031    0.0027 H         1 <0>         0.0513
     36 H2         -0.5459    1.8868   -0.8726 H         1 <0>         0.0538
     37 H3         -0.5289    1.8773    0.9072 H         1 <0>         0.0536
     38 H4          0.5123   -0.3556   -0.8948 H         1 <0>         0.0637
     39 H5          0.5293   -0.3651    0.8851 H         1 <0>         0.0604
     40 H6         -1.9435   -0.1821    0.9097 H         1 <0>         0.0786
     41 H7         -1.9605   -0.1726   -0.8702 H         1 <0>         0.0832
     42 H8         -1.3082   -5.3860    5.3281 H         1 <0>         0.1637
     43 H9         -1.3247   -2.5965    8.5525 H         1 <0>         0.1396
     44 H10        -1.3757   -0.7265    6.9575 H         1 <0>         0.1384
     45 H11        -2.2844    0.4866    5.5191 H         1 <0>         0.0614
     46 H12        -0.5047    0.5103    5.5023 H         1 <0>         0.0605
     47 H13        -1.4323    2.3896    4.1770 H         1 <0>         0.0741
     48 H14        -0.5370    1.2555    3.1375 H         1 <0>         0.0691
     49 H15        -2.3167    1.2318    3.1543 H         1 <0>         0.0679
     50 H16         1.2725   -7.6360    8.2702 H         1 <0>         0.0831
     51 H17         0.4391   -7.0371    6.8117 H         1 <0>         0.0995
     52 H18         2.9558   -6.8517    6.6760 H         1 <0>         0.0892
     53 H19         2.1202   -5.2882    6.5106 H         1 <0>         0.0436
     54 H20         2.9344   -4.1285    9.8524 H         1 <0>         0.0887
     55 H21         2.1080   -3.7317    8.3261 H         1 <0>         0.0397
     56 H22         0.4205   -4.3006    9.9884 H         1 <0>         0.0914
     57 H23         1.2602   -5.8269   10.3703 H         1 <0>         0.0814
     58 H24         4.9205   -5.8846    7.3620 H         1 <0>         0.0757
     59 H25         4.3241   -4.2075    7.3587 H         1 <0>         0.0329
     60 H26         6.2411   -4.4674    8.9100 H         1 <0>         0.0572
     61 H27         4.7547   -4.0497    9.7956 H         1 <0>         0.0540
     62 H28         5.3511   -5.7268    9.7988 H         1 <0>         0.0632
     63 H29        -0.3456   -5.5279   -1.8935 H         1 <0>         0.0620
     64 H30        -1.8769   -6.1032   -1.1917 H         1 <0>         0.0807
     65 H31        -1.8970   -4.9937   -2.5834 H         1 <0>         0.0597
@<TRIPOS>BOND
     1    1    2 1
     2    1   35 1
     3    1   36 1
     4    1   37 1
     5    2    3 1
     6    2   38 1
     7    2   39 1
     8    3    4 1
     9    3   40 1
    10    3   41 1
    11    4    8 1
    12    4    5 2
    13    5    6 1
    14    6    7 2
    15    6   34 1
    16    7   12 1
    17    7    8 1
    18    8    9 1
    19    9   10 2
    20   10   11 1
    21   10   14 1
    22   11   12 2
    23   12   13 1
    24   14   19 ar
    25   14   15 ar
    26   15   16 ar
    27   15   42 1
    28   16   17 ar
    29   16   23 1
    30   17   18 ar
    31   17   43 1
    32   18   19 ar
    33   18   44 1
    34   19   20 1
    35   20   21 1
    36   21   22 1
    37   21   45 1
    38   21   46 1
    39   22   47 1
    40   22   48 1
    41   22   49 1
    42   23   24 2
    43   23   25 2
    44   23   26 1
    45   26   31 1
    46   26   27 1
    47   27   28 1
    48   27   50 1
    49   27   51 1
    50   28   29 1
    51   28   52 1
    52   28   53 1
    53   29   30 1
    54   29   32 1
    55   30   31 1
    56   30   54 1
    57   30   55 1
    58   31   56 1
    59   31   57 1
    60   32   33 1
    61   32   58 1
    62   32   59 1
    63   33   60 1
    64   33   61 1
    65   33   62 1
    66   34   63 1
    67   34   64 1
    68   34   65 1
@<TRIPOS>MOLECULE
ZINC18324776
   67    70     0     0     0
SMALL
USER_CHARGES

@<TRIPOS>ATOM
      1 C1         -0.0187    1.5258    0.0104 C.3       1 <0>        -0.1527
      2 C2          0.0021   -0.0041    0.0020 C.3       1 <0>        -0.1146
      3 C3         -1.4333   -0.5336    0.0129 C.3       1 <0>        -0.0409
      4 C4         -1.4129   -2.0405    0.0046 C.2       1 <0>         0.3010
      5 N1         -1.4071   -2.7929   -1.0707 N.2       1 <0>        -0.4733
      6 C5         -1.3877   -4.0800   -0.7214 C.2       1 <0>         0.1428
      7 C6         -1.3810   -4.1322    0.6504 C.2       1 <0>        -0.1723
      8 N2         -1.3919   -2.8210    1.0945 N.pl3     1 <0>        -0.2854
      9 N3         -1.3832   -2.5699    2.4695 N.2       1 <0>        -0.2583
     10 C7         -1.3620   -3.5449    3.3321 C.2       1 <0>         0.4061
     11 N4         -1.3466   -4.8711    2.9502 N.am      1 <0>        -0.6726
     12 H1         -1.3310   -5.5667    3.6261 H         1 <0>         0.4190
     13 C8         -1.3621   -5.2077    1.6407 C.2       1 <0>         0.6010
     14 O1         -1.3478   -6.3752    1.2954 O.2       1 <0>        -0.4816
     15 C9         -1.3537   -3.2195    4.7733 C.ar      1 <0>        -0.1139
     16 C10        -1.3254   -4.2417    5.7231 C.ar      1 <0>         0.0469
     17 C11        -1.3178   -3.9318    7.0668 C.ar      1 <0>        -0.7277
     18 C12        -1.3382   -2.6100    7.4784 C.ar      1 <0>         0.0445
     19 C13        -1.3663   -1.5892    6.5478 C.ar      1 <0>        -0.2261
     20 C14        -1.3684   -1.8838    5.1935 C.ar      1 <0>         0.2477
     21 O2         -1.3904   -0.8814    4.2779 O.3       1 <0>        -0.2651
     22 C15        -1.4044    0.4562    4.7806 C.3       1 <0>         0.0428
     23 C16        -1.4284    1.4408    3.6097 C.3       1 <0>        -0.1560
     24 S1         -1.2826   -5.2233    8.2649 S.o2      1 <0>         2.6921
     25 O3         -1.8316   -4.6842    9.4596 O.2       1 <0>        -0.9290
     26 O4         -1.8188   -6.3779    7.6334 O.2       1 <0>        -0.9309
     27 N5          0.3088   -5.5535    8.5823 N.pl3     1 <0>        -1.0122
     28 C17         1.0439   -6.5580    7.7981 C.3       1 <0>         0.0949
     29 C18         2.3562   -5.9317    7.3149 C.3       1 <0>        -0.0239
     30 N6          3.0970   -5.4006    8.4661 N.4       1 <0>        -0.3828
     31 C19         2.3407   -4.3048    9.0851 C.3       1 <0>        -0.0284
     32 C20         1.0293   -4.8464    9.6524 C.3       1 <0>         0.0958
     33 C21         4.4028   -4.8994    8.0169 C.3       1 <0>        -0.0114
     34 C22         5.2254   -4.4605    9.2299 C.3       1 <0>        -0.1896
     35 C23        -1.3758   -5.2593   -1.6596 C.3       1 <0>        -0.0821
     36 H2          1.0039    1.9031    0.0027 H         1 <0>         0.0592
     37 H3         -0.5459    1.8868   -0.8726 H         1 <0>         0.0614
     38 H4         -0.5289    1.8773    0.9072 H         1 <0>         0.0565
     39 H5          0.5123   -0.3556   -0.8948 H         1 <0>         0.0710
     40 H6          0.5293   -0.3651    0.8851 H         1 <0>         0.0594
     41 H7         -1.9435   -0.1821    0.9097 H         1 <0>         0.0906
     42 H8         -1.9605   -0.1726   -0.8702 H         1 <0>         0.1040
     43 H9         -1.3098   -5.2740    5.4062 H         1 <0>         0.1484
     44 H10        -1.3324   -2.3756    8.5327 H         1 <0>         0.1534
     45 H11        -1.3821   -0.5605    6.8761 H         1 <0>         0.1551
     46 H12        -2.2911    0.6033    5.3972 H         1 <0>         0.0735
     47 H13        -0.5114    0.6279    5.3815 H         1 <0>         0.0708
     48 H14        -0.5417    1.2936    2.9931 H         1 <0>         0.0726
     49 H15        -2.3214    1.2691    3.0088 H         1 <0>         0.0719
     50 H16        -1.4391    2.4610    3.9931 H         1 <0>         0.0865
     51 H17         1.2599   -7.4244    8.4233 H         1 <0>         0.1083
     52 H18         0.4453   -6.8622    6.9395 H         1 <0>         0.1351
     53 H19         2.9579   -6.6900    6.8139 H         1 <0>         0.1474
     54 H20         2.1378   -5.1222    6.6184 H         1 <0>         0.1335
     55 H21         2.9311   -3.8642    9.8885 H         1 <0>         0.1485
     56 H22         2.1228   -3.5445    8.3351 H         1 <0>         0.1342
     57 H23         0.4209   -4.0196   10.0191 H         1 <0>         0.1362
     58 H24         1.2438   -5.5370   10.4679 H         1 <0>         0.1066
     59 H25         4.9323   -5.6903    7.4857 H         1 <0>         0.1333
     60 H26         4.2560   -4.0494    7.3505 H         1 <0>         0.1286
     61 H27         4.6958   -3.6696    9.7611 H         1 <0>         0.0809
     62 H28         5.3721   -5.3105    9.8963 H         1 <0>         0.0825
     63 H29         6.1943   -4.0886    8.8966 H         1 <0>         0.1077
     64 H30        -0.3454   -5.5297   -1.8903 H         1 <0>         0.0839
     65 H31        -1.8762   -6.1045   -1.1871 H         1 <0>         0.0849
     66 H32        -1.8973   -4.9966   -2.5800 H         1 <0>         0.0846
     67 H33         3.2364   -6.1358    9.1430 H         1 <0>         0.4258
@<TRIPOS>BOND
     1    1    2 1
     2    1   36 1
     3    1   37 1
     4    1   38 1
     5    2    3 1
     6    2   39 1
     7    2   40 1
     8    3    4 1
     9    3   41 1
    10    3   42 1
    11    4    8 1
    12    4    5 2
    13    5    6 1
    14    6    7 2
    15    6   35 1
    16    7   13 1
    17    7    8 1
    18    8    9 1
    19    9   10 2
    20   10   11 1
    21   10   15 1
    22   11   12 1
    23   11   13 am
    24   13   14 2
    25   15   20 ar
    26   15   16 ar
    27   16   17 ar
    28   16   43 1
    29   17   18 ar
    30   17   24 1
    31   18   19 ar
    32   18   44 1
    33   19   20 ar
    34   19   45 1
    35   20   21 1
    36   21   22 1
    37   22   23 1
    38   22   46 1
    39   22   47 1
    40   23   48 1
    41   23   49 1
    42   23   50 1
    43   24   25 2
    44   24   26 2
    45   24   27 1
    46   27   32 1
    47   27   28 1
    48   28   29 1
    49   28   51 1
    50   28   52 1
    51   29   30 1
    52   29   53 1
    53   29   54 1
    54   30   31 1
    55   30   33 1
    56   30   67 1
    57   31   32 1
    58   31   55 1
    59   31   56 1
    60   32   57 1
    61   32   58 1
    62   33   34 1
    63   33   59 1
    64   33   60 1
    65   34   61 1
    66   34   62 1
    67   34   63 1
    68   35   64 1
    69   35   65 1
    70   35   66 1
@<TRIPOS>MOLECULE
ZINC08144603
   29    30     0     0     0
SMALL
USER_CHARGES

@<TRIPOS>ATOM
      1 C1         -0.0184    1.5028    0.0103 C.3       1 <0>        -0.1200
      2 C2          0.0021   -0.0041    0.0020 C.2       1 <0>         0.4632
      3 N1          0.0050   -0.6288   -1.1442 N.2       1 <0>        -0.5686
      4 C3          0.0229   -1.9660   -1.2126 C.2       1 <0>         0.5136
      5 C4          0.0388   -2.7147   -0.0241 C.2       1 <0>        -0.3197
      6 C5          0.0351   -2.0107    1.2074 C.2       1 <0>         0.5645
      7 N2          0.0222   -0.6615    1.1776 N.am      1 <0>        -0.6360
      8 O1          0.0480   -2.6107    2.2684 O.2       1 <0>        -0.5245
      9 C6          0.0576   -4.1462   -0.0549 C.1       1 <0>         0.2847
     10 N3          0.0726   -5.2819   -0.0793 N.1       1 <0>        -0.4331
     11 N4          0.0252   -2.5987   -2.4315 N.pl3     1 <0>        -0.6828
     12 C7          0.0080   -1.8102   -3.6661 C.3       1 <0>         0.1686
     13 C8          0.0145   -2.7371   -4.8543 C.ar      1 <0>        -0.1755
     14 C9          1.2133   -3.1572   -5.4105 C.ar      1 <0>        -0.0525
     15 C10         1.1709   -4.0098   -6.5028 C.ar      1 <0>        -0.1737
     16 C11        -0.0562   -4.4100   -6.9976 C.ar      1 <0>         0.1120
     17 N5         -1.1764   -3.9900   -6.4433 N.ar      1 <0>        -0.4843
     18 C12        -1.1740   -3.1837   -5.3997 C.ar      1 <0>         0.1227
     19 H1          1.0042    1.8801    0.0026 H         1 <0>         0.1102
     20 H2         -0.5455    1.8639   -0.8728 H         1 <0>         0.1120
     21 H3         -0.5286    1.8543    0.9071 H         1 <0>         0.0965
     22 H4          0.0381   -3.5676   -2.4750 H         1 <0>         0.4183
     23 H5         -0.8906   -1.1937   -3.6910 H         1 <0>         0.0920
     24 H6          0.8892   -1.1695   -3.7003 H         1 <0>         0.0903
     25 H7          2.1575   -2.8277   -5.0027 H         1 <0>         0.1381
     26 H8          2.0850   -4.3567   -6.9615 H         1 <0>         0.1403
     27 H9         -0.0978   -5.0741   -7.8483 H         1 <0>         0.1602
     28 H10        -2.1119   -2.8649   -4.9693 H         1 <0>         0.1581
     29 H11         0.0236   -0.1615    2.0089 H         1 <0>         0.4253
@<TRIPOS>BOND
     1    1    2 1
     2    1   19 1
     3    1   20 1
     4    1   21 1
     5    2    7 1
     6    2    3 2
     7    3    4 1
     8    4    5 2
     9    4   11 1
    10    5    6 1
    11    5    9 1
    12    6    7 am
    13    6    8 2
    14    7   29 1
    15    9   10 3
    16   11   12 1
    17   11   22 1
    18   12   13 1
    19   12   23 1
    20   12   24 1
    21   13   18 ar
    22   13   14 ar
    23   14   15 ar
    24   14   25 1
    25   15   16 ar
    26   15   26 1
    27   16   17 ar
    28   16   27 1
    29   17   18 ar
    30   18   28 1
@<TRIPOS>MOLECULE
ZINC00346307
   44    46     0     0     0
SMALL
USER_CHARGES
4-(5-allyl-6-methyl-2-phenyl-pyrimidin-4-yl)aminobenzoic acid
@<TRIPOS>ATOM
      1 C1          0.2981   -0.0012   -2.4984 C.3       1 <0>        -0.1045
      2 C2          0.3307   -0.7200   -1.1743 C.ar      1 <0>         0.2086
      3 C3          0.1637   -0.0190    0.0055 C.ar      1 <0>        -0.2533
      4 C4          0.1945   -0.7251    1.2103 C.ar      1 <0>         0.4439
      5 N1          0.3877   -2.0391    1.1828 N.ar      1 <0>        -0.5490
      6 C5          0.5493   -2.6736    0.0302 C.ar      1 <0>         0.4006
      7 N2          0.5246   -2.0288   -1.1281 N.ar      1 <0>        -0.5500
      8 C6          0.7634   -4.1412    0.0364 C.ar      1 <0>        -0.0491
      9 C7          0.7990   -4.8378    1.2431 C.ar      1 <0>        -0.0655
     10 C8          0.9929   -6.2042    1.2425 C.ar      1 <0>        -0.1288
     11 C9          1.1631   -6.8808    0.0481 C.ar      1 <0>        -0.1002
     12 C10         1.1343   -6.1937   -1.1522 C.ar      1 <0>        -0.1372
     13 C11         0.9355   -4.8281   -1.1640 C.ar      1 <0>        -0.0713
     14 N3          0.0262   -0.0638    2.4179 N.pl3     1 <0>        -0.6430
     15 C12        -0.0578   -0.7892    3.6028 C.ar      1 <0>         0.1395
     16 C13        -0.6542   -2.0471    3.6061 C.ar      1 <0>        -0.1306
     17 C14        -0.7338   -2.7694    4.7747 C.ar      1 <0>        -0.0595
     18 C15        -0.2250   -2.2336    5.9620 C.ar      1 <0>        -0.1249
     19 C16         0.3684   -0.9673    5.9561 C.ar      1 <0>        -0.0677
     20 C17         0.4497   -0.2528    4.7829 C.ar      1 <0>        -0.1638
     21 C18        -0.3135   -3.0021    7.2167 C.2       1 <0>         0.4893
     22 O1          0.1294   -2.5354    8.2476 O.co2     1 <0>        -0.6344
     23 C19        -0.0529    1.4723   -0.0084 C.3       1 <0>        -0.0392
     24 C20         1.2784    2.1740    0.0710 C.2       1 <0>        -0.1490
     25 C21         1.6102    3.0543   -0.8406 C.2       1 <0>        -0.1893
     26 H1          1.3057    0.3205   -2.7620 H         1 <0>         0.0838
     27 H2         -0.0816   -0.6736   -3.2676 H         1 <0>         0.0807
     28 H3         -0.3533    0.8696   -2.4232 H         1 <0>         0.0792
     29 H4          0.6707   -4.3099    2.1765 H         1 <0>         0.1408
     30 H5          1.0166   -6.7456    2.1767 H         1 <0>         0.1300
     31 H6          1.3186   -7.9495    0.0526 H         1 <0>         0.1230
     32 H7          1.2674   -6.7271   -2.0818 H         1 <0>         0.1242
     33 H8          0.9129   -4.2927   -2.1017 H         1 <0>         0.1344
     34 H9         -0.0330    0.9042    2.4367 H         1 <0>         0.4161
     35 H10        -1.0509   -2.4584    2.6897 H         1 <0>         0.1271
     36 H11        -1.1923   -3.7472    4.7757 H         1 <0>         0.1324
     37 H12         0.7626   -0.5507    6.8712 H         1 <0>         0.1295
     38 H13         0.9082    0.7251    4.7776 H         1 <0>         0.1159
     39 H14        -0.5595    1.7573   -0.9305 H         1 <0>         0.0860
     40 H15        -0.6660    1.7584    0.8463 H         1 <0>         0.0775
     41 H16         1.9589    1.9511    0.8795 H         1 <0>         0.1075
     42 H17         2.5643    3.5572   -0.7837 H         1 <0>         0.0978
     43 H18         0.9296    3.2772   -1.6491 H         1 <0>         0.0976
     44 O2         -0.8855   -4.2222    7.2207 O.co2     1 <0>        -0.7552
@<TRIPOS>BOND
     1    1    2 1
     2    1   26 1
     3    1   27 1
     4    1   28 1
     5    2    7 ar
     6    2    3 ar
     7    3    4 ar
     8    3   23 1
     9    4    5 ar
    10    4   14 1
    11    5    6 ar
    12    6    7 ar
    13    6    8 1
    14    8   13 ar
    15    8    9 ar
    16    9   10 ar
    17    9   29 1
    18   10   11 ar
    19   10   30 1
    20   11   12 ar
    21   11   31 1
    22   12   13 ar
    23   12   32 1
    24   13   33 1
    25   14   15 1
    26   14   34 1
    27   15   20 ar
    28   15   16 ar
    29   16   17 ar
    30   16   35 1
    31   17   18 ar
    32   17   36 1
    33   18   19 ar
    34   18   21 1
    35   19   20 ar
    36   19   37 1
    37   20   38 1
    38   21   22 2
    39   21   44 1
    40   23   24 1
    41   23   39 1
    42   23   40 1
    43   24   25 2
    44   24   41 1
    45   25   42 1
    46   25   43 1
@<TRIPOS>MOLECULE
ZINC45947071
   40    42     0     0     0
SMALL
USER_CHARGES

@<TRIPOS>ATOM
      1 C1          0.4512    1.4611    0.0208 C.3       1 <0>        -0.0965
      2 C2          0.1699   -0.0193    0.0059 C.ar      1 <0>        -0.2613
      3 C3          0.1101   -0.7155   -1.1870 C.ar      1 <0>         0.2010
      4 N1         -0.1391   -2.0155   -1.1665 N.ar      1 <0>        -0.5503
      5 C4         -0.3310   -2.6545   -0.0206 C.ar      1 <0>         0.3979
      6 N2         -0.2824   -2.0235    1.1440 N.ar      1 <0>        -0.5485
      7 C5         -0.0307   -0.7202    1.1973 C.ar      1 <0>         0.4410
      8 N3          0.0258   -0.0637    2.4180 N.pl3     1 <0>        -0.6443
      9 C6         -0.0581   -0.7886    3.6020 C.ar      1 <0>         0.1330
     10 C7          0.5589   -2.0333    3.6995 C.ar      1 <0>        -0.1240
     11 C8          0.4791   -2.7480    4.8608 C.ar      1 <0>        -0.0694
     12 C9         -0.2239   -2.2279    5.9536 C.ar      1 <0>        -0.1412
     13 C10        -0.8427   -0.9766    5.8518 C.ar      1 <0>        -0.0690
     14 C11        -0.7540   -0.2654    4.6889 C.ar      1 <0>        -0.1594
     15 C12        -0.3127   -2.9949    7.2064 C.2       1 <0>         0.5195
     16 O1          0.2284   -4.0888    7.2936 O.co2     1 <0>        -0.6881
     17 O2         -0.9276   -2.5388    8.1607 O.co2     1 <0>        -0.6897
     18 C13        -0.6075   -4.1115   -0.0427 C.ar      1 <0>        -0.0477
     19 C14        -0.8180   -4.8017    1.1497 C.ar      1 <0>        -0.0655
     20 C15        -1.0748   -6.1574    1.1232 C.ar      1 <0>        -0.1291
     21 C16        -1.1231   -6.8314   -0.0839 C.ar      1 <0>        -0.1010
     22 C17        -0.9150   -6.1515   -1.2704 C.ar      1 <0>        -0.1371
     23 C18        -0.6635   -4.7946   -1.2563 C.ar      1 <0>        -0.0718
     24 C19         0.3258   -0.0020   -2.4968 C.3       1 <0>        -0.1045
     25 H1          1.5270    1.6259    0.0810 H         1 <0>         0.0708
     26 H2          0.0649    1.9136   -0.8926 H         1 <0>         0.0746
     27 H3         -0.0348    1.9147    0.8846 H         1 <0>         0.0604
     28 H4          0.1239    0.9009    2.4458 H         1 <0>         0.4154
     29 H5          1.1009   -2.4342    2.8557 H         1 <0>         0.1190
     30 H6          0.9575   -3.7134    4.9356 H         1 <0>         0.1280
     31 H7         -1.3860   -0.5720    6.6929 H         1 <0>         0.1289
     32 H8         -1.2277    0.7020    4.6109 H         1 <0>         0.1140
     33 H9         -0.7798   -4.2767    2.0927 H         1 <0>         0.1404
     34 H10        -1.2380   -6.6933    2.0465 H         1 <0>         0.1295
     35 H11        -1.3237   -7.8925   -0.0999 H         1 <0>         0.1228
     36 H12        -0.9535   -6.6828   -2.2099 H         1 <0>         0.1242
     37 H13        -0.5059   -4.2638   -2.1836 H         1 <0>         0.1343
     38 H14         1.3855   -0.0218   -2.7511 H         1 <0>         0.0833
     39 H15        -0.2453   -0.5002   -3.2802 H         1 <0>         0.0802
     40 H16        -0.0069    1.0320   -2.4064 H         1 <0>         0.0804
@<TRIPOS>BOND
     1    1    2 1
     2    1   25 1
     3    1   26 1
     4    1   27 1
     5    2    7 ar
     6    2    3 ar
     7    3    4 ar
     8    3   24 1
     9    4    5 ar
    10    5    6 ar
    11    5   18 1
    12    6    7 ar
    13    7    8 1
    14    8    9 1
    15    8   28 1
    16    9   14 ar
    17    9   10 ar
    18   10   11 ar
    19   10   29 1
    20   11   12 ar
    21   11   30 1
    22   12   13 ar
    23   12   15 1
    24   13   14 ar
    25   13   31 1
    26   14   32 1
    27   15   16 2
    28   15   17 1
    29   18   23 ar
    30   18   19 ar
    31   19   20 ar
    32   19   33 1
    33   20   21 ar
    34   20   34 1
    35   21   22 ar
    36   21   35 1
    37   22   23 ar
    38   22   36 1
    39   23   37 1
    40   24   38 1
    41   24   39 1
    42   24   40 1
@<TRIPOS>MOLECULE
ZINC70452759
   43    45     0     0     0
SMALL
USER_CHARGES

@<TRIPOS>ATOM
      1 C1          0.1355    1.9176    0.5060 C.3       1 <0>        -0.1487
      2 C2          0.0856    0.4224    0.1857 C.3       1 <0>        -0.0673
      3 C3          0.7610   -0.3505    1.2891 C.ar      1 <0>        -0.2568
      4 C4          2.1159   -0.6200    1.2364 C.ar      1 <0>         0.2037
      5 N1          2.6795   -1.3014    2.2216 N.ar      1 <0>        -0.5508
      6 C5          1.9631   -1.7264    3.2532 C.ar      1 <0>         0.3986
      7 N2          0.6620   -1.4892    3.3411 N.ar      1 <0>        -0.5490
      8 C6          0.0332   -0.8059    2.3910 C.ar      1 <0>         0.4435
      9 N3         -1.3273   -0.5537    2.4887 N.pl3     1 <0>        -0.6441
     10 C7         -2.0190   -0.9075    3.6423 C.ar      1 <0>         0.1335
     11 C8         -1.4143   -0.7588    4.8879 C.ar      1 <0>        -0.1239
     12 C9         -2.0907   -1.1048    6.0231 C.ar      1 <0>        -0.0694
     13 C10        -3.3931   -1.6092    5.9332 C.ar      1 <0>        -0.1413
     14 C11        -3.9975   -1.7572    4.6795 C.ar      1 <0>        -0.0689
     15 C12        -3.3168   -1.4041    3.5491 C.ar      1 <0>        -0.1596
     16 C13        -4.1251   -1.9836    7.1538 C.2       1 <0>         0.5195
     17 O1         -3.5951   -1.8540    8.2489 O.co2     1 <0>        -0.6882
     18 O2         -5.2635   -2.4244    7.0735 O.co2     1 <0>        -0.6898
     19 C14         2.6343   -2.4865    4.3356 C.ar      1 <0>        -0.0477
     20 C15         1.8991   -2.9475    5.4263 C.ar      1 <0>        -0.0655
     21 C16         2.5289   -3.6542    6.4305 C.ar      1 <0>        -0.1292
     22 C17         3.8872   -3.9049    6.3563 C.ar      1 <0>        -0.1009
     23 C18         4.6219   -3.4499    5.2762 C.ar      1 <0>        -0.1371
     24 C19         4.0014   -2.7475    4.2631 C.ar      1 <0>        -0.0718
     25 C20         2.9423   -0.1436    0.0698 C.3       1 <0>        -0.1045
     26 H1          1.1743    2.2368    0.5899 H         1 <0>         0.0567
     27 H2         -0.3530    2.4767   -0.2921 H         1 <0>         0.0601
     28 H3         -0.3794    2.1047    1.4483 H         1 <0>         0.0551
     29 H4         -0.9533    0.1032    0.1017 H         1 <0>         0.0655
     30 H5          0.6004    0.2353   -0.7567 H         1 <0>         0.0799
     31 H6         -1.7962   -0.1306    1.7525 H         1 <0>         0.4152
     32 H7         -0.4091   -0.3698    4.9564 H         1 <0>         0.1189
     33 H8         -1.6209   -0.9895    6.9887 H         1 <0>         0.1278
     34 H9         -5.0024   -2.1461    4.6063 H         1 <0>         0.1288
     35 H10        -3.7840   -1.5141    2.5817 H         1 <0>         0.1138
     36 H11         0.8386   -2.7516    5.4856 H         1 <0>         0.1404
     37 H12         1.9602   -4.0119    7.2762 H         1 <0>         0.1294
     38 H13         4.3761   -4.4578    7.1448 H         1 <0>         0.1228
     39 H14         5.6822   -3.6482    5.2236 H         1 <0>         0.1241
     40 H15         4.5751   -2.3968    3.4179 H         1 <0>         0.1343
     41 H16         3.3356    0.8500    0.2848 H         1 <0>         0.0828
     42 H17         3.7695   -0.8339   -0.0954 H         1 <0>         0.0800
     43 H18         2.3196   -0.1022   -0.8238 H         1 <0>         0.0803
@<TRIPOS>BOND
     1    1    2 1
     2    1   26 1
     3    1   27 1
     4    1   28 1
     5    2    3 1
     6    2   29 1
     7    2   30 1
     8    3    8 ar
     9    3    4 ar
    10    4    5 ar
    11    4   25 1
    12    5    6 ar
    13    6    7 ar
    14    6   19 1
    15    7    8 ar
    16    8    9 1
    17    9   10 1
    18    9   31 1
    19   10   15 ar
    20   10   11 ar
    21   11   12 ar
    22   11   32 1
    23   12   13 ar
    24   12   33 1
    25   13   14 ar
    26   13   16 1
    27   14   15 ar
    28   14   34 1
    29   15   35 1
    30   16   17 2
    31   16   18 1
    32   19   24 ar
    33   19   20 ar
    34   20   21 ar
    35   20   36 1
    36   21   22 ar
    37   21   37 1
    38   22   23 ar
    39   22   38 1
    40   23   24 ar
    41   23   39 1
    42   24   40 1
    43   25   41 1
    44   25   42 1
    45   25   43 1
@<TRIPOS>MOLECULE
ZINC36413737
   57    62     0     0     0
SMALL
USER_CHARGES

@<TRIPOS>ATOM
      1 C1         -0.0506    1.3595    0.0853 C.ar      1 <0>        -0.0995
      2 C2          1.1237    2.0847    0.0412 C.ar      1 <0>        -0.0970
      3 C3          2.3490    1.4241   -0.0245 C.ar      1 <0>        -0.0173
      4 C4          2.3853    0.0324   -0.0454 C.ar      1 <0>        -0.0701
      5 C5          1.2018   -0.6886   -0.0009 C.ar      1 <0>         0.0987
      6 C6         -0.0157   -0.0216    0.0645 C.ar      1 <0>        -0.1145
      7 N1          1.2332   -2.0881   -0.0222 N.pl3     1 <0>        -0.4212
      8 C7          0.5499   -2.7309   -0.9821 C.2       1 <0>         0.2615
      9 C8          0.5284   -4.1064   -1.0752 C.2       1 <0>        -0.3411
     10 C9          1.2814   -4.8959   -0.0868 C.2       1 <0>         0.4430
     11 O1          1.2960   -6.1138   -0.1242 O.2       1 <0>        -0.4838
     12 C10         2.0172   -4.1502    0.9494 C.ar      1 <0>        -0.2280
     13 C11         1.9685   -2.7452    0.9395 C.ar      1 <0>         0.3742
     14 N2          2.6300   -2.0595    1.8636 N.ar      1 <0>        -0.5025
     15 C12         3.3408   -2.6594    2.7950 C.ar      1 <0>         0.1745
     16 C13         3.4365   -4.0405    2.8596 C.ar      1 <0>        -0.2007
     17 C14         2.7598   -4.8103    1.9304 C.ar      1 <0>         0.0121
     18 C15        -0.2338   -4.7732   -2.1429 C.2       1 <0>         0.5935
     19 O2         -0.7632   -4.1122   -3.0160 O.2       1 <0>        -0.5539
     20 N3         -0.3453   -6.1163   -2.1533 N.am      1 <0>        -0.6925
     21 C16        -0.9982   -6.7884   -3.2794 C.3       1 <0>         0.0801
     22 C17        -1.9785   -7.9177   -2.9561 C.3       1 <0>        -0.1940
     23 C18        -0.6091   -8.2419   -3.5566 C.3       1 <0>        -0.1894
     24 C19         3.6119    2.2020   -0.0724 C.ar      1 <0>        -0.0439
     25 C20         4.8372    1.5420   -0.1439 C.ar      1 <0>        -0.1098
     26 C21         6.0094    2.2691   -0.1888 C.ar      1 <0>        -0.0949
     27 C22         5.9708    3.6513   -0.1630 C.ar      1 <0>        -0.0532
     28 C23         4.7563    4.3136   -0.0920 C.ar      1 <0>         0.1052
     29 C24         3.5762    3.5942   -0.0519 C.ar      1 <0>        -0.1373
     30 F1          4.7246    5.6640   -0.0666 F         1 <0>        -0.1314
     31 C25         7.2543    4.4395   -0.2118 C.3       1 <0>        -0.1195
     32 H1          7.1713    5.4486   -0.6155 H         1 <0>         0.1182
     33 C26         8.5459    3.6695   -0.4946 C.3       1 <0>        -0.1519
     34 C27         8.2681    4.2089    0.9108 C.3       1 <0>        -0.1838
     35 H2          8.0066    3.4871    1.6846 H         1 <0>         0.0941
     36 C28         9.0757    5.3942    1.3733 C.2       1 <0>         0.5163
     37 O3          9.3040    5.5503    2.5607 O.co2     1 <0>        -0.6931
     38 O4          9.5008    6.1970    0.5601 O.co2     1 <0>        -0.6914
     39 H3         -0.9989    1.8734    0.1407 H         1 <0>         0.1370
     40 H4          1.0926    3.1641    0.0573 H         1 <0>         0.1354
     41 H5          3.3325   -0.4840   -0.0966 H         1 <0>         0.1328
     42 H6         -0.9369   -0.5842    0.0995 H         1 <0>         0.1309
     43 H7         -0.0024   -2.1507   -1.7064 H         1 <0>         0.1876
     44 H8          3.8627   -2.0605    3.5267 H         1 <0>         0.1739
     45 H9          4.0260   -4.5110    3.6326 H         1 <0>         0.1511
     46 H10         2.8148   -5.8886    1.9553 H         1 <0>         0.1553
     47 H11         0.0067   -6.6379   -1.4151 H         1 <0>         0.4140
     48 H12        -1.2243   -6.1555   -4.1376 H         1 <0>         0.1369
     49 H13        -2.1376   -8.1607   -1.9055 H         1 <0>         0.0960
     50 H14        -2.8499   -8.0280   -3.6015 H         1 <0>         0.1020
     51 H15        -0.5796   -8.5654   -4.5971 H         1 <0>         0.1035
     52 H16         0.1327   -8.6981   -2.9010 H         1 <0>         0.0980
     53 H17         4.8695    0.4627   -0.1638 H         1 <0>         0.1266
     54 H18         6.9590    1.7575   -0.2438 H         1 <0>         0.1370
     55 H19         2.6290    4.1106   -0.0007 H         1 <0>         0.1374
     56 H20         8.4672    2.5929   -0.6454 H         1 <0>         0.0859
     57 H21         9.3127    4.1722   -1.0840 H         1 <0>         0.1030
@<TRIPOS>BOND
     1    1    6 ar
     2    1    2 ar
     3    1   39 1
     4    2    3 ar
     5    2   40 1
     6    3    4 ar
     7    3   24 1
     8    4    5 ar
     9    4   41 1
    10    5    6 ar
    11    5    7 1
    12    6   42 1
    13    7   13 1
    14    7    8 1
    15    8    9 2
    16    8   43 1
    17    9   10 1
    18    9   18 1
    19   10   11 2
    20   10   12 1
    21   12   17 ar
    22   12   13 ar
    23   13   14 ar
    24   14   15 ar
    25   15   16 ar
    26   15   44 1
    27   16   17 ar
    28   16   45 1
    29   17   46 1
    30   18   19 2
    31   18   20 am
    32   20   21 1
    33   20   47 1
    34   21   23 1
    35   21   22 1
    36   21   48 1
    37   22   23 1
    38   22   49 1
    39   22   50 1
    40   23   51 1
    41   23   52 1
    42   24   29 ar
    43   24   25 ar
    44   25   26 ar
    45   25   53 1
    46   26   27 ar
    47   26   54 1
    48   27   28 ar
    49   27   31 1
    50   28   29 ar
    51   28   30 1
    52   29   55 1
    53   31   32 1
    54   31   34 1
    55   31   33 1
    56   33   34 1
    57   33   56 1
    58   33   57 1
    59   34   35 1
    60   34   36 1
    61   36   37 2
    62   36   38 1
@<TRIPOS>MOLECULE
ZINC01491100
   62    66     0     0     0
SMALL
USER_CHARGES
chloro-[4-(4-methylpiperazin-1-yl)carbonylphenyl]-BLAHone
@<TRIPOS>ATOM
      1 C1         -3.8501    0.9594   -2.4507 C.3       1 <0>        -0.0422
      2 C2         -1.8710    0.2838   -1.2304 C.3       1 <0>        -0.0149
      3 C3         -0.8071    0.7741   -0.2425 C.3       1 <0>         0.0864
      4 N1         -1.4732    1.1789    1.0048 N.am      1 <0>        -0.6312
      5 C4         -2.6133    2.1048    0.9152 C.3       1 <0>         0.0732
      6 C5         -3.6061    1.5621   -0.1183 C.3       1 <0>        -0.0172
      7 C6         -1.0535    0.7103    2.1967 C.2       1 <0>         0.5741
      8 O1         -0.1824   -0.1364    2.2444 O.2       1 <0>        -0.5022
      9 C7         -1.6517    1.2254    3.4447 C.ar      1 <0>        -0.1508
     10 C8         -1.9516    2.5848    3.5672 C.ar      1 <0>        -0.0895
     11 C9         -2.5140    3.0629    4.7288 C.ar      1 <0>        -0.1183
     12 C10        -2.7749    2.1926    5.7880 C.ar      1 <0>         0.0068
     13 C11        -2.4704    0.8359    5.6688 C.ar      1 <0>        -0.1145
     14 C12        -1.9129    0.3549    4.5061 C.ar      1 <0>        -0.0504
     15 C13        -3.3753    2.7095    7.0404 C.ar      1 <0>        -0.0824
     16 C14        -3.6811    4.0669    7.1626 C.ar      1 <0>        -0.0415
     17 C15        -4.2374    4.5359    8.3266 C.ar      1 <0>        -0.1154
     18 C16        -4.4998    3.6731    9.3888 C.ar      1 <0>         0.2038
     19 C17        -4.1956    2.3215    9.2674 C.ar      1 <0>        -0.0811
     20 C18        -3.6420    1.8412    8.0987 C.ar      1 <0>        -0.0497
     21 Cl1        -4.5187    1.2375   10.5843 Cl        1 <0>        -0.0433
     22 N2         -5.0633    4.1725   10.5623 N.am      1 <0>        -0.6591
     23 C19        -5.3740    5.4636   10.7340 C.2       1 <0>         0.7078
     24 O2         -5.8606    5.8073   11.7939 O.2       1 <0>        -0.5633
     25 N3         -5.1717    6.3987    9.7864 N.am      1 <0>        -0.7095
     26 C20        -4.5840    5.9939    8.5017 C.3       1 <0>         0.2104
     27 C21        -5.5676    6.3754    7.3998 C.3       1 <0>        -0.1240
     28 C22        -5.9090    7.8630    7.5026 C.3       1 <0>        -0.1246
     29 C23        -4.6338    8.6909    7.3267 C.3       1 <0>        -0.1229
     30 C24        -3.6233    8.2993    8.4073 C.3       1 <0>        -0.1250
     31 C25        -3.3100    6.8060    8.2939 C.3       1 <0>        -0.1255
     32 H1         -4.3346    0.0145   -2.2046 H         1 <0>         0.1236
     33 H2         -4.6042    1.7409   -2.5440 H         1 <0>         0.1241
     34 H3         -3.3135    0.8578   -3.3939 H         1 <0>         0.1242
     35 H4         -1.4066    0.0861   -2.1965 H         1 <0>         0.1435
     36 H5         -2.3252   -0.6316   -0.8511 H         1 <0>         0.1354
     37 H6         -0.1007   -0.0300   -0.0361 H         1 <0>         0.1373
     38 H7         -0.2774    1.6265   -0.6680 H         1 <0>         0.0970
     39 H8         -2.2596    3.0872    0.6024 H         1 <0>         0.0987
     40 H9         -3.1021    2.1838    1.8862 H         1 <0>         0.1396
     41 H10        -4.4001    2.2915   -0.2779 H         1 <0>         0.1439
     42 H11        -4.0369    0.6292    0.2455 H         1 <0>         0.1357
     43 H12        -1.7457    3.2592    2.7492 H         1 <0>         0.1319
     44 H13        -2.7494    4.1128    4.8222 H         1 <0>         0.1370
     45 H14        -2.6721    0.1633    6.4894 H         1 <0>         0.1392
     46 H15        -1.6770   -0.6951    4.4142 H         1 <0>         0.1376
     47 H16        -3.4806    4.7441    6.3456 H         1 <0>         0.1430
     48 H17        -3.4105    0.7905    8.0046 H         1 <0>         0.1466
     49 H18        -5.2390    3.5548   11.2892 H         1 <0>         0.4278
     50 H19        -5.4097    7.3249    9.9493 H         1 <0>         0.4320
     51 H20        -5.1187    6.1729    6.4274 H         1 <0>         0.0770
     52 H21        -6.4784    5.7863    7.5072 H         1 <0>         0.0700
     53 H22        -6.3444    8.0693    8.4804 H         1 <0>         0.0650
     54 H23        -6.6240    8.1266    6.7232 H         1 <0>         0.0722
     55 H24        -4.8724    9.7505    7.4186 H         1 <0>         0.0691
     56 H25        -4.2074    8.4975    6.3424 H         1 <0>         0.0654
     57 H26        -4.0434    8.5088    9.3909 H         1 <0>         0.0649
     58 H27        -2.7069    8.8741    8.2733 H         1 <0>         0.0732
     59 H28        -2.5771    6.5309    9.0525 H         1 <0>         0.0710
     60 H29        -2.9037    6.5960    7.3045 H         1 <0>         0.0778
     61 N4         -2.8908    1.3425   -1.3942 N.4       1 <0>        -0.3973
     62 H30        -2.4238    2.2149   -1.6683 H         1 <0>         0.4298
@<TRIPOS>BOND
     1    1   32 1
     2    1   33 1
     3    1   34 1
     4    1   61 1
     5    2    3 1
     6    2   35 1
     7    2   36 1
     8    2   61 1
     9    3    4 1
    10    3   37 1
    11    3   38 1
    12    4    5 1
    13    4    7 am
    14    5    6 1
    15    5   39 1
    16    5   40 1
    17    6   41 1
    18    6   42 1
    19    6   61 1
    20    7    8 2
    21    7    9 1
    22    9   14 ar
    23    9   10 ar
    24   10   11 ar
    25   10   43 1
    26   11   12 ar
    27   11   44 1
    28   12   13 ar
    29   12   15 1
    30   13   14 ar
    31   13   45 1
    32   14   46 1
    33   15   20 ar
    34   15   16 ar
    35   16   17 ar
    36   16   47 1
    37   17   26 1
    38   17   18 ar
    39   18   19 ar
    40   18   22 1
    41   19   20 ar
    42   19   21 1
    43   20   48 1
    44   22   23 am
    45   22   49 1
    46   23   24 2
    47   23   25 am
    48   25   26 1
    49   25   50 1
    50   26   31 1
    51   26   27 1
    52   27   28 1
    53   27   51 1
    54   27   52 1
    55   28   29 1
    56   28   53 1
    57   28   54 1
    58   29   30 1
    59   29   55 1
    60   29   56 1
    61   30   31 1
    62   30   57 1
    63   30   58 1
    64   31   59 1
    65   31   60 1
    66   61   62 1
@<TRIPOS>MOLECULE
ZINC08379230
   44    47     0     0     0
SMALL
USER_CHARGES
4-(chloro-oxo-BLAHyl)benzoic acid
@<TRIPOS>ATOM
      1 C1          4.5946    5.7153    0.0151 C.ar      1 <0>        -0.1215
      2 C2          5.7109    6.5200    0.0077 C.ar      1 <0>        -0.0769
      3 C3          5.5695    7.9107    0.0196 C.ar      1 <0>        -0.1006
      4 C4          4.2938    8.4823    0.0330 C.ar      1 <0>        -0.0853
      5 C5          3.1790    7.6756    0.0346 C.ar      1 <0>        -0.1209
      6 C6          3.3215    6.2872    0.0228 C.ar      1 <0>        -0.0649
      7 C7          2.1202    5.4197    0.0246 C.ar      1 <0>        -0.0297
      8 C8          2.2595    4.0298    0.0122 C.ar      1 <0>        -0.0582
      9 C9          1.1407    3.2346    0.0131 C.ar      1 <0>        -0.1113
     10 C10        -0.1336    3.7983    0.0271 C.ar      1 <0>         0.1716
     11 C11        -0.2728    5.1820    0.0392 C.ar      1 <0>        -0.0704
     12 C12         0.8466    5.9881    0.0380 C.ar      1 <0>        -0.0689
     13 Cl1        -1.8556    5.8950    0.0552 Cl        1 <0>        -0.0606
     14 N1         -1.2557    2.9709    0.0300 N.am      1 <0>        -0.6597
     15 C13        -1.1803    1.6340    0.0164 C.2       1 <0>         0.7101
     16 O1         -2.2143    0.9944    0.0174 O.2       1 <0>        -0.5819
     17 N2         -0.0111    0.9658    0.0074 N.am      1 <0>        -0.7102
     18 C14         1.2446    1.7295   -0.0005 C.3       1 <0>         0.2134
     19 C15         2.0262    1.3264   -1.2470 C.3       1 <0>        -0.1279
     20 C16         2.2018   -0.1931   -1.2785 C.3       1 <0>        -0.1215
     21 C17         2.9877   -0.6398   -0.0436 C.3       1 <0>        -0.1240
     22 C18         2.2334   -0.2153    1.2184 C.3       1 <0>        -0.1216
     23 C19         2.0565    1.3045    1.2186 C.3       1 <0>        -0.1275
     24 C20         6.7656    8.7745    0.0183 C.2       1 <0>         0.4856
     25 O2          6.6420    9.9831    0.0290 O.co2     1 <0>        -0.6288
     26 H1          4.7037    4.6408    0.0105 H         1 <0>         0.1192
     27 H2          6.6959    6.0772   -0.0027 H         1 <0>         0.1342
     28 H3          4.1832    9.5566    0.0425 H         1 <0>         0.1304
     29 H4          2.1933    8.1169    0.0454 H         1 <0>         0.1198
     30 H5          3.2427    3.5830    0.0017 H         1 <0>         0.1435
     31 H6          0.7365    7.0624    0.0471 H         1 <0>         0.1457
     32 H7         -2.1335    3.3836    0.0386 H         1 <0>         0.4233
     33 H8          0.0021   -0.0041    0.0020 H         1 <0>         0.4277
     34 H9          1.4820    1.6469   -2.1355 H         1 <0>         0.0694
     35 H10         3.0057    1.8043   -1.2310 H         1 <0>         0.0822
     36 H11         2.7467   -0.4775   -2.1787 H         1 <0>         0.0703
     37 H12         1.2228   -0.6723   -1.2793 H         1 <0>         0.0611
     38 H13         3.9734   -0.1746   -0.0519 H         1 <0>         0.0686
     39 H14         3.0969   -1.7242   -0.0546 H         1 <0>         0.0650
     40 H15         2.8009   -0.5152    2.0993 H         1 <0>         0.0704
     41 H16         1.2548   -0.6951    1.2357 H         1 <0>         0.0611
     42 H17         3.0352    1.7833    1.1872 H         1 <0>         0.0823
     43 H18         1.5337    1.6075    2.1258 H         1 <0>         0.0696
     44 O3          7.9949    8.2230    0.0053 O.co2     1 <0>        -0.7520
@<TRIPOS>BOND
     1    1    6 ar
     2    1    2 ar
     3    1   26 1
     4    2    3 ar
     5    2   27 1
     6    3    4 ar
     7    3   24 1
     8    4    5 ar
     9    4   28 1
    10    5    6 ar
    11    5   29 1
    12    6    7 1
    13    7   12 ar
    14    7    8 ar
    15    8    9 ar
    16    8   30 1
    17    9   18 1
    18    9   10 ar
    19   10   11 ar
    20   10   14 1
    21   11   12 ar
    22   11   13 1
    23   12   31 1
    24   14   15 am
    25   14   32 1
    26   15   16 2
    27   15   17 am
    28   17   18 1
    29   17   33 1
    30   18   23 1
    31   18   19 1
    32   19   20 1
    33   19   34 1
    34   19   35 1
    35   20   21 1
    36   20   36 1
    37   20   37 1
    38   21   22 1
    39   21   38 1
    40   21   39 1
    41   22   23 1
    42   22   40 1
    43   22   41 1
    44   23   42 1
    45   23   43 1
    46   24   25 2
    47   24   44 1
@<TRIPOS>MOLECULE
ZINC02011307
   42    43     0     0     0
SMALL
USER_CHARGES

@<TRIPOS>ATOM
      1 C1         -0.0187    1.5258    0.0104 C.3       1 <0>        -0.1523
      2 C2          0.0021   -0.0041    0.0020 C.3       1 <0>        -0.1222
      3 C3          0.7421   -0.5109    1.2415 C.3       1 <0>        -0.1187
      4 C4          0.7628   -2.0407    1.2331 C.3       1 <0>         0.0576
      5 O1          1.4540   -2.5141    2.3908 O.3       1 <0>        -0.3034
      6 C5          1.5628   -3.8618    2.5369 C.ar      1 <0>         0.1077
      7 C6          1.0214   -4.7095    1.5838 C.ar      1 <0>        -0.1714
      8 C7          1.1333   -6.0792    1.7336 C.ar      1 <0>        -0.0845
      9 C8          1.7844   -6.6065    2.8332 C.ar      1 <0>        -0.1117
     10 C9          2.3264   -5.7664    3.7880 C.ar      1 <0>        -0.1694
     11 C10         2.2232   -4.3925    3.6408 C.ar      1 <0>         0.0981
     12 O2          2.7611   -3.5646    4.5760 O.3       1 <0>        -0.3062
     13 C11         3.4243   -4.1796    5.6824 C.3       1 <0>         0.0259
     14 C12         0.5438   -6.9996    0.6960 C.3       1 <0>        -0.0867
     15 C13         1.5898   -7.2888   -0.3825 C.3       1 <0>         0.1255
     16 H1          2.5060   -7.6712    0.0674 H         1 <0>         0.0953
     17 C14         1.0375   -8.2880   -1.4175 C.3       1 <0>         0.0940
     18 N1          1.0600   -7.5354   -2.6807 N.am      1 <0>        -0.7411
     19 C15         1.5385   -6.3054   -2.4516 C.2       1 <0>         0.6991
     20 O3          1.6654   -5.4699   -3.3258 O.2       1 <0>        -0.5877
     21 N2          1.8676   -6.0783   -1.1699 N.am      1 <0>        -0.7347
     22 H2          1.0039    1.9031    0.0027 H         1 <0>         0.0563
     23 H3         -0.5459    1.8868   -0.8726 H         1 <0>         0.0577
     24 H4         -0.5289    1.8773    0.9072 H         1 <0>         0.0558
     25 H5         -1.0205   -0.3814    0.0098 H         1 <0>         0.0644
     26 H6          0.5123   -0.3556   -0.8948 H         1 <0>         0.0658
     27 H7          1.7647   -0.1336    1.2338 H         1 <0>         0.0747
     28 H8          0.2319   -0.1594    2.1383 H         1 <0>         0.0741
     29 H9         -0.2598   -2.4180    1.2409 H         1 <0>         0.0610
     30 H10         1.2730   -2.3923    0.3363 H         1 <0>         0.0617
     31 H11         0.5116   -4.3001    0.7242 H         1 <0>         0.1340
     32 H12         1.8695   -7.6772    2.9469 H         1 <0>         0.1288
     33 H13         2.8343   -6.1809    4.6463 H         1 <0>         0.1361
     34 H14         2.7199   -4.8126    6.2220 H         1 <0>         0.0552
     35 H15         4.2527   -4.7868    5.3175 H         1 <0>         0.0552
     36 H16         3.8061   -3.4084    6.3515 H         1 <0>         0.1013
     37 H17         0.2416   -7.9340    1.1689 H         1 <0>         0.0927
     38 H18        -0.3255   -6.5248    0.2410 H         1 <0>         0.0808
     39 H19         1.6809   -9.1654   -1.4834 H         1 <0>         0.0859
     40 H20         0.0181   -8.5781   -1.1631 H         1 <0>         0.0863
     41 H21         0.7738   -7.8755   -3.5428 H         1 <0>         0.4308
     42 H22         2.2294   -5.2499   -0.8183 H         1 <0>         0.4284
@<TRIPOS>BOND
     1    1    2 1
     2    1   22 1
     3    1   23 1
     4    1   24 1
     5    2    3 1
     6    2   25 1
     7    2   26 1
     8    3    4 1
     9    3   27 1
    10    3   28 1
    11    4    5 1
    12    4   29 1
    13    4   30 1
    14    5    6 1
    15    6   11 ar
    16    6    7 ar
    17    7    8 ar
    18    7   31 1
    19    8    9 ar
    20    8   14 1
    21    9   10 ar
    22    9   32 1
    23   10   11 ar
    24   10   33 1
    25   11   12 1
    26   12   13 1
    27   13   34 1
    28   13   35 1
    29   13   36 1
    30   14   15 1
    31   14   37 1
    32   14   38 1
    33   15   16 1
    34   15   21 1
    35   15   17 1
    36   17   18 1
    37   17   39 1
    38   17   40 1
    39   18   19 am
    40   18   41 1
    41   19   20 2
    42   19   21 am
    43   21   42 1
@<TRIPOS>MOLECULE
ZINC02011308
   42    43     0     0     0
SMALL
USER_CHARGES

@<TRIPOS>ATOM
      1 C1         -0.0187    1.5258    0.0104 C.3       1 <0>        -0.1533
      2 C2          0.0021   -0.0041    0.0020 C.3       1 <0>        -0.1209
      3 C3          0.7421   -0.5109    1.2415 C.3       1 <0>        -0.1201
      4 C4          0.7628   -2.0407    1.2331 C.3       1 <0>         0.0581
      5 O1          1.4540   -2.5141    2.3908 O.3       1 <0>        -0.3039
      6 C5          1.5628   -3.8618    2.5369 C.ar      1 <0>         0.1068
      7 C6          1.0214   -4.7095    1.5838 C.ar      1 <0>        -0.1689
      8 C7          1.1333   -6.0792    1.7336 C.ar      1 <0>        -0.0844
      9 C8          1.7844   -6.6065    2.8332 C.ar      1 <0>        -0.1134
     10 C9          2.3264   -5.7664    3.7880 C.ar      1 <0>        -0.1688
     11 C10         2.2232   -4.3925    3.6408 C.ar      1 <0>         0.0987
     12 O2          2.7611   -3.5646    4.5760 O.3       1 <0>        -0.3063
     13 C11         3.4243   -4.1796    5.6824 C.3       1 <0>         0.0255
     14 C12         0.5438   -6.9996    0.6960 C.3       1 <0>        -0.0867
     15 C13         1.5898   -7.2888   -0.3825 C.3       1 <0>         0.1257
     16 H1          1.9777   -6.3583   -0.7971 H         1 <0>         0.0938
     17 C14         0.9894   -8.1684   -1.4963 C.3       1 <0>         0.0940
     18 N1          1.8065   -9.3904   -1.4592 N.am      1 <0>        -0.7412
     19 C15         2.7323   -9.2718   -0.4984 C.2       1 <0>         0.6992
     20 O3          3.5452  -10.1412   -0.2500 O.2       1 <0>        -0.5877
     21 N2          2.6834   -8.1055    0.1649 N.am      1 <0>        -0.7339
     22 H2          1.0039    1.9031    0.0027 H         1 <0>         0.0562
     23 H3         -0.5459    1.8868   -0.8726 H         1 <0>         0.0576
     24 H4         -0.5289    1.8773    0.9072 H         1 <0>         0.0562
     25 H5         -1.0205   -0.3814    0.0098 H         1 <0>         0.0647
     26 H6          0.5123   -0.3556   -0.8948 H         1 <0>         0.0646
     27 H7          1.7647   -0.1336    1.2338 H         1 <0>         0.0744
     28 H8          0.2319   -0.1594    2.1383 H         1 <0>         0.0744
     29 H9         -0.2598   -2.4180    1.2409 H         1 <0>         0.0615
     30 H10         1.2730   -2.3923    0.3363 H         1 <0>         0.0612
     31 H11         0.5116   -4.3001    0.7242 H         1 <0>         0.1356
     32 H12         1.8695   -7.6772    2.9469 H         1 <0>         0.1270
     33 H13         2.8343   -6.1809    4.6463 H         1 <0>         0.1363
     34 H14         2.7199   -4.8126    6.2220 H         1 <0>         0.0553
     35 H15         4.2527   -4.7868    5.3175 H         1 <0>         0.0556
     36 H16         3.8061   -3.4084    6.3515 H         1 <0>         0.1016
     37 H17         0.2416   -7.9340    1.1689 H         1 <0>         0.0833
     38 H18        -0.3255   -6.5248    0.2410 H         1 <0>         0.0902
     39 H19        -0.0539   -8.3992   -1.2810 H         1 <0>         0.0862
     40 H20         1.0814   -7.6759   -2.4643 H         1 <0>         0.0854
     41 H21         1.6932  -10.1602   -2.0384 H         1 <0>         0.4308
     42 H22         3.2729   -7.8428    0.8890 H         1 <0>         0.4296
@<TRIPOS>BOND
     1    1    2 1
     2    1   22 1
     3    1   23 1
     4    1   24 1
     5    2    3 1
     6    2   25 1
     7    2   26 1
     8    3    4 1
     9    3   27 1
    10    3   28 1
    11    4    5 1
    12    4   29 1
    13    4   30 1
    14    5    6 1
    15    6   11 ar
    16    6    7 ar
    17    7    8 ar
    18    7   31 1
    19    8    9 ar
    20    8   14 1
    21    9   10 ar
    22    9   32 1
    23   10   11 ar
    24   10   33 1
    25   11   12 1
    26   12   13 1
    27   13   34 1
    28   13   35 1
    29   13   36 1
    30   14   15 1
    31   14   37 1
    32   14   38 1
    33   15   16 1
    34   15   21 1
    35   15   17 1
    36   17   18 1
    37   17   39 1
    38   17   40 1
    39   18   19 am
    40   18   41 1
    41   19   20 2
    42   19   21 am
    43   21   42 1
@<TRIPOS>MOLECULE
ZINC09224016
   25    26     0     0     0
SMALL
USER_CHARGES

@<TRIPOS>ATOM
      1 C1         -0.0184    1.5028    0.0103 C.3       1 <0>        -0.1391
      2 C2          0.0021   -0.0041    0.0020 C.2       1 <0>         0.2276
      3 C3         -1.1906   -0.6918    0.0041 C.2       1 <0>        -0.1838
      4 C4         -1.1990   -2.0975   -0.0031 C.2       1 <0>         0.0727
      5 C5          0.0161   -2.7742   -0.0126 C.2       1 <0>        -0.1606
      6 C6          1.2525   -1.9900   -0.0149 C.2       1 <0>         0.5412
      7 N1          1.1865   -0.6449   -0.0127 N.am      1 <0>        -0.5906
      8 O1          2.3345   -2.5509   -0.0232 O.2       1 <0>        -0.5158
      9 C7          0.0570   -4.2056   -0.0197 C.1       1 <0>         0.2716
     10 N2          0.0895   -5.3411   -0.0253 N.1       1 <0>        -0.4064
     11 C8         -2.4728    0.0540    0.0144 C.ar      1 <0>         0.0158
     12 C9         -2.8306    0.8519    1.1050 C.ar      1 <0>        -0.1625
     13 C10        -4.0319    1.5289    1.0733 C.ar      1 <0>         0.1042
     14 N3         -4.8375    1.4306    0.0329 N.ar      1 <0>        -0.4835
     15 C11        -4.5375    0.6886   -1.0161 C.ar      1 <0>         0.1054
     16 C12        -3.3536   -0.0172   -1.0689 C.ar      1 <0>        -0.1591
     17 H1          1.0042    1.8801    0.0026 H         1 <0>         0.0841
     18 H2         -0.5455    1.8639   -0.8728 H         1 <0>         0.1024
     19 H3         -0.5286    1.8543    0.9071 H         1 <0>         0.1042
     20 H4         -2.1318   -2.6419   -0.0008 H         1 <0>         0.1516
     21 H5         -2.1762    0.9367    1.9600 H         1 <0>         0.1377
     22 H6         -4.3172    2.1475    1.9114 H         1 <0>         0.1588
     23 H7         -5.2263    0.6366   -1.8464 H         1 <0>         0.1591
     24 H8         -3.1125   -0.6192   -1.9325 H         1 <0>         0.1389
     25 H9          2.0073   -0.1280   -0.0178 H         1 <0>         0.4261
@<TRIPOS>BOND
     1    1    2 1
     2    1   17 1
     3    1   18 1
     4    1   19 1
     5    2    7 1
     6    2    3 2
     7    3    4 1
     8    3   11 1
     9    4    5 2
    10    4   20 1
    11    5    6 1
    12    5    9 1
    13    6    7 am
    14    6    8 2
    15    7   25 1
    16    9   10 3
    17   11   16 ar
    18   11   12 ar
    19   12   13 ar
    20   12   21 1
    21   13   14 ar
    22   13   22 1
    23   14   15 ar
    24   15   16 ar
    25   15   23 1
    26   16   24 1
@<TRIPOS>MOLECULE
ZINC19796168
   63    66     0     0     0
SMALL
USER_CHARGES

@<TRIPOS>ATOM
      1 C1         -0.0187    1.5258    0.0104 C.3       1 <0>        -0.1516
      2 C2          0.0021   -0.0041    0.0020 C.3       1 <0>        -0.1160
      3 C3          0.7182   -0.4975   -1.2568 C.3       1 <0>        -0.0368
      4 C4          0.7386   -2.0043   -1.2651 C.2       1 <0>         0.1083
      5 C5          1.7436   -2.8145   -0.7017 C.2       1 <0>         0.0436
      6 C6          1.3716   -4.1454   -0.9309 C.2       1 <0>        -0.0357
      7 C7          2.2155   -5.1793   -0.4631 C.2       1 <0>         0.5719
      8 O1          1.9272   -6.3498   -0.6430 O.2       1 <0>        -0.5217
      9 N1          3.3497   -4.8379    0.1877 N.am      1 <0>        -0.6330
     10 H1          3.9439   -5.5300    0.5176 H         1 <0>         0.4219
     11 C8          3.6639   -3.5203    0.3833 C.2       1 <0>         0.3994
     12 N2          2.8908   -2.5515   -0.0437 N.2       1 <0>        -0.4298
     13 C9          4.9101   -3.1798    1.0980 C.ar      1 <0>        -0.1126
     14 C10         5.7536   -4.1922    1.5597 C.ar      1 <0>         0.0399
     15 C11         6.9158   -3.8678    2.2265 C.ar      1 <0>        -0.7185
     16 C12         7.2508   -2.5412    2.4411 C.ar      1 <0>         0.0430
     17 C13         6.4250   -1.5305    1.9894 C.ar      1 <0>        -0.2315
     18 C14         5.2556   -1.8391    1.3116 C.ar      1 <0>         0.2415
     19 O2          4.4461   -0.8467    0.8623 O.3       1 <0>        -0.2578
     20 C15         4.8632    0.4961    1.1168 C.3       1 <0>         0.0414
     21 C16         3.8319    1.4685    0.5407 C.3       1 <0>        -0.1519
     22 S1          7.9793   -5.1464    2.8085 S.o2      1 <0>         2.6926
     23 O3          8.7312   -4.5930    3.8798 O.2       1 <0>        -0.9482
     24 O4          7.1730   -6.3063    2.9631 O.2       1 <0>        -0.9501
     25 N3          9.0568   -5.4772    1.5953 N.pl3     1 <0>        -0.9979
     26 C17         8.7556   -6.4921    0.5742 C.3       1 <0>         0.1239
     27 C18         8.9742   -5.8704   -0.8093 C.3       1 <0>         0.0382
     28 N4         10.3268   -5.3015   -0.8788 N.3       1 <0>        -0.5395
     29 C19        10.4964   -4.2104    0.0900 C.3       1 <0>         0.0386
     30 C20        10.3376   -4.7598    1.5068 C.3       1 <0>         0.1243
     31 C21        10.6381   -4.8489   -2.2412 C.3       1 <0>         0.0245
     32 N5          0.1842   -4.1164   -1.6082 N.pl3     1 <0>        -0.3299
     33 N6         -0.1751   -2.7746   -1.7907 N.2       1 <0>        -0.2328
     34 C22        -0.5794   -5.2824   -2.0596 C.3       1 <0>         0.0994
     35 H2          1.0039    1.9031    0.0027 H         1 <0>         0.0577
     36 H3         -0.5459    1.8868   -0.8726 H         1 <0>         0.0559
     37 H4         -0.5289    1.8773    0.9072 H         1 <0>         0.0565
     38 H5          0.5293   -0.3651    0.8851 H         1 <0>         0.0665
     39 H6         -1.0205   -0.3814    0.0098 H         1 <0>         0.0628
     40 H7          0.1910   -0.1364   -2.1398 H         1 <0>         0.0831
     41 H8          1.7408   -0.1202   -1.2645 H         1 <0>         0.0935
     42 H9          5.4957   -5.2279    1.3950 H         1 <0>         0.1438
     43 H10         8.1628   -2.2958    2.9650 H         1 <0>         0.1492
     44 H11         6.6926   -0.4983    2.1608 H         1 <0>         0.1488
     45 H12         4.9489    0.6524    2.1922 H         1 <0>         0.0678
     46 H13         5.8306    0.6715    0.6460 H         1 <0>         0.0666
     47 H14         3.7463    1.3123   -0.5346 H         1 <0>         0.0692
     48 H15         2.8646    1.2931    1.0115 H         1 <0>         0.0720
     49 H16         4.1502    2.4927    0.7349 H         1 <0>         0.0796
     50 H17         9.4199   -7.3470    0.7005 H         1 <0>         0.0879
     51 H18         7.7185   -6.8131    0.6717 H         1 <0>         0.0935
     52 H19         8.8627   -6.6382   -1.5748 H         1 <0>         0.0901
     53 H20         8.2393   -5.0824   -0.9741 H         1 <0>         0.0394
     54 H21        11.4890   -3.7744   -0.0233 H         1 <0>         0.0905
     55 H22         9.7403   -3.4456   -0.0874 H         1 <0>         0.0393
     56 H23        10.3460   -3.9360    2.2206 H         1 <0>         0.0948
     57 H24        11.1569   -5.4449    1.7245 H         1 <0>         0.0867
     58 H25         9.9216   -4.0848   -2.5429 H         1 <0>         0.0257
     59 H26        11.6450   -4.4322   -2.2645 H         1 <0>         0.0713
     60 H27        10.5786   -5.6939   -2.9273 H         1 <0>         0.0713
     61 H28        -1.2781   -5.5834   -1.2791 H         1 <0>         0.0824
     62 H29        -1.1323   -5.0268   -2.9634 H         1 <0>         0.0965
     63 H30         0.1042   -6.1043   -2.2721 H         1 <0>         0.1003
@<TRIPOS>BOND
     1    1    2 1
     2    1   35 1
     3    1   36 1
     4    1   37 1
     5    2    3 1
     6    2   38 1
     7    2   39 1
     8    3    4 1
     9    3   40 1
    10    3   41 1
    11    4   33 2
    12    4    5 1
    13    5   12 1
    14    5    6 2
    15    6    7 1
    16    6   32 1
    17    7    8 2
    18    7    9 am
    19    9   10 1
    20    9   11 1
    21   11   12 2
    22   11   13 1
    23   13   18 ar
    24   13   14 ar
    25   14   15 ar
    26   14   42 1
    27   15   16 ar
    28   15   22 1
    29   16   17 ar
    30   16   43 1
    31   17   18 ar
    32   17   44 1
    33   18   19 1
    34   19   20 1
    35   20   21 1
    36   20   45 1
    37   20   46 1
    38   21   47 1
    39   21   48 1
    40   21   49 1
    41   22   23 2
    42   22   24 2
    43   22   25 1
    44   25   30 1
    45   25   26 1
    46   26   27 1
    47   26   50 1
    48   26   51 1
    49   27   28 1
    50   27   52 1
    51   27   53 1
    52   28   29 1
    53   28   31 1
    54   29   30 1
    55   29   54 1
    56   29   55 1
    57   30   56 1
    58   30   57 1
    59   31   58 1
    60   31   59 1
    61   31   60 1
    62   32   33 1
    63   32   34 1
    64   34   61 1
    65   34   62 1
    66   34   63 1
@<TRIPOS>MOLECULE
ZINC19796168
   63    66     0     0     0
SMALL
USER_CHARGES

@<TRIPOS>ATOM
      1 C1         -0.0187    1.5258    0.0104 C.3       1 <0>        -0.1539
      2 C2          0.0021   -0.0041    0.0020 C.3       1 <0>        -0.1188
      3 C3          0.7182   -0.4975   -1.2568 C.3       1 <0>        -0.0455
      4 C4          0.7386   -2.0043   -1.2651 C.2       1 <0>         0.0795
      5 C5          1.7371   -2.8090   -0.7054 C.2       1 <0>         0.0226
      6 C6          1.3740   -4.1350   -0.9304 C.2       1 <0>        -0.0270
      7 C7          2.2608   -5.1909   -0.4384 C.2       1 <0>         0.5560
      8 O1          1.9844   -6.3672   -0.6123 O.2       1 <0>        -0.4907
      9 N1          3.3842   -4.8398    0.2075 N.2       1 <0>        -0.5489
     10 C8          3.6977   -3.5767    0.4033 C.2       1 <0>         0.4949
     11 N2          2.9154   -2.5523   -0.0295 N.pl3     1 <0>        -0.5912
     12 C9          4.9471   -3.2598    1.1207 C.ar      1 <0>        -0.1387
     13 C10         5.3072   -1.9297    1.3507 C.ar      1 <0>         0.0502
     14 C11         6.4754   -1.6404    2.0219 C.ar      1 <0>        -0.7241
     15 C12         7.2958   -2.6630    2.4697 C.ar      1 <0>         0.0516
     16 C13         6.9520   -3.9820    2.2486 C.ar      1 <0>        -0.2347
     17 C14         5.7769   -4.2915    1.5805 C.ar      1 <0>         0.2542
     18 O2          5.4349   -5.5872    1.3679 O.3       1 <0>        -0.2513
     19 C15         6.3296   -6.5843    1.8652 C.3       1 <0>         0.0415
     20 C16         5.7806   -7.9733    1.5332 C.3       1 <0>        -0.1498
     21 S1          6.9282    0.0377    2.3112 S.o2      1 <0>         2.6935
     22 O3          8.3389    0.0542    2.4813 O.2       1 <0>        -0.9470
     23 O4          6.2716    0.8126    1.3174 O.2       1 <0>        -0.9501
     24 N3          6.2708    0.4783    3.7659 N.pl3     1 <0>        -0.9978
     25 C17         4.9211    1.0580    3.8397 C.3       1 <0>         0.1243
     26 C18         4.1139    0.2804    4.8848 C.3       1 <0>         0.0380
     27 N4          4.8523    0.2619    6.1546 N.3       1 <0>        -0.5392
     28 C19         6.1314   -0.4472    6.0169 C.3       1 <0>         0.0382
     29 C20         7.0189    0.2948    5.0189 C.3       1 <0>         0.1242
     30 C21         4.0386   -0.3238    7.2283 C.3       1 <0>         0.0243
     31 N5          0.1890   -4.1166   -1.6070 N.pl3     1 <0>        -0.3265
     32 N6         -0.1769   -2.7759   -1.7917 N.2       1 <0>        -0.2363
     33 C22        -0.5677   -5.2881   -2.0556 C.3       1 <0>         0.1018
     34 H1          1.0039    1.9031    0.0027 H         1 <0>         0.0587
     35 H2         -0.5459    1.8868   -0.8726 H         1 <0>         0.0584
     36 H3         -0.5289    1.8773    0.9072 H         1 <0>         0.0590
     37 H4          0.5293   -0.3651    0.8851 H         1 <0>         0.0617
     38 H5         -1.0205   -0.3814    0.0098 H         1 <0>         0.0685
     39 H6          0.1910   -0.1364   -2.1398 H         1 <0>         0.0924
     40 H7          1.7408   -0.1202   -1.2645 H         1 <0>         0.0851
     41 H8          4.6710   -1.1293    1.0027 H         1 <0>         0.1448
     42 H9          8.2097   -2.4272    2.9946 H         1 <0>         0.1511
     43 H10         7.5970   -4.7736    2.6002 H         1 <0>         0.1511
     44 H11         7.3075   -6.4595    1.4002 H         1 <0>         0.0690
     45 H12         6.4252   -6.4802    2.9460 H         1 <0>         0.0679
     46 H13         6.4630   -8.7339    1.9125 H         1 <0>         0.0796
     47 H14         4.8027   -8.0982    1.9981 H         1 <0>         0.0699
     48 H15         5.6850   -8.0774    0.4524 H         1 <0>         0.0705
     49 H16         4.9880    2.1054    4.1338 H         1 <0>         0.0882
     50 H17         4.4346    0.9780    2.8676 H         1 <0>         0.0929
     51 H18         3.1485    0.7644    5.0325 H         1 <0>         0.0901
     52 H19         3.9598   -0.7416    4.5387 H         1 <0>         0.0392
     53 H20         6.6291   -0.4910    6.9857 H         1 <0>         0.0908
     54 H21         5.9492   -1.4591    5.6551 H         1 <0>         0.0394
     55 H22         7.9186   -0.2894    4.8260 H         1 <0>         0.0949
     56 H23         7.2913    1.2675    5.4285 H         1 <0>         0.0873
     57 H24         3.7712   -1.3470    6.9645 H         1 <0>         0.0259
     58 H25         4.6091   -0.3253    8.1570 H         1 <0>         0.0715
     59 H26         3.1316    0.2663    7.3599 H         1 <0>         0.0715
     60 H27        -1.2651   -5.5910   -1.2745 H         1 <0>         0.0826
     61 H28        -1.1218   -5.0381   -2.9604 H         1 <0>         0.0959
     62 H29         0.1207   -6.1067   -2.2656 H         1 <0>         0.1018
     63 H30         3.1857   -1.6357    0.1370 H         1 <0>         0.4171
@<TRIPOS>BOND
     1    1    2 1
     2    1   34 1
     3    1   35 1
     4    1   36 1
     5    2    3 1
     6    2   37 1
     7    2   38 1
     8    3    4 1
     9    3   39 1
    10    3   40 1
    11    4   32 2
    12    4    5 1
    13    5   11 1
    14    5    6 2
    15    6    7 1
    16    6   31 1
    17    7    8 2
    18    7    9 1
    19    9   10 2
    20   10   11 1
    21   10   12 1
    22   11   63 1
    23   12   17 ar
    24   12   13 ar
    25   13   14 ar
    26   13   41 1
    27   14   15 ar
    28   14   21 1
    29   15   16 ar
    30   15   42 1
    31   16   17 ar
    32   16   43 1
    33   17   18 1
    34   18   19 1
    35   19   20 1
    36   19   44 1
    37   19   45 1
    38   20   46 1
    39   20   47 1
    40   20   48 1
    41   21   22 2
    42   21   23 2
    43   21   24 1
    44   24   29 1
    45   24   25 1
    46   25   26 1
    47   25   49 1
    48   25   50 1
    49   26   27 1
    50   26   51 1
    51   26   52 1
    52   27   28 1
    53   27   30 1
    54   28   29 1
    55   28   53 1
    56   28   54 1
    57   29   55 1
    58   29   56 1
    59   30   57 1
    60   30   58 1
    61   30   59 1
    62   31   32 1
    63   31   33 1
    64   33   60 1
    65   33   61 1
    66   33   62 1
@<TRIPOS>MOLECULE
ZINC19796168
   62    65     0     0     0
SMALL
USER_CHARGES

@<TRIPOS>ATOM
      1 C1         -0.0187    1.5258    0.0104 C.3       1 <0>        -0.1485
      2 C2          0.0021   -0.0041    0.0020 C.3       1 <0>        -0.1148
      3 C3         -1.4333   -0.5336    0.0129 C.3       1 <0>        -0.0265
      4 C4         -1.4129   -2.0405    0.0046 C.2       1 <0>         0.0755
      5 C5         -1.4070   -2.8569   -1.1475 C.ar      1 <0>         0.0668
      6 C6         -1.3869   -4.1920   -0.7014 C.ar      1 <0>        -0.0515
      7 C7         -1.3777   -5.2165   -1.6565 C.ar      1 <0>         0.4648
      8 O1         -1.3588   -6.5164   -1.2751 O.3       1 <0>        -0.6909
      9 N1         -1.3884   -4.8893   -2.9402 N.ar      1 <0>        -0.5725
     10 C8         -1.4074   -3.6162   -3.3266 C.ar      1 <0>         0.3612
     11 N2         -1.4163   -2.6161   -2.4630 N.ar      1 <0>        -0.5554
     12 C9         -1.4186   -3.3091   -4.7764 C.ar      1 <0>        -0.0636
     13 C10        -1.4328   -1.9850   -5.2116 C.ar      1 <0>         0.0543
     14 C11        -1.4432   -1.7045   -6.5622 C.ar      1 <0>        -0.7317
     15 C12        -1.4396   -2.7334   -7.4883 C.ar      1 <0>         0.0205
     16 C13        -1.4256   -4.0494   -7.0685 C.ar      1 <0>        -0.2451
     17 C14        -1.4092   -4.3463   -5.7145 C.ar      1 <0>         0.2216
     18 O2         -1.3897   -5.6394   -5.3005 O.3       1 <0>        -0.2427
     19 C15        -1.3811   -6.6454   -6.3153 C.3       1 <0>         0.0442
     20 C16        -1.3591   -8.0288   -5.6620 C.3       1 <0>        -0.1464
     21 S1         -1.4617   -0.0302   -7.1108 S.o2      1 <0>         2.6962
     22 O3         -2.0201   -0.0370   -8.4174 O.2       1 <0>        -0.9629
     23 O4         -2.0135    0.7385   -6.0505 O.2       1 <0>        -0.9522
     24 N3          0.1150    0.4496   -7.2724 N.pl3     1 <0>        -1.0004
     25 C17         0.8390    1.0557   -6.1447 C.3       1 <0>         0.1268
     26 C18         2.1670    0.3130   -5.9632 C.3       1 <0>         0.0372
     27 N4          2.8976    0.3041   -7.2376 N.3       1 <0>        -0.5398
     28 C19         2.1569   -0.4314   -8.2713 C.3       1 <0>         0.0376
     29 C20         0.8304    0.2753   -8.5456 C.3       1 <0>         0.1276
     30 C21         4.2487   -0.2463   -7.0660 C.3       1 <0>         0.0248
     31 N5         -1.3812   -4.1504    0.6672 N.pl3     1 <0>        -0.3678
     32 N6         -1.3920   -2.8055    1.0596 N.2       1 <0>        -0.2631
     33 C22        -1.3618   -5.3088    1.5638 C.3       1 <0>         0.1224
     34 H1          1.0039    1.9031    0.0027 H         1 <0>         0.0507
     35 H2         -0.5459    1.8868   -0.8726 H         1 <0>         0.0575
     36 H3         -0.5289    1.8773    0.9072 H         1 <0>         0.0512
     37 H4          0.5123   -0.3556   -0.8948 H         1 <0>         0.0656
     38 H5          0.5293   -0.3651    0.8851 H         1 <0>         0.0578
     39 H6         -1.9435   -0.1821    0.9097 H         1 <0>         0.0708
     40 H7         -1.9605   -0.1726   -0.8702 H         1 <0>         0.0861
     41 H8         -1.4360   -1.1795   -4.4922 H         1 <0>         0.1566
     42 H9         -1.4482   -2.5062   -8.5441 H         1 <0>         0.1359
     43 H10        -1.4233   -4.8477   -7.7959 H         1 <0>         0.1361
     44 H11        -2.2755   -6.5484   -6.9307 H         1 <0>         0.0581
     45 H12        -0.4957   -6.5243   -6.9395 H         1 <0>         0.0570
     46 H13        -1.3526   -8.7961   -6.4360 H         1 <0>         0.0694
     47 H14        -0.4647   -8.1258   -5.0466 H         1 <0>         0.0690
     48 H15        -2.2445   -8.1499   -5.0378 H         1 <0>         0.0696
     49 H16         1.0335    2.1070   -6.3571 H         1 <0>         0.0814
     50 H17         0.2427    0.9670   -5.2366 H         1 <0>         0.0979
     51 H18         2.7652    0.8176   -5.2045 H         1 <0>         0.0879
     52 H19         1.9704   -0.7122   -5.6495 H         1 <0>         0.0449
     53 H20         2.7478   -0.4666   -9.1865 H         1 <0>         0.0858
     54 H21         1.9605   -1.4462   -7.9254 H         1 <0>         0.0417
     55 H22         0.2284   -0.3292   -9.2240 H         1 <0>         0.0922
     56 H23         1.0240    1.2501   -8.9932 H         1 <0>         0.0807
     57 H24         4.1801   -1.2690   -6.6954 H         1 <0>         0.0264
     58 H25         4.7675   -0.2413   -8.0246 H         1 <0>         0.0675
     59 H26         4.8011    0.3631   -6.3508 H         1 <0>         0.0692
     60 H27        -0.3294   -5.5825    1.7815 H         1 <0>         0.0592
     61 H28        -1.8748   -5.0582    2.4923 H         1 <0>         0.0722
     62 H29        -1.8667   -6.1476    1.0847 H         1 <0>         0.0961
@<TRIPOS>BOND
     1    1    2 1
     2    1   34 1
     3    1   35 1
     4    1   36 1
     5    2    3 1
     6    2   37 1
     7    2   38 1
     8    3    4 1
     9    3   39 1
    10    3   40 1
    11    4   32 2
    12    4    5 1
    13    5   11 ar
    14    5    6 ar
    15    6    7 ar
    16    6   31 1
    17    7    8 1
    18    7    9 ar
    19    9   10 ar
    20   10   11 ar
    21   10   12 1
    22   12   17 ar
    23   12   13 ar
    24   13   14 ar
    25   13   41 1
    26   14   15 ar
    27   14   21 1
    28   15   16 ar
    29   15   42 1
    30   16   17 ar
    31   16   43 1
    32   17   18 1
    33   18   19 1
    34   19   20 1
    35   19   44 1
    36   19   45 1
    37   20   46 1
    38   20   47 1
    39   20   48 1
    40   21   22 2
    41   21   23 2
    42   21   24 1
    43   24   29 1
    44   24   25 1
    45   25   26 1
    46   25   49 1
    47   25   50 1
    48   26   27 1
    49   26   51 1
    50   26   52 1
    51   27   28 1
    52   27   30 1
    53   28   29 1
    54   28   53 1
    55   28   54 1
    56   29   55 1
    57   29   56 1
    58   30   57 1
    59   30   58 1
    60   30   59 1
    61   31   32 1
    62   31   33 1
    63   33   60 1
    64   33   61 1
    65   33   62 1
@<TRIPOS>MOLECULE
ZINC19796168
   64    67     0     0     0
SMALL
USER_CHARGES

@<TRIPOS>ATOM
      1 C1         -0.0187    1.5258    0.0104 C.3       1 <0>        -0.1524
      2 C2          0.0021   -0.0041    0.0020 C.3       1 <0>        -0.1163
      3 C3         -1.4333   -0.5336    0.0129 C.3       1 <0>        -0.0382
      4 C4         -1.4129   -2.0405    0.0046 C.2       1 <0>         0.1125
      5 C5         -1.4070   -2.8548   -1.1446 C.2       1 <0>         0.0358
      6 C6         -1.3861   -4.1841   -0.7032 C.2       1 <0>        -0.0303
      7 C7         -1.3769   -5.2214   -1.6643 C.2       1 <0>         0.5721
      8 O1         -1.3591   -6.3907   -1.3206 O.2       1 <0>        -0.5177
      9 N1         -1.3887   -4.8848   -2.9731 N.am      1 <0>        -0.6346
     10 H1         -1.3827   -5.5793   -3.6502 H         1 <0>         0.4185
     11 C8         -1.4095   -3.5686   -3.3476 C.2       1 <0>         0.3827
     12 N2         -1.4171   -2.5966   -2.4679 N.2       1 <0>        -0.4195
     13 C9         -1.4219   -3.2333   -4.7854 C.ar      1 <0>        -0.1025
     14 C10        -1.4183   -4.2493   -5.7432 C.ar      1 <0>         0.0333
     15 C11        -1.4299   -3.9298   -7.0842 C.ar      1 <0>        -0.7276
     16 C12        -1.4448   -2.6046   -7.4863 C.ar      1 <0>         0.0370
     17 C13        -1.4485   -1.5903   -6.5488 C.ar      1 <0>        -0.2285
     18 C14        -1.4433   -1.8942   -5.1961 C.ar      1 <0>         0.2470
     19 O2         -1.4527   -0.8984   -4.2738 O.3       1 <0>        -0.2539
     20 C15        -1.4745    0.4426   -4.7671 C.3       1 <0>         0.0414
     21 C16        -1.4823    1.4191   -3.5893 C.3       1 <0>        -0.1545
     22 S1         -1.4253   -5.2129   -8.2917 S.o2      1 <0>         2.6914
     23 O3         -0.8874   -4.6500   -9.4805 O.2       1 <0>        -0.9316
     24 O4         -0.8594   -6.3568   -7.6667 O.2       1 <0>        -0.9334
     25 N3         -3.0059   -5.5847   -8.6172 N.pl3     1 <0>        -1.0127
     26 C17        -3.7155   -6.6148   -7.8430 C.3       1 <0>         0.0947
     27 C18        -5.0462   -6.0287   -7.3599 C.3       1 <0>        -0.0248
     28 N4         -5.7976   -5.5098   -8.5098 N.4       1 <0>        -0.3832
     29 C19        -5.0699   -4.3889   -9.1182 C.3       1 <0>        -0.0235
     30 C20        -3.7420   -4.8899   -9.6846 C.3       1 <0>         0.0949
     31 C21        -7.1182   -5.0483   -8.0616 C.3       1 <0>        -0.0476
     32 N5         -1.3799   -4.1501    0.6637 N.pl3     1 <0>        -0.3251
     33 N6         -1.3920   -2.8068    1.0614 N.2       1 <0>        -0.2289
     34 C22        -1.3598   -5.3128    1.5547 C.3       1 <0>         0.0963
     35 H2          1.0039    1.9031    0.0027 H         1 <0>         0.0582
     36 H3         -0.5459    1.8868   -0.8726 H         1 <0>         0.0570
     37 H4         -0.5289    1.8773    0.9072 H         1 <0>         0.0575
     38 H5          0.5123   -0.3556   -0.8948 H         1 <0>         0.0655
     39 H6          0.5293   -0.3651    0.8851 H         1 <0>         0.0644
     40 H7         -1.9435   -0.1821    0.9097 H         1 <0>         0.0854
     41 H8         -1.9605   -0.1726   -0.8702 H         1 <0>         0.0931
     42 H9         -1.4060   -5.2840   -5.4339 H         1 <0>         0.1444
     43 H10        -1.4531   -2.3629   -8.5389 H         1 <0>         0.1495
     44 H11        -1.4598   -0.5592   -6.8698 H         1 <0>         0.1518
     45 H12        -0.5902    0.6189   -5.3794 H         1 <0>         0.0706
     46 H13        -2.3699    0.5934   -5.3701 H         1 <0>         0.0677
     47 H14        -1.4990    2.4420   -3.9655 H         1 <0>         0.0830
     48 H15        -2.3667    1.2428   -2.9770 H         1 <0>         0.0703
     49 H16        -0.5869    1.2683   -2.9863 H         1 <0>         0.0743
     50 H17        -3.9053   -7.4822   -8.4752 H         1 <0>         0.1071
     51 H18        -3.1115   -6.9087   -6.9845 H         1 <0>         0.1349
     52 H19        -5.6284   -6.8070   -6.8666 H         1 <0>         0.1469
     53 H20        -4.8527   -5.2186   -6.6568 H         1 <0>         0.1345
     54 H21        -5.6695   -3.9589   -9.9204 H         1 <0>         0.1472
     55 H22        -4.8756   -3.6285   -8.3618 H         1 <0>         0.1345
     56 H23        -3.1556   -4.0439  -10.0432 H         1 <0>         0.1362
     57 H24        -3.9345   -5.5801  -10.5059 H         1 <0>         0.1058
     58 H25        -6.9949   -4.2582   -7.3209 H         1 <0>         0.1220
     59 H26        -7.6771   -4.6629   -8.9144 H         1 <0>         0.1268
     60 H27        -7.6626   -5.8814   -7.6170 H         1 <0>         0.1264
     61 H28        -0.3273   -5.5873    1.7707 H         1 <0>         0.0857
     62 H29        -1.8725   -5.0668    2.4846 H         1 <0>         0.0997
     63 H30        -1.8648   -6.1494    1.0718 H         1 <0>         0.1010
     64 H31        -5.9143   -6.2436   -9.1925 H         1 <0>         0.4277
@<TRIPOS>BOND
     1    1    2 1
     2    1   35 1
     3    1   36 1
     4    1   37 1
     5    2    3 1
     6    2   38 1
     7    2   39 1
     8    3    4 1
     9    3   40 1
    10    3   41 1
    11    4   33 2
    12    4    5 1
    13    5   12 1
    14    5    6 2
    15    6    7 1
    16    6   32 1
    17    7    8 2
    18    7    9 am
    19    9   10 1
    20    9   11 1
    21   11   12 2
    22   11   13 1
    23   13   18 ar
    24   13   14 ar
    25   14   15 ar
    26   14   42 1
    27   15   16 ar
    28   15   22 1
    29   16   17 ar
    30   16   43 1
    31   17   18 ar
    32   17   44 1
    33   18   19 1
    34   19   20 1
    35   20   21 1
    36   20   45 1
    37   20   46 1
    38   21   47 1
    39   21   48 1
    40   21   49 1
    41   22   23 2
    42   22   24 2
    43   22   25 1
    44   25   30 1
    45   25   26 1
    46   26   27 1
    47   26   50 1
    48   26   51 1
    49   27   28 1
    50   27   52 1
    51   27   53 1
    52   28   29 1
    53   28   31 1
    54   28   64 1
    55   29   30 1
    56   29   54 1
    57   29   55 1
    58   30   56 1
    59   30   57 1
    60   31   58 1
    61   31   59 1
    62   31   60 1
    63   32   33 1
    64   32   34 1
    65   34   61 1
    66   34   62 1
    67   34   63 1
@<TRIPOS>MOLECULE
ZINC00056555
   46    48     0     0     0
SMALL
USER_CHARGES

@<TRIPOS>ATOM
      1 C1         -0.0173    1.4248    0.0099 C.3       1 <0>         0.0258
      2 O1          0.0021   -0.0041    0.0020 O.3       1 <0>        -0.3063
      3 C2          0.6262   -0.6188    1.0422 C.ar      1 <0>         0.0999
      4 C3          1.2021    0.1367    2.0510 C.ar      1 <0>        -0.1710
      5 C4          1.8358   -0.4897    3.1079 C.ar      1 <0>        -0.1122
      6 C5          1.8971   -1.8699    3.1612 C.ar      1 <0>        -0.0760
      7 C6          1.3251   -2.6295    2.1578 C.ar      1 <0>        -0.1547
      8 C7          0.6830   -2.0080    1.0988 C.ar      1 <0>         0.1015
      9 O2          0.1145   -2.7540    0.1140 O.3       1 <0>        -0.3064
     10 C8          0.2115   -4.1743    0.2380 C.3       1 <0>         0.0255
     11 C9          2.5896   -2.5476    4.3154 C.3       1 <0>        -0.0305
     12 C10         1.5954   -2.8002    5.4194 C.ar      1 <0>         0.1803
     13 C11         1.3868   -1.8306    6.4126 C.ar      1 <0>        -0.0927
     14 C12         2.0813   -0.6102    6.4178 C.ar      1 <0>        -0.1656
     15 C13         1.8397    0.2976    7.4073 C.ar      1 <0>         0.1202
     16 C14         0.9067    0.0284    8.4207 C.ar      1 <0>         0.1418
     17 C15         0.2161   -1.1496    8.4419 C.ar      1 <0>        -0.1891
     18 C16         0.4428   -2.1015    7.4380 C.ar      1 <0>        -0.0102
     19 C17        -0.2384   -3.3323    7.4069 C.ar      1 <0>        -0.1601
     20 C18         0.0362   -4.2060    6.3992 C.ar      1 <0>         0.0826
     21 N1          0.9194   -3.9252    5.4505 N.ar      1 <0>        -0.4840
     22 O3          0.6880    0.9516    9.3935 O.3       1 <0>        -0.3019
     23 C19        -0.2734    0.6206   10.3977 C.3       1 <0>         0.0223
     24 O4          2.5122    1.4790    7.4120 O.3       1 <0>        -0.3019
     25 C20         3.4494    1.6962    6.3553 C.3       1 <0>         0.0208
     26 H1          1.0053    1.8021    0.0021 H         1 <0>         0.0553
     27 H2         -0.5445    1.7859   -0.8732 H         1 <0>         0.1013
     28 H3         -0.5275    1.7763    0.9067 H         1 <0>         0.0545
     29 H4          1.1562    1.2150    2.0113 H         1 <0>         0.1358
     30 H5          2.2842    0.1003    3.8935 H         1 <0>         0.1221
     31 H6          1.3747   -3.7075    2.2017 H         1 <0>         0.1401
     32 H7          1.2614   -4.4664    0.2576 H         1 <0>         0.0558
     33 H8         -0.2714   -4.4922    1.1620 H         1 <0>         0.0564
     34 H9         -0.2815   -4.6476   -0.6111 H         1 <0>         0.1010
     35 H10         3.0097   -3.4961    3.9808 H         1 <0>         0.0985
     36 H11         3.3894   -1.9067    4.6863 H         1 <0>         0.0913
     37 H12         2.8023   -0.3917    5.6438 H         1 <0>         0.1473
     38 H13        -0.4993   -1.3466    9.2266 H         1 <0>         0.1459
     39 H14        -0.9645   -3.5793    8.1673 H         1 <0>         0.1371
     40 H15        -0.4831   -5.1525    6.3692 H         1 <0>         0.1540
     41 H16        -0.3511    1.4413   11.1107 H         1 <0>         0.1057
     42 H17        -1.2436    0.4521    9.9304 H         1 <0>         0.0589
     43 H18         0.0414   -0.2840   10.9179 H         1 <0>         0.0591
     44 H19         4.2164    0.9223    6.3853 H         1 <0>         0.0590
     45 H20         2.9316    1.6577    5.3969 H         1 <0>         0.0571
     46 H21         3.9148    2.6741    6.4778 H         1 <0>         0.1062
@<TRIPOS>BOND
     1    1    2 1
     2    1   26 1
     3    1   27 1
     4    1   28 1
     5    2    3 1
     6    3    8 ar
     7    3    4 ar
     8    4    5 ar
     9    4   29 1
    10    5    6 ar
    11    5   30 1
    12    6    7 ar
    13    6   11 1
    14    7    8 ar
    15    7   31 1
    16    8    9 1
    17    9   10 1
    18   10   32 1
    19   10   33 1
    20   10   34 1
    21   11   12 1
    22   11   35 1
    23   11   36 1
    24   12   21 ar
    25   12   13 ar
    26   13   18 ar
    27   13   14 ar
    28   14   15 ar
    29   14   37 1
    30   15   16 ar
    31   15   24 1
    32   16   17 ar
    33   16   22 1
    34   17   18 ar
    35   17   38 1
    36   18   19 ar
    37   19   20 ar
    38   19   39 1
    39   20   21 ar
    40   20   40 1
    41   22   23 1
    42   23   41 1
    43   23   42 1
    44   23   43 1
    45   24   25 1
    46   25   44 1
    47   25   45 1
    48   25   46 1
@<TRIPOS>MOLECULE
ZINC00592419
   40    42     0     0     0
SMALL
USER_CHARGES
3-(cyclopropylmethoxy)-N-(3,5-dichloro-4-pyridyl)-4-(difluoromethoxy)benzamide
@<TRIPOS>ATOM
      1 C1          0.9844   -2.0719   -0.1438 C.ar      1 <0>        -0.0785
      2 C2          0.8553   -0.7016   -0.2175 C.ar      1 <0>        -0.1611
      3 C3          0.5441   -0.0947   -1.4263 C.ar      1 <0>         0.1102
      4 C4          0.3554   -0.8690   -2.5706 C.ar      1 <0>         0.1162
      5 C5          0.4894   -2.2419   -2.5050 C.ar      1 <0>        -0.1154
      6 C6          0.8024   -2.8530   -1.2874 C.ar      1 <0>        -0.1209
      7 C7          0.9407   -4.3202   -1.2104 C.2       1 <0>         0.5775
      8 O1          0.7820   -4.9990   -2.2066 O.2       1 <0>        -0.5083
      9 N1          1.2430   -4.9079   -0.0357 N.am      1 <0>        -0.6829
     10 C8          1.2689   -6.2999    0.0619 C.ar      1 <0>         0.2003
     11 C9          0.1171   -7.0160    0.3872 C.ar      1 <0>        -0.0766
     12 C10         0.1837   -8.3927    0.4682 C.ar      1 <0>         0.1265
     13 N2          1.3196   -9.0289    0.2532 N.ar      1 <0>        -0.4462
     14 C11         2.4318   -8.3873   -0.0514 C.ar      1 <0>         0.1264
     15 C12         2.4485   -7.0108   -0.1576 C.ar      1 <0>        -0.0749
     16 Cl1         3.9171   -6.1767   -0.5594 Cl        1 <0>        -0.0255
     17 Cl2        -1.3808   -6.1884    0.6792 Cl        1 <0>        -0.0260
     18 O2          0.0451   -0.2717   -3.7523 O.3       1 <0>        -0.2965
     19 C13        -0.1341   -1.1261   -4.8837 C.3       1 <0>         0.0866
     20 C14        -0.4753   -0.2805   -6.1123 C.3       1 <0>        -0.1585
     21 C15        -1.8500   -0.4861   -6.7517 C.3       1 <0>        -0.1748
     22 C16        -0.5929   -1.0024   -7.4562 C.3       1 <0>        -0.1679
     23 O3          0.4175    1.2557   -1.4936 O.3       1 <0>        -0.3037
     24 C17         0.6182    1.9872   -0.2826 C.3       1 <0>         0.4095
     25 F1         -0.3131    1.5697    0.6743 F         1 <0>        -0.1964
     26 F2          1.9128    1.7543    0.1939 F         1 <0>        -0.1964
     27 H1          1.2266   -2.5416    0.7981 H         1 <0>         0.1357
     28 H2          0.9963   -0.0988    0.6675 H         1 <0>         0.1500
     29 H3          0.3479   -2.8425   -3.3914 H         1 <0>         0.1537
     30 H4          1.4425   -4.3634    0.7418 H         1 <0>         0.4177
     31 H5         -0.7042   -8.9557    0.7155 H         1 <0>         0.1794
     32 H6          3.3405   -8.9460   -0.2200 H         1 <0>         0.1794
     33 H7          0.7854   -1.6814   -5.0688 H         1 <0>         0.0710
     34 H8         -0.9471   -1.8247   -4.6863 H         1 <0>         0.0679
     35 H9         -0.0637    0.7288   -6.1175 H         1 <0>         0.1184
     36 H10        -2.5113   -1.2237   -6.2970 H         1 <0>         0.0972
     37 H11        -2.3427    0.3879   -7.1778 H         1 <0>         0.0996
     38 H12        -0.2591   -0.4678   -8.3455 H         1 <0>         0.1024
     39 H13        -0.4268   -2.0796   -7.4651 H         1 <0>         0.0982
     40 H14         0.4882    3.0521   -0.4756 H         1 <0>         0.1866
@<TRIPOS>BOND
     1    1    6 ar
     2    1    2 ar
     3    1   27 1
     4    2    3 ar
     5    2   28 1
     6    3    4 ar
     7    3   23 1
     8    4    5 ar
     9    4   18 1
    10    5    6 ar
    11    5   29 1
    12    6    7 1
    13    7    8 2
    14    7    9 am
    15    9   10 1
    16    9   30 1
    17   10   15 ar
    18   10   11 ar
    19   11   12 ar
    20   11   17 1
    21   12   13 ar
    22   12   31 1
    23   13   14 ar
    24   14   15 ar
    25   14   32 1
    26   15   16 1
    27   18   19 1
    28   19   20 1
    29   19   33 1
    30   19   34 1
    31   20   22 1
    32   20   21 1
    33   20   35 1
    34   21   22 1
    35   21   36 1
    36   21   37 1
    37   22   38 1
    38   22   39 1
    39   23   24 1
    40   24   25 1
    41   24   26 1
    42   24   40 1
@<TRIPOS>MOLECULE
ZINC00004234
   35    36     0     0     0
SMALL
USER_CHARGES

@<TRIPOS>ATOM
      1 C1          0.0729    1.7554   -0.4720 C.3       1 <0>        -0.1439
      2 C2          0.1706    0.2329   -0.3560 C.3       1 <0>        -0.0202
      3 C3          1.0880   -0.1317    0.8129 C.3       1 <0>        -0.1448
      4 C4         -1.2017   -0.3416   -0.1157 C.2       1 <0>         0.1586
      5 C5         -1.8609   -1.2697   -0.9470 C.2       1 <0>        -0.3405
      6 C6         -3.1131   -1.5327   -0.3485 C.2       1 <0>         0.1468
      7 C7         -4.1847   -2.3576   -0.7070 C.2       1 <0>        -0.1254
      8 C8         -5.2900   -2.4020    0.0938 C.2       1 <0>        -0.0656
      9 C9         -5.3279   -1.6216    1.2564 C.2       1 <0>        -0.1628
     10 C10        -4.2794   -0.8317    1.5824 C.2       1 <0>         0.1166
     11 N1         -3.1735   -0.7815    0.7895 N.pl3     1 <0>        -0.2640
     12 N2         -1.9748   -0.0665    0.9000 N.2       1 <0>        -0.3095
     13 C11        -1.3659   -1.8278   -2.1462 C.2       1 <0>         0.4525
     14 O1         -0.8133   -2.9094   -2.1300 O.2       1 <0>        -0.4437
     15 C12        -1.5232   -1.0814   -3.4459 C.3       1 <0>        -0.1389
     16 C13        -0.3994   -1.4824   -4.4036 C.3       1 <0>        -0.1426
     17 C14        -2.8753   -1.4278   -4.0726 C.3       1 <0>        -0.1392
     18 H1          1.0655    2.1710   -0.6458 H         1 <0>         0.0679
     19 H2         -0.5806    2.0152   -1.3048 H         1 <0>         0.0577
     20 H3         -0.3356    2.1647    0.4519 H         1 <0>         0.0646
     21 H4          0.5792   -0.1764   -1.2800 H         1 <0>         0.0888
     22 H5          0.6794    0.2776    1.7368 H         1 <0>         0.0643
     23 H6          1.1576   -1.2163    0.8955 H         1 <0>         0.0578
     24 H7          2.0806    0.2839    0.6391 H         1 <0>         0.0679
     25 H8         -4.1385   -2.9523   -1.6074 H         1 <0>         0.1473
     26 H9         -6.1271   -3.0326   -0.1670 H         1 <0>         0.1473
     27 H10        -6.1983   -1.6505    1.8951 H         1 <0>         0.1603
     28 H11        -4.3200   -0.2341    2.4810 H         1 <0>         0.1733
     29 H12        -1.4743   -0.0089   -3.2572 H         1 <0>         0.0941
     30 H13        -0.4483   -2.5549   -4.5923 H         1 <0>         0.0654
     31 H14        -0.5132   -0.9426   -5.3437 H         1 <0>         0.0637
     32 H15         0.5638   -1.2356   -3.9572 H         1 <0>         0.0569
     33 H16        -2.9242   -2.5002   -4.2613 H         1 <0>         0.0607
     34 H17        -3.6759   -1.1421   -3.3903 H         1 <0>         0.0586
     35 H18        -2.9891   -0.8879   -5.0126 H         1 <0>         0.0701
@<TRIPOS>BOND
     1    1    2 1
     2    1   18 1
     3    1   19 1
     4    1   20 1
     5    2    3 1
     6    2    4 1
     7    2   21 1
     8    3   22 1
     9    3   23 1
    10    3   24 1
    11    4   12 2
    12    4    5 1
    13    5    6 2
    14    5   13 1
    15    6   11 1
    16    6    7 1
    17    7    8 2
    18    7   25 1
    19    8    9 1
    20    8   26 1
    21    9   10 2
    22    9   27 1
    23   10   11 1
    24   10   28 1
    25   11   12 1
    26   13   14 2
    27   13   15 1
    28   15   16 1
    29   15   17 1
    30   15   29 1
    31   16   30 1
    32   16   31 1
    33   16   32 1
    34   17   33 1
    35   17   34 1
    36   17   35 1
@<TRIPOS>MOLECULE
ZINC28570798
   39    41     0     0     0
SMALL
USER_CHARGES
2-(4-fluorophenoxy)-N-[(1R)-1-(2-thienyl)ethyl]pyridine-3-carboxamide
@<TRIPOS>ATOM
      1 C1          0.7034    8.0329   -1.3265 C.3       1 <0>        -0.1605
      2 C2          0.8956    7.4809    0.0875 C.3       1 <0>         0.2351
      3 H1          0.0449    7.7439    0.7334 H         1 <0>         0.1109
      4 C3          2.1705    8.0317    0.6727 C.2       1 <0>        -0.1553
      5 C4          2.3366    9.0562    1.5445 C.2       1 <0>        -0.1429
      6 C5          3.6150    9.3904    1.9503 C.2       1 <0>        -0.1551
      7 C6          4.6647    8.6838    1.4644 C.2       1 <0>        -0.1647
      8 S1          3.8531    7.4991    0.4038 S.3       1 <0>         0.0327
      9 N1          0.9744    6.0190    0.0344 N.am      1 <0>        -0.7370
     10 C7         -0.1545    5.2827    0.0398 C.2       1 <0>         0.5693
     11 O1         -1.2383    5.8318    0.0886 O.2       1 <0>        -0.5119
     12 C8         -0.0752    3.8106   -0.0136 C.ar      1 <0>        -0.2039
     13 C9          1.1658    3.1654   -0.0701 C.ar      1 <0>        -0.0092
     14 C10         1.1859    1.7830   -0.1192 C.ar      1 <0>        -0.2117
     15 C11        -0.0084    1.0843   -0.1113 C.ar      1 <0>         0.1702
     16 N2         -1.1668    1.7126   -0.0631 N.ar      1 <0>        -0.5316
     17 C12        -1.2423    3.0319   -0.0092 C.ar      1 <0>         0.3683
     18 O2         -2.4536    3.6351    0.0446 O.3       1 <0>        -0.2108
     19 C13        -3.5610    2.8528   -0.0537 C.ar      1 <0>         0.0782
     20 C14        -4.2753    2.8067   -1.2420 C.ar      1 <0>        -0.0847
     21 C15        -5.3969    2.0065   -1.3423 C.ar      1 <0>        -0.1408
     22 C16        -5.8153    1.2602   -0.2537 C.ar      1 <0>         0.1038
     23 C17        -5.1065    1.3096    0.9348 C.ar      1 <0>        -0.1404
     24 C18        -3.9811    2.1041    1.0361 C.ar      1 <0>        -0.0814
     25 F1         -6.9158    0.4827   -0.3513 F         1 <0>        -0.1353
     26 H2         -0.2271    7.6309   -1.7537 H         1 <0>         0.0723
     27 H3          1.5548    7.7340   -1.9556 H         1 <0>         0.0625
     28 H4          0.6444    9.1306   -1.2867 H         1 <0>         0.0727
     29 H5          1.4830    9.6034    1.9163 H         1 <0>         0.1362
     30 H6          3.7751   10.2027    2.6438 H         1 <0>         0.1373
     31 H7          5.7184    8.8037    1.6689 H         1 <0>         0.1881
     32 H8          1.9549    5.5223   -0.0099 H         1 <0>         0.4142
     33 H9          2.0848    3.7328   -0.0749 H         1 <0>         0.1452
     34 H10         2.1261    1.2535   -0.1638 H         1 <0>         0.1485
     35 H11         0.0084    0.0051   -0.1496 H         1 <0>         0.1687
     36 H12        -3.9522    3.3927   -2.0897 H         1 <0>         0.1402
     37 H13        -5.9503    1.9665   -2.2689 H         1 <0>         0.1442
     38 H14        -5.4336    0.7263    1.7829 H         1 <0>         0.1428
     39 H15        -3.4282    2.1421    1.9631 H         1 <0>         0.1359
@<TRIPOS>BOND
     1    1    2 1
     2    1   26 1
     3    1   27 1
     4    1   28 1
     5    2    3 1
     6    2    4 1
     7    2    9 1
     8    4    8 1
     9    4    5 2
    10    5    6 1
    11    5   29 1
    12    6    7 2
    13    6   30 1
    14    7    8 1
    15    7   31 1
    16    9   10 am
    17    9   32 1
    18   10   11 2
    19   10   12 1
    20   12   17 ar
    21   12   13 ar
    22   13   14 ar
    23   13   33 1
    24   14   15 ar
    25   14   34 1
    26   15   16 ar
    27   15   35 1
    28   16   17 ar
    29   17   18 1
    30   18   19 1
    31   19   24 ar
    32   19   20 ar
    33   20   21 ar
    34   20   36 1
    35   21   22 ar
    36   21   37 1
    37   22   23 ar
    38   22   25 1
    39   23   24 ar
    40   23   38 1
    41   24   39 1
@<TRIPOS>MOLECULE
ZINC00021914
   45    49     0     0     0
SMALL
USER_CHARGES
cyclopentyl-ethyl-(2-thienyl)BLAH
@<TRIPOS>ATOM
      1 C1          4.1588    4.7213    1.4193 C.3       1 <0>        -0.1458
      2 C2          3.8442    4.3160   -0.0221 C.3       1 <0>        -0.0452
      3 C3          3.0419    3.0403   -0.0215 C.2       1 <0>         0.0931
      4 C4          3.5641    1.7608   -0.0604 C.2       1 <0>        -0.2257
      5 C5          2.4830    0.8752   -0.0248 C.2       1 <0>         0.1440
      6 N1          1.3568    1.6060   -0.0023 N.pl3     1 <0>        -0.3097
      7 N2          1.7311    2.9610    0.0158 N.2       1 <0>        -0.2664
      8 C6         -0.0127    1.0858    0.0080 C.3       1 <0>         0.1470
      9 C7         -0.7629    1.5973    1.2552 C.3       1 <0>        -0.1285
     10 C8         -1.5309    2.8450    0.7505 C.3       1 <0>        -0.1221
     11 C9         -1.9779    2.4205   -0.6705 C.3       1 <0>        -0.1209
     12 C10        -0.7845    1.6092   -1.2159 C.3       1 <0>        -0.1293
     13 C11         2.7660   -0.5642   -0.0313 C.2       1 <0>         0.2474
     14 N3          2.0446   -1.6208   -0.2381 N.2       1 <0>        -0.2534
     15 N4          2.7904   -2.6740   -0.1906 N.2       1 <0>        -0.2697
     16 C12         4.0436   -2.3332    0.0642 C.2       1 <0>         0.2939
     17 N5          4.0709   -0.9806    0.1974 N.pl3     1 <0>        -0.4703
     18 C13         5.1649   -0.0741    0.5245 C.3       1 <0>         0.1059
     19 C14         4.9914    1.2927   -0.1406 C.3       1 <0>        -0.0503
     20 C15         5.1906   -3.2460    0.1817 C.2       1 <0>        -0.1170
     21 C16         5.1988   -4.6194    0.3419 C.2       1 <0>        -0.0870
     22 C17         6.4129   -5.2613    0.4237 C.2       1 <0>        -0.1606
     23 C18         7.5566   -4.5314    0.3571 C.2       1 <0>        -0.1501
     24 S1          6.9356   -2.8692    0.1626 S.3       1 <0>         0.0753
     25 H1          4.7392    5.6440    1.4188 H         1 <0>         0.0649
     26 H2          3.2278    4.8779    1.9641 H         1 <0>         0.0579
     27 H3          4.7336    3.9308    1.9018 H         1 <0>         0.0561
     28 H4          4.7752    4.1594   -0.5669 H         1 <0>         0.0843
     29 H5          3.2695    5.1065   -0.5046 H         1 <0>         0.0823
     30 H6          0.0021   -0.0041    0.0020 H         1 <0>         0.1170
     31 H7         -1.4596    0.8416    1.6179 H         1 <0>         0.0856
     32 H8         -0.0569    1.8738    2.0383 H         1 <0>         0.0735
     33 H9         -0.8713    3.7116    0.7051 H         1 <0>         0.0771
     34 H10        -2.3951    3.0518    1.3816 H         1 <0>         0.0701
     35 H11        -2.1585    3.2978   -1.2916 H         1 <0>         0.0711
     36 H12        -2.8710    1.7977   -0.6193 H         1 <0>         0.0700
     37 H13        -0.1404    2.2509   -1.8171 H         1 <0>         0.0779
     38 H14        -1.1443    0.7734   -1.8159 H         1 <0>         0.0798
     39 H15         6.1036   -0.5152    0.1893 H         1 <0>         0.1002
     40 H16         5.2036    0.0597    1.6056 H         1 <0>         0.0964
     41 H17         5.2850    1.2201   -1.1878 H         1 <0>         0.0839
     42 H18         5.6333    2.0170    0.3608 H         1 <0>         0.1063
     43 H19         4.2745   -5.1752    0.3977 H         1 <0>         0.1492
     44 H20         6.4561   -6.3337    0.5441 H         1 <0>         0.1466
     45 H21         8.5807   -4.8703    0.4090 H         1 <0>         0.1951
@<TRIPOS>BOND
     1    1    2 1
     2    1   25 1
     3    1   26 1
     4    1   27 1
     5    2    3 1
     6    2   28 1
     7    2   29 1
     8    3    7 2
     9    3    4 1
    10    4   19 1
    11    4    5 2
    12    5    6 1
    13    5   13 1
    14    6    7 1
    15    6    8 1
    16    8   12 1
    17    8    9 1
    18    8   30 1
    19    9   10 1
    20    9   31 1
    21    9   32 1
    22   10   11 1
    23   10   33 1
    24   10   34 1
    25   11   12 1
    26   11   35 1
    27   11   36 1
    28   12   37 1
    29   12   38 1
    30   13   17 1
    31   13   14 2
    32   14   15 1
    33   15   16 2
    34   16   17 1
    35   16   20 1
    36   17   18 1
    37   18   19 1
    38   18   39 1
    39   18   40 1
    40   19   41 1
    41   19   42 1
    42   20   24 1
    43   20   21 2
    44   21   22 1
    45   21   43 1
    46   22   23 2
    47   22   44 1
    48   23   24 1
    49   23   45 1
@<TRIPOS>MOLECULE
ZINC03818556
   47    48     0     0     0
SMALL
USER_CHARGES
5-[4-cyclohexyl-1-(hydroxycarbamoylmethyl)butyl]-1,2,4-oxadiazole-3-carboxamide
@<TRIPOS>ATOM
      1 C1        -11.9403    0.1158    4.5232 C.3       1 <0>        -0.1214
      2 C2        -11.7248   -1.3511    4.1455 C.3       1 <0>        -0.1205
      3 C3        -10.2286   -1.6174    3.9676 C.3       1 <0>        -0.1154
      4 C4         -9.6791   -0.7190    2.8578 C.3       1 <0>        -0.0867
      5 C5         -9.8946    0.7479    3.2355 C.3       1 <0>        -0.1172
      6 C6        -11.3907    1.0143    3.4133 C.3       1 <0>        -0.1212
      7 C7         -8.1829   -0.9854    2.6800 C.3       1 <0>        -0.1160
      8 C8         -7.6595   -0.1797    1.4893 C.3       1 <0>        -0.1231
      9 C9         -6.1634   -0.4461    1.3115 C.3       1 <0>        -0.1190
     10 C10        -5.6125    0.4569    0.2060 C.3       1 <0>         0.0229
     11 H1         -5.8538    1.4956    0.4313 H         1 <0>         0.1334
     12 C11        -6.2416    0.0659   -1.1327 C.3       1 <0>        -0.1322
     13 C12        -5.8052    1.0401   -2.1965 C.2       1 <0>         0.5108
     14 O1         -5.1516    2.0159   -1.8937 O.2       1 <0>        -0.5000
     15 N1         -6.1411    0.8270   -3.4842 N.am      1 <0>        -0.5973
     16 O2         -5.7310    1.7424   -4.4837 O.3       1 <0>        -0.3163
     17 C13        -4.1164    0.2951    0.1242 C.2       1 <0>         0.1925
     18 N2         -3.2219    1.2364    0.2928 N.2       1 <0>        -0.4124
     19 C14        -2.0234    0.6322    0.1278 C.2       1 <0>         0.1307
     20 N3         -2.2582   -0.6264   -0.1333 N.2       1 <0>        -0.3502
     21 O3         -3.4528   -0.8363   -0.1340 O.3       1 <0>         0.0953
     22 C15        -0.6905    1.2791    0.2199 C.2       1 <0>         0.6159
     23 O4         -0.6070    2.4660    0.4651 O.2       1 <0>        -0.4950
     24 N4          0.4271    0.5497    0.0315 N.am      1 <0>        -0.8323
     25 H2        -13.0061    0.3056    4.6498 H         1 <0>         0.0594
     26 H3        -11.4195    0.3311    5.4562 H         1 <0>         0.0606
     27 H4        -12.2455   -1.5663    3.2124 H         1 <0>         0.0605
     28 H5        -12.1163   -1.9911    4.9361 H         1 <0>         0.0601
     29 H6        -10.0751   -2.6625    3.6986 H         1 <0>         0.0607
     30 H7         -9.7079   -1.4022    4.9007 H         1 <0>         0.0613
     31 H8        -10.1998   -0.9343    1.9248 H         1 <0>         0.0699
     32 H9         -9.3738    0.9631    4.1686 H         1 <0>         0.0615
     33 H10        -9.5030    1.3879    2.4449 H         1 <0>         0.0644
     34 H11       -11.9114    0.7990    2.4803 H         1 <0>         0.0603
     35 H12       -11.5442    2.0593    3.6824 H         1 <0>         0.0604
     36 H13        -8.0221   -2.0481    2.4985 H         1 <0>         0.0649
     37 H14        -7.6508   -0.6864    3.5831 H         1 <0>         0.0645
     38 H15        -7.8203    0.8830    1.6708 H         1 <0>         0.0733
     39 H16        -8.1916   -0.4787    0.5862 H         1 <0>         0.0691
     40 H17        -6.0102   -1.4900    1.0380 H         1 <0>         0.0806
     41 H18        -5.6432   -0.2352    2.2458 H         1 <0>         0.0802
     42 H19        -5.9194   -0.9389   -1.4060 H         1 <0>         0.1107
     43 H20        -7.3278    0.0875   -1.0438 H         1 <0>         0.1279
     44 H21        -6.6638    0.0466   -3.7263 H         1 <0>         0.4086
     45 H22        -6.0190    1.5056   -5.3759 H         1 <0>         0.3886
     46 H23         0.3604   -0.3980   -0.1643 H         1 <0>         0.4093
     47 H24         1.2979    0.9733    0.0877 H         1 <0>         0.4176
@<TRIPOS>BOND
     1    1    6 1
     2    1    2 1
     3    1   25 1
     4    1   26 1
     5    2    3 1
     6    2   27 1
     7    2   28 1
     8    3    4 1
     9    3   29 1
    10    3   30 1
    11    4    5 1
    12    4    7 1
    13    4   31 1
    14    5    6 1
    15    5   32 1
    16    5   33 1
    17    6   34 1
    18    6   35 1
    19    7    8 1
    20    7   36 1
    21    7   37 1
    22    8    9 1
    23    8   38 1
    24    8   39 1
    25    9   10 1
    26    9   40 1
    27    9   41 1
    28   10   11 1
    29   10   12 1
    30   10   17 1
    31   12   13 1
    32   12   42 1
    33   12   43 1
    34   13   14 2
    35   13   15 am
    36   15   16 1
    37   15   44 1
    38   16   45 1
    39   17   21 1
    40   17   18 2
    41   18   19 1
    42   19   20 2
    43   19   22 1
    44   20   21 1
    45   22   23 2
    46   22   24 am
    47   24   46 1
    48   24   47 1
@<TRIPOS>MOLECULE
ZINC09225358
   29    30     0     0     0
SMALL
USER_CHARGES

@<TRIPOS>ATOM
      1 C1         -1.4067   -3.3082    0.0480 C.3       1 <0>        -0.0935
      2 C2         -0.6774   -2.0426    0.4188 C.2       1 <0>         0.1362
      3 C3         -1.1579   -0.7820    0.3021 C.2       1 <0>        -0.0791
      4 N1         -0.1602    0.0845    0.7567 N.am      1 <0>        -0.6275
      5 H1         -0.2156    1.0522    0.7937 H         1 <0>         0.4358
      6 C4          0.8924   -0.6670    1.1348 C.2       1 <0>         0.6583
      7 O1          1.9422   -0.2446    1.5832 O.2       1 <0>        -0.5578
      8 N2          0.5866   -1.9632    0.9391 N.am      1 <0>        -0.6216
      9 H2          1.1668   -2.7163    1.1321 H         1 <0>         0.4382
     10 C5         -2.4778   -0.3982   -0.2059 C.2       1 <0>         0.4719
     11 O2         -3.3030   -1.2552   -0.4660 O.2       1 <0>        -0.4414
     12 C6         -2.8069    1.0266   -0.4023 C.ar      1 <0>        -0.1650
     13 C7         -1.7846    1.9622   -0.5911 C.ar      1 <0>        -0.0706
     14 C8         -2.0934    3.2853   -0.7733 C.ar      1 <0>        -0.1063
     15 C9         -3.4239    3.6984   -0.7701 C.ar      1 <0>        -0.0552
     16 C10        -4.4443    2.7687   -0.5823 C.ar      1 <0>        -0.1423
     17 C11        -4.1419    1.4433   -0.4059 C.ar      1 <0>        -0.0366
     18 S1         -3.8169    5.4001   -1.0035 S.3       1 <0>        -0.0993
     19 C12        -5.6284    5.4473   -0.9227 C.3       1 <0>        -0.1493
     20 H3         -0.8090   -4.1712    0.3415 H         1 <0>         0.0771
     21 H4         -2.3666   -3.3388    0.5635 H         1 <0>         0.0988
     22 H5         -1.5718   -3.3301   -1.0292 H         1 <0>         0.0943
     23 H6         -0.7530    1.6427   -0.5930 H         1 <0>         0.1343
     24 H7         -1.3045    4.0083   -0.9191 H         1 <0>         0.1384
     25 H8         -5.4748    3.0918   -0.5800 H         1 <0>         0.1330
     26 H9         -4.9336    0.7224   -0.2648 H         1 <0>         0.1401
     27 H10        -5.9585    5.0790    0.0486 H         1 <0>         0.0875
     28 H11        -5.9716    6.4729   -1.0582 H         1 <0>         0.1137
     29 H12        -6.0437    4.8182   -1.7101 H         1 <0>         0.0877
@<TRIPOS>BOND
     1    1    2 1
     2    1   20 1
     3    1   21 1
     4    1   22 1
     5    2    8 1
     6    2    3 2
     7    3    4 1
     8    3   10 1
     9    4    5 1
    10    4    6 am
    11    6    7 2
    12    6    8 am
    13    8    9 1
    14   10   11 2
    15   10   12 1
    16   12   17 ar
    17   12   13 ar
    18   13   14 ar
    19   13   23 1
    20   14   15 ar
    21   14   24 1
    22   15   16 ar
    23   15   18 1
    24   16   17 ar
    25   16   25 1
    26   17   26 1
    27   18   19 1
    28   19   27 1
    29   19   28 1
    30   19   29 1
@<TRIPOS>MOLECULE
ZINC04312962
   45    48     0     0     0
SMALL
USER_CHARGES

@<TRIPOS>ATOM
      1 C1         -0.0173    1.4248    0.0099 C.3       1 <0>         0.0221
      2 O1          0.0021   -0.0041    0.0020 O.3       1 <0>        -0.2834
      3 C2          0.6255   -0.6181    1.0410 C.ar      1 <0>         0.1782
      4 C3          1.2016    0.1360    2.0501 C.ar      1 <0>        -0.2143
      5 C4          1.8358   -0.4898    3.1070 C.ar      1 <0>        -0.0532
      6 C5          1.8997   -1.8712    3.1656 C.ar      1 <0>        -0.1632
      7 C6          1.3310   -2.6364    2.1686 C.ar      1 <0>        -0.0515
      8 C7          0.6834   -2.0161    1.0992 C.ar      1 <0>        -0.0703
      9 C8          0.0674   -2.8299    0.0313 C.2       1 <0>         0.3006
     10 N1         -0.5627   -2.3773   -1.0357 N.2       1 <0>        -0.2526
     11 N2         -0.9724   -3.3633   -1.7628 N.2       1 <0>        -0.2273
     12 C9         -0.6303   -4.4826   -1.2099 C.2       1 <0>         0.1077
     13 N3          0.0471   -4.1929   -0.0419 N.pl3     1 <0>        -0.3354
     14 N4          0.5471   -5.1740    0.8069 N.2       1 <0>        -0.2640
     15 C10         0.7443   -6.3955    0.4629 C.2       1 <0>         0.2223
     16 C11         0.5245   -6.9851   -0.8996 C.3       1 <0>        -0.1348
     17 S1         -0.8852   -6.1557   -1.7122 S.3       1 <0>         0.0541
     18 C12         1.2358   -7.3089    1.5101 C.ar      1 <0>        -0.0719
     19 C13         1.4794   -8.6518    1.2102 C.ar      1 <0>        -0.0729
     20 C14         1.9391   -9.5046    2.1912 C.ar      1 <0>        -0.1777
     21 C15         2.1604   -9.0330    3.4772 C.ar      1 <0>         0.1347
     22 C16         1.9192   -7.6953    3.7836 C.ar      1 <0>         0.0972
     23 C17         1.4647   -6.8329    2.8038 C.ar      1 <0>        -0.1227
     24 O2          2.1365   -7.2369    5.0454 O.3       1 <0>        -0.3011
     25 C18         1.8682   -5.8545    5.2887 C.3       1 <0>         0.0219
     26 O3          2.6131   -9.8780    4.4406 O.3       1 <0>        -0.2996
     27 C19         2.8390  -11.2363    4.0583 C.3       1 <0>         0.0217
     28 H1          1.0053    1.8021    0.0021 H         1 <0>         0.0572
     29 H2         -0.5445    1.7859   -0.8732 H         1 <0>         0.1054
     30 H3         -0.5275    1.7763    0.9067 H         1 <0>         0.0574
     31 H4          1.1555    1.2143    2.0108 H         1 <0>         0.1389
     32 H5          2.2841    0.1024    3.8910 H         1 <0>         0.1327
     33 H6          2.3972   -2.3519    3.9949 H         1 <0>         0.1314
     34 H7          1.3833   -3.7141    2.2176 H         1 <0>         0.1412
     35 H8          1.4241   -6.8527   -1.5007 H         1 <0>         0.1327
     36 H9          0.3089   -8.0492   -0.8030 H         1 <0>         0.1564
     37 H10         1.3073   -9.0218    0.2103 H         1 <0>         0.1404
     38 H11         2.1270  -10.5423    1.9583 H         1 <0>         0.1478
     39 H12         1.2823   -5.7946    3.0387 H         1 <0>         0.1484
     40 H13         2.4980   -5.2431    4.6424 H         1 <0>         0.0572
     41 H14         0.8196   -5.6453    5.0776 H         1 <0>         0.0580
     42 H15         2.0826   -5.6209    6.3315 H         1 <0>         0.1057
     43 H16         1.9066  -11.6728    3.7004 H         1 <0>         0.0598
     44 H17         3.5848  -11.2710    3.2642 H         1 <0>         0.0596
     45 H18         3.1979  -11.8011    4.9187 H         1 <0>         0.1054
@<TRIPOS>BOND
     1    1    2 1
     2    1   28 1
     3    1   29 1
     4    1   30 1
     5    2    3 1
     6    3    8 ar
     7    3    4 ar
     8    4    5 ar
     9    4   31 1
    10    5    6 ar
    11    5   32 1
    12    6    7 ar
    13    6   33 1
    14    7    8 ar
    15    7   34 1
    16    8    9 1
    17    9   13 1
    18    9   10 2
    19   10   11 1
    20   11   12 2
    21   12   17 1
    22   12   13 1
    23   13   14 1
    24   14   15 2
    25   15   16 1
    26   15   18 1
    27   16   17 1
    28   16   35 1
    29   16   36 1
    30   18   23 ar
    31   18   19 ar
    32   19   20 ar
    33   19   37 1
    34   20   21 ar
    35   20   38 1
    36   21   22 ar
    37   21   26 1
    38   22   23 ar
    39   22   24 1
    40   23   39 1
    41   24   25 1
    42   25   40 1
    43   25   41 1
    44   25   42 1
    45   26   27 1
    46   27   43 1
    47   27   44 1
    48   27   45 1
@<TRIPOS>MOLECULE
ZINC00000883
   35    38     0     0     0
SMALL
USER_CHARGES

@<TRIPOS>ATOM
      1 C1         -0.0187    1.5258    0.0104 C.3       1 <0>        -0.1289
      2 C2          0.0021   -0.0041    0.0020 C.3       1 <0>        -0.0510
      3 C3          0.7865   -0.5164   -1.1847 C.ar      1 <0>        -0.1021
      4 C4          0.6123   -0.3812   -2.5407 C.ar      1 <0>        -0.0528
      5 C5          1.5123   -0.9756   -3.4153 C.ar      1 <0>         0.0417
      6 C6          2.5977   -1.7129   -2.9079 C.ar      1 <0>         0.0852
      7 C7          2.7614   -1.8408   -1.5261 C.ar      1 <0>        -0.0869
      8 C8          1.8560   -1.2433   -0.6621 C.ar      1 <0>         0.1406
      9 N1          1.8082   -1.2296    0.7349 N.am      1 <0>        -0.6575
     10 C9          0.7605   -0.5304    1.2014 C.2       1 <0>         0.5378
     11 O1          0.4752   -0.3538    2.3670 O.2       1 <0>        -0.4928
     12 N2          3.2998   -2.1720   -3.9723 N.2       1 <0>        -0.4688
     13 C10         2.7294   -1.7737   -5.0821 C.2       1 <0>         0.3268
     14 N3          1.6186   -1.0294   -4.7915 N.pl3     1 <0>        -0.5871
     15 H1          1.0181   -0.6169   -5.4320 H         1 <0>         0.4262
     16 C11         3.2139   -2.0823   -6.4461 C.ar      1 <0>         0.0150
     17 C12         2.5380   -1.6050   -7.5743 C.ar      1 <0>        -0.1586
     18 C13         3.0249   -1.9165   -8.8274 C.ar      1 <0>         0.1068
     19 N4          4.1101   -2.6528   -8.9687 N.ar      1 <0>        -0.4746
     20 C14         4.7770   -3.1226   -7.9322 C.ar      1 <0>         0.1060
     21 C15         4.3637   -2.8546   -6.6431 C.ar      1 <0>        -0.1241
     22 C16        -1.4241   -0.5578   -0.0153 C.3       1 <0>        -0.1286
     23 H2          1.0039    1.9031    0.0027 H         1 <0>         0.0625
     24 H3         -0.5459    1.8868   -0.8726 H         1 <0>         0.0737
     25 H4         -0.5289    1.8773    0.9072 H         1 <0>         0.0743
     26 H5         -0.2227    0.1855   -2.9255 H         1 <0>         0.1344
     27 H6          3.5925   -2.4060   -1.1309 H         1 <0>         0.1386
     28 H7          2.4572   -1.6743    1.3024 H         1 <0>         0.4160
     29 H8          1.6484   -1.0022   -7.4660 H         1 <0>         0.1344
     30 H9          2.5101   -1.5527   -9.7044 H         1 <0>         0.1641
     31 H10         5.6608   -3.7215   -8.0946 H         1 <0>         0.1665
     32 H11         4.9172   -3.2387   -5.7990 H         1 <0>         0.1526
     33 H12        -1.9359   -0.2155   -0.9148 H         1 <0>         0.0736
     34 H13        -1.3909   -1.6473   -0.0086 H         1 <0>         0.0624
     35 H14        -1.9615   -0.2052    0.8650 H         1 <0>         0.0744
@<TRIPOS>BOND
     1    1    2 1
     2    1   23 1
     3    1   24 1
     4    1   25 1
     5    2   10 1
     6    2    3 1
     7    2   22 1
     8    3    8 ar
     9    3    4 ar
    10    4    5 ar
    11    4   26 1
    12    5   14 1
    13    5    6 ar
    14    6    7 ar
    15    6   12 1
    16    7    8 ar
    17    7   27 1
    18    8    9 1
    19    9   10 am
    20    9   28 1
    21   10   11 2
    22   12   13 2
    23   13   14 1
    24   13   16 1
    25   14   15 1
    26   16   21 ar
    27   16   17 ar
    28   17   18 ar
    29   17   29 1
    30   18   19 ar
    31   18   30 1
    32   19   20 ar
    33   20   21 ar
    34   20   31 1
    35   21   32 1
    36   22   33 1
    37   22   34 1
    38   22   35 1
@<TRIPOS>MOLECULE
ZINC13216420
   32    34     0     0     0
SMALL
USER_CHARGES
4-(4-imidazol-1-ylbenzoyl)-5-methyl-1,3-dihydroimidazol-2-one
@<TRIPOS>ATOM
      1 C1          3.4996    0.8144    0.0256 C.3       1 <0>        -0.0948
      2 C2          2.0524    0.6888    0.4264 C.2       1 <0>         0.1411
      3 C3          1.3658   -0.4683    0.5840 C.2       1 <0>        -0.0830
      4 N1          0.0630   -0.1281    0.9582 N.am      1 <0>        -0.6285
      5 H1         -0.6601   -0.7477    1.1424 H         1 <0>         0.4350
      6 C4         -0.0069    1.2163    1.0176 C.2       1 <0>         0.6588
      7 O1         -0.9944    1.8639    1.3127 O.2       1 <0>        -0.5563
      8 N2          1.1978    1.7235    0.6959 N.am      1 <0>        -0.6210
      9 H2          1.4240    2.6662    0.6643 H         1 <0>         0.4389
     10 C5          1.8911   -1.8230    0.3978 C.2       1 <0>         0.4721
     11 O2          3.0777   -1.9918    0.1832 O.2       1 <0>        -0.4371
     12 C6          0.9812   -2.9844    0.4703 C.ar      1 <0>        -0.1645
     13 C7         -0.3846   -2.8205    0.2245 C.ar      1 <0>        -0.0629
     14 C8         -1.2290   -3.9066    0.2873 C.ar      1 <0>        -0.1391
     15 C9         -0.7257   -5.1631    0.6058 C.ar      1 <0>         0.1698
     16 C10         0.6318   -5.3289    0.8571 C.ar      1 <0>        -0.1409
     17 C11         1.4832   -4.2485    0.7905 C.ar      1 <0>        -0.0291
     18 N3         -1.5873   -6.2630    0.6740 N.pl3     1 <0>        -0.4185
     19 C12        -2.9417   -6.2525    0.4582 C.2       1 <0>        -0.0543
     20 C13        -3.3722   -7.5176    0.6215 C.2       1 <0>        -0.0157
     21 N4         -2.3163   -8.2823    0.9377 N.2       1 <0>        -0.4801
     22 C14        -1.2415   -7.5430    0.9723 C.2       1 <0>         0.1938
     23 H3          3.7989    1.8616    0.0684 H         1 <0>         0.0780
     24 H4          4.1177    0.2317    0.7086 H         1 <0>         0.0997
     25 H5          3.6291    0.4407   -0.9902 H         1 <0>         0.0952
     26 H6         -0.7769   -1.8440   -0.0185 H         1 <0>         0.1391
     27 H7         -2.2840   -3.7815    0.0931 H         1 <0>         0.1412
     28 H8          1.0191   -6.3063    1.1045 H         1 <0>         0.1429
     29 H9          2.5374   -4.3780    0.9858 H         1 <0>         0.1489
     30 H10        -3.5463   -5.3946    0.2035 H         1 <0>         0.1811
     31 H11        -4.3923   -7.8574    0.5198 H         1 <0>         0.1781
     32 H12        -0.2445   -7.8902    1.2000 H         1 <0>         0.2120
@<TRIPOS>BOND
     1    1    2 1
     2    1   23 1
     3    1   24 1
     4    1   25 1
     5    2    8 1
     6    2    3 2
     7    3    4 1
     8    3   10 1
     9    4    5 1
    10    4    6 am
    11    6    7 2
    12    6    8 am
    13    8    9 1
    14   10   11 2
    15   10   12 1
    16   12   17 ar
    17   12   13 ar
    18   13   14 ar
    19   13   26 1
    20   14   15 ar
    21   14   27 1
    22   15   16 ar
    23   15   18 1
    24   16   17 ar
    25   16   28 1
    26   17   29 1
    27   18   22 1
    28   18   19 1
    29   19   20 2
    30   19   30 1
    31   20   21 1
    32   20   31 1
    33   21   22 2
    34   22   32 1
@<TRIPOS>MOLECULE
ZINC03861807
   30    31     0     0     0
SMALL
USER_CHARGES

@<TRIPOS>ATOM
      1 C1         -0.0187    1.5258    0.0104 C.3       1 <0>        -0.1415
      2 C2          0.0021   -0.0041    0.0020 C.3       1 <0>        -0.1122
      3 C3          0.7421   -0.5109    1.2415 C.3       1 <0>        -0.1434
      4 C4         -1.4333   -0.5336    0.0129 C.3       1 <0>         0.1228
      5 N1         -2.1054   -0.1483   -1.2305 N.am      1 <0>        -0.5064
      6 C5         -2.7896    1.0542   -1.3029 C.2       1 <0>         0.3270
      7 C6         -3.4188    1.3971   -2.4931 C.2       1 <0>        -0.1566
      8 C7         -3.3428    0.5129   -3.5907 C.2       1 <0>         0.5930
      9 O1         -3.8857    0.7913   -4.6449 O.2       1 <0>        -0.5148
     10 N2         -2.6613   -0.6442   -3.4587 N.am      1 <0>        -0.5518
     11 C8         -2.0526   -0.9608   -2.3028 C.2       1 <0>         0.7063
     12 O2         -1.4428   -2.0098   -2.2221 O.2       1 <0>        -0.5287
     13 C9         -2.5785   -1.5664   -4.5940 C.3       1 <0>         0.0827
     14 N3         -4.0103    2.6257   -2.2774 N.pl3     1 <0>        -0.5187
     15 H1         -4.5284    3.1372   -2.9183 H         1 <0>         0.4381
     16 C10        -3.7321    2.9790   -1.0073 C.2       1 <0>         0.2767
     17 N4         -3.0113    2.0471   -0.4377 N.2       1 <0>        -0.4957
     18 H2          1.0039    1.9031    0.0027 H         1 <0>         0.0532
     19 H3         -0.5459    1.8868   -0.8726 H         1 <0>         0.0473
     20 H4         -0.5289    1.8773    0.9072 H         1 <0>         0.0653
     21 H5          0.5123   -0.3556   -0.8948 H         1 <0>         0.0742
     22 H6          0.2319   -0.1594    2.1383 H         1 <0>         0.0596
     23 H7          0.7568   -1.6008    1.2356 H         1 <0>         0.0591
     24 H8          1.7647   -0.1336    1.2338 H         1 <0>         0.0613
     25 H9         -1.4190   -1.6203    0.0965 H         1 <0>         0.1003
     26 H10        -1.9701   -0.1109    0.8621 H         1 <0>         0.1000
     27 H11        -3.1215   -1.1486   -5.4417 H         1 <0>         0.1034
     28 H12        -1.5337   -1.7124   -4.8680 H         1 <0>         0.0826
     29 H13        -3.0188   -2.5242   -4.3168 H         1 <0>         0.0828
     30 H14        -4.0547    3.8934   -0.5315 H         1 <0>         0.2343
@<TRIPOS>BOND
     1    1    2 1
     2    1   18 1
     3    1   19 1
     4    1   20 1
     5    2    3 1
     6    2    4 1
     7    2   21 1
     8    3   22 1
     9    3   23 1
    10    3   24 1
    11    4    5 1
    12    4   25 1
    13    4   26 1
    14    5   11 am
    15    5    6 1
    16    6   17 1
    17    6    7 2
    18    7    8 1
    19    7   14 1
    20    8    9 2
    21    8   10 am
    22   10   11 am
    23   10   13 1
    24   11   12 2
    25   13   27 1
    26   13   28 1
    27   13   29 1
    28   14   15 1
    29   14   16 1
    30   16   17 2
    31   16   30 1
@<TRIPOS>MOLECULE
ZINC01999244
   47    48     0     0     0
SMALL
USER_CHARGES
7-acetonyl-1,3-dibutyl-purine-2,6-dione
@<TRIPOS>ATOM
      1 C1         -5.7487   -5.7997   -0.0357 C.3       1 <0>        -0.1522
      2 C2         -6.3252   -4.4150    0.2664 C.3       1 <0>        -0.1185
      3 C3         -5.2090   -3.4959    0.7665 C.3       1 <0>        -0.1346
      4 C4         -5.7855   -2.1112    1.0686 C.3       1 <0>         0.1196
      5 N1         -4.7167   -1.2311    1.5475 N.am      1 <0>        -0.5075
      6 C5         -3.9865   -0.4753    0.6447 C.2       1 <0>         0.3236
      7 C6         -2.9741    0.3471    1.1230 C.2       1 <0>        -0.1478
      8 C7         -2.7273    0.3972    2.5119 C.2       1 <0>         0.5964
      9 O1         -1.8485    1.1141    2.9561 O.2       1 <0>        -0.5160
     10 N2         -3.4724   -0.3629    3.3413 N.am      1 <0>        -0.5483
     11 C8         -4.4453   -1.1583    2.8643 C.2       1 <0>         0.7073
     12 O2         -5.0971   -1.8288    3.6416 O.2       1 <0>        -0.5294
     13 C9         -3.2174   -0.3203    4.7833 C.3       1 <0>         0.1147
     14 C10        -2.1803   -1.3840    5.1494 C.3       1 <0>        -0.1337
     15 C11        -1.9140   -1.3395    6.6554 C.3       1 <0>        -0.1186
     16 C12        -0.8769   -2.4031    7.0216 C.3       1 <0>        -0.1523
     17 N3         -2.4300    0.9721    0.0189 N.pl3     1 <0>        -0.4087
     18 C13        -3.0992    0.5194   -1.0594 C.2       1 <0>         0.2757
     19 N4         -4.0166   -0.3346   -0.6830 N.2       1 <0>        -0.4934
     20 C14        -1.3295    1.9391    0.0189 C.3       1 <0>         0.0675
     21 C15        -0.0143    1.2034    0.0087 C.2       1 <0>         0.3386
     22 O3          0.0021   -0.0041    0.0020 O.2       1 <0>        -0.4329
     23 C16         1.2804    1.9746    0.0004 C.3       1 <0>        -0.1888
     24 H1         -6.5439   -6.4545   -0.3920 H         1 <0>         0.0567
     25 H2         -4.9784   -5.7132   -0.8021 H         1 <0>         0.0540
     26 H3         -5.3130   -6.2178    0.8717 H         1 <0>         0.0539
     27 H4         -7.0954   -4.5015    1.0328 H         1 <0>         0.0659
     28 H5         -6.7609   -3.9970   -0.6411 H         1 <0>         0.0661
     29 H6         -4.4387   -3.4094    0.0001 H         1 <0>         0.0686
     30 H7         -4.7733   -3.9139    1.6740 H         1 <0>         0.0680
     31 H8         -6.5557   -2.1977    1.8350 H         1 <0>         0.1000
     32 H9         -6.2212   -1.6932    0.1612 H         1 <0>         0.0988
     33 H10        -2.8394    0.6649    5.0565 H         1 <0>         0.1009
     34 H11        -4.1444   -0.5161    5.3221 H         1 <0>         0.1032
     35 H12        -2.5583   -2.3692    4.8762 H         1 <0>         0.0696
     36 H13        -1.2532   -1.1882    4.6106 H         1 <0>         0.0671
     37 H14        -1.5360   -0.3543    6.9286 H         1 <0>         0.0657
     38 H15        -2.8411   -1.5352    7.1943 H         1 <0>         0.0671
     39 H16         0.0501   -2.2074    6.4827 H         1 <0>         0.0537
     40 H17        -0.6872   -2.3714    8.0945 H         1 <0>         0.0573
     41 H18        -1.2549   -3.3883    6.7484 H         1 <0>         0.0546
     42 H19        -2.9077    0.8167   -2.0798 H         1 <0>         0.2303
     43 H20        -1.3864    2.5088    0.8388 H         1 <0>         0.1200
     44 H21        -1.3999    2.5697   -0.8673 H         1 <0>         0.1395
     45 H22         2.0492    1.3352   -0.0104 H         1 <0>         0.0791
     46 H23         1.3211    2.6067   -0.8866 H         1 <0>         0.0992
     47 H24         1.3381    2.5972    0.8933 H         1 <0>         0.0999
@<TRIPOS>BOND
     1    1    2 1
     2    1   24 1
     3    1   25 1
     4    1   26 1
     5    2    3 1
     6    2   27 1
     7    2   28 1
     8    3    4 1
     9    3   29 1
    10    3   30 1
    11    4    5 1
    12    4   31 1
    13    4   32 1
    14    5   11 am
    15    5    6 1
    16    6   19 1
    17    6    7 2
    18    7    8 1
    19    7   17 1
    20    8    9 2
    21    8   10 am
    22   10   11 am
    23   10   13 1
    24   11   12 2
    25   13   14 1
    26   13   33 1
    27   13   34 1
    28   14   15 1
    29   14   35 1
    30   14   36 1
    31   15   16 1
    32   15   37 1
    33   15   38 1
    34   16   39 1
    35   16   40 1
    36   16   41 1
    37   17   18 1
    38   17   20 1
    39   18   19 2
    40   18   42 1
    41   20   21 1
    42   20   43 1
    43   20   44 1
    44   21   22 2
    45   21   23 1
    46   23   45 1
    47   23   46 1
    48   23   47 1
@<TRIPOS>MOLECULE
ZINC01999244
   48    49     0     0     0
SMALL
USER_CHARGES
7-acetonyl-1,3-dibutyl-purine-2,6-dione
@<TRIPOS>ATOM
      1 C1         -5.7487   -5.7997   -0.0357 C.3       1 <0>        -0.1564
      2 C2         -6.3252   -4.4150    0.2664 C.3       1 <0>        -0.1209
      3 C3         -5.2090   -3.4959    0.7665 C.3       1 <0>        -0.1420
      4 C4         -5.7855   -2.1112    1.0686 C.3       1 <0>         0.0965
      5 N1         -4.7167   -1.2311    1.5475 N.am      1 <0>        -0.5101
      6 C5         -3.9865   -0.4753    0.6447 C.2       1 <0>         0.3520
      7 C6         -2.9741    0.3471    1.1230 C.2       1 <0>        -0.0761
      8 C7         -2.7273    0.3972    2.5119 C.2       1 <0>         0.5909
      9 O1         -1.8485    1.1141    2.9561 O.2       1 <0>        -0.4687
     10 N2         -3.4724   -0.3629    3.3413 N.am      1 <0>        -0.5386
     11 C8         -4.4453   -1.1583    2.8643 C.2       1 <0>         0.7079
     12 O2         -5.0971   -1.8288    3.6416 O.2       1 <0>        -0.4798
     13 C9         -3.2174   -0.3203    4.7833 C.3       1 <0>         0.1077
     14 C10        -2.1803   -1.3840    5.1494 C.3       1 <0>        -0.1350
     15 C11        -1.9140   -1.3395    6.6554 C.3       1 <0>        -0.1200
     16 C12        -0.8769   -2.4031    7.0216 C.3       1 <0>        -0.1542
     17 N3         -2.4300    0.9721    0.0189 N.pl3     1 <0>        -0.3498
     18 C13        -3.0992    0.5194   -1.0594 C.cat     1 <0>         0.3500
     19 C14        -1.3295    1.9391    0.0189 C.3       1 <0>         0.0548
     20 C15        -0.0143    1.2034    0.0087 C.2       1 <0>         0.3460
     21 O3          0.0021   -0.0041    0.0020 O.2       1 <0>        -0.4315
     22 C16         1.2804    1.9746    0.0004 C.3       1 <0>        -0.1881
     23 H1         -6.5439   -6.4545   -0.3920 H         1 <0>         0.0646
     24 H2         -4.9784   -5.7132   -0.8021 H         1 <0>         0.0546
     25 H3         -5.3130   -6.2178    0.8717 H         1 <0>         0.0588
     26 H4         -7.0954   -4.5015    1.0328 H         1 <0>         0.0745
     27 H5         -6.7609   -3.9970   -0.6411 H         1 <0>         0.0673
     28 H6         -4.4387   -3.4094    0.0001 H         1 <0>         0.0653
     29 H7         -4.7733   -3.9139    1.6740 H         1 <0>         0.0832
     30 H8         -6.5557   -2.1977    1.8350 H         1 <0>         0.1275
     31 H9         -6.2212   -1.6932    0.1612 H         1 <0>         0.0976
     32 H10        -2.8394    0.6649    5.0565 H         1 <0>         0.1122
     33 H11        -4.1444   -0.5161    5.3221 H         1 <0>         0.1137
     34 H12        -2.5583   -2.3692    4.8762 H         1 <0>         0.0717
     35 H13        -1.2532   -1.1882    4.6106 H         1 <0>         0.0696
     36 H14        -1.5360   -0.3543    6.9286 H         1 <0>         0.0691
     37 H15        -2.8411   -1.5352    7.1943 H         1 <0>         0.0702
     38 H16         0.0501   -2.2074    6.4827 H         1 <0>         0.0548
     39 H17        -0.6872   -2.3714    8.0945 H         1 <0>         0.0622
     40 H18        -1.2549   -3.3883    6.7484 H         1 <0>         0.0556
     41 H19        -2.9077    0.8167   -2.0798 H         1 <0>         0.2831
     42 H20        -1.3864    2.5088    0.8388 H         1 <0>         0.1423
     43 H21        -1.3999    2.5697   -0.8673 H         1 <0>         0.1674
     44 H22         2.0492    1.3352   -0.0104 H         1 <0>         0.0878
     45 H23         1.3211    2.6067   -0.8866 H         1 <0>         0.1086
     46 H24         1.3381    2.5972    0.8933 H         1 <0>         0.1092
     47 N4         -4.0179   -0.3356   -0.6843 N.pl3     1 <0>        -0.4921
     48 H25        -4.6640   -0.8242   -1.3152 H         1 <0>         0.4867
@<TRIPOS>BOND
     1    1    2 1
     2    1   23 1
     3    1   24 1
     4    1   25 1
     5    2    3 1
     6    2   26 1
     7    2   27 1
     8    3    4 1
     9    3   28 1
    10    3   29 1
    11    4    5 1
    12    4   30 1
    13    4   31 1
    14    5   11 am
    15    5    6 1
    16    6    7 2
    17    6   47 1
    18    7    8 1
    19    7   17 1
    20    8    9 2
    21    8   10 am
    22   10   11 am
    23   10   13 1
    24   11   12 2
    25   13   14 1
    26   13   32 1
    27   13   33 1
    28   14   15 1
    29   14   34 1
    30   14   35 1
    31   15   16 1
    32   15   36 1
    33   15   37 1
    34   16   38 1
    35   16   39 1
    36   16   40 1
    37   17   18 1
    38   17   19 1
    39   18   41 1
    40   18   47 2
    41   19   20 1
    42   19   42 1
    43   19   43 1
    44   20   21 2
    45   20   22 1
    46   22   44 1
    47   22   45 1
    48   22   46 1
    49   47   48 1
@<TRIPOS>MOLECULE
ZINC14953365
   31    33     0     0     0
SMALL
USER_CHARGES

@<TRIPOS>ATOM
      1 C1         -0.0187    1.5258    0.0104 C.3       1 <0>        -0.1423
      2 C2          0.0021   -0.0041    0.0020 C.3       1 <0>        -0.1231
      3 C3          0.7421   -0.5109    1.2415 C.3       1 <0>         0.0541
      4 O1          0.7614   -1.9398    1.2337 O.3       1 <0>        -0.2395
      5 C4          1.3846   -2.5535    2.2722 C.ar      1 <0>         0.1595
      6 C5          1.9611   -1.7987    3.2821 C.ar      1 <0>        -0.2333
      7 C6          2.5948   -2.4244    4.3380 C.ar      1 <0>        -0.0982
      8 C7          2.6582   -3.8062    4.3957 C.ar      1 <0>        -0.1779
      9 C8          2.0888   -4.5703    3.3986 C.ar      1 <0>        -0.0533
     10 C9          1.4423   -3.9501    2.3303 C.ar      1 <0>        -0.0190
     11 C10         0.8245   -4.7657    1.2592 C.ar      1 <0>         0.3508
     12 N1          0.2275   -4.1264    0.2544 N.ar      1 <0>        -0.6291
     13 C11        -0.3501   -4.7739   -0.7445 C.ar      1 <0>         0.5035
     14 O2         -0.9512   -4.1076   -1.7566 O.3       1 <0>        -0.7157
     15 C12        -0.3151   -6.2310   -0.7156 C.ar      1 <0>        -0.1910
     16 N2         -0.7406   -7.2297   -1.4617 N.2       1 <0>        -0.3291
     17 N3         -0.3994   -8.3395   -0.9027 N.2       1 <0>        -0.1963
     18 N4          0.2445   -8.1643    0.1989 N.2       1 <0>        -0.3779
     19 C13         0.3620   -6.8697    0.4258 C.ar      1 <0>         0.1454
     20 N5          0.9051   -6.0766    1.3584 N.ar      1 <0>        -0.5680
     21 H1          1.0039    1.9031    0.0027 H         1 <0>         0.0496
     22 H2         -0.5459    1.8868   -0.8726 H         1 <0>         0.0570
     23 H3         -0.5289    1.8773    0.9072 H         1 <0>         0.0496
     24 H4         -1.0205   -0.3814    0.0098 H         1 <0>         0.0770
     25 H5          0.5123   -0.3556   -0.8948 H         1 <0>         0.0771
     26 H6          1.7647   -0.1336    1.2338 H         1 <0>         0.0463
     27 H7          0.2319   -0.1594    2.1383 H         1 <0>         0.0462
     28 H8          1.9151   -0.7204    3.2430 H         1 <0>         0.1171
     29 H9          3.0433   -1.8327    5.1223 H         1 <0>         0.1089
     30 H10         3.1558   -4.2876    5.2246 H         1 <0>         0.1125
     31 H11         2.1408   -5.6480    3.4470 H         1 <0>         0.1392
@<TRIPOS>BOND
     1    1    2 1
     2    1   21 1
     3    1   22 1
     4    1   23 1
     5    2    3 1
     6    2   24 1
     7    2   25 1
     8    3    4 1
     9    3   26 1
    10    3   27 1
    11    4    5 1
    12    5   10 ar
    13    5    6 ar
    14    6    7 ar
    15    6   28 1
    16    7    8 ar
    17    7   29 1
    18    8    9 ar
    19    8   30 1
    20    9   10 ar
    21    9   31 1
    22   10   11 1
    23   11   20 ar
    24   11   12 ar
    25   12   13 ar
    26   13   14 1
    27   13   15 ar
    28   15   19 ar
    29   15   16 2
    30   16   17 1
    31   17   18 1
    32   18   19 2
    33   19   20 ar
@<TRIPOS>MOLECULE
ZINC14953365
   32    34     0     0     0
SMALL
USER_CHARGES

@<TRIPOS>ATOM
      1 C1         -0.0187    1.5258    0.0104 C.3       1 <0>        -0.1458
      2 C2          0.0021   -0.0041    0.0020 C.3       1 <0>        -0.1216
      3 C3         -1.4333   -0.5336    0.0129 C.3       1 <0>         0.0534
      4 O1         -1.4139   -1.9625    0.0050 O.3       1 <0>        -0.2533
      5 C4         -2.6153   -2.5953    0.0131 C.ar      1 <0>         0.1746
      6 C5         -3.7897   -1.8588    0.0225 C.ar      1 <0>        -0.2311
      7 C6         -5.0111   -2.5039    0.0312 C.ar      1 <0>        -0.0713
      8 C7         -5.0711   -3.8869    0.0301 C.ar      1 <0>        -0.1782
      9 C8         -3.9107   -4.6328    0.0203 C.ar      1 <0>        -0.0340
     10 C9         -2.6726   -3.9927    0.0061 C.ar      1 <0>        -0.0608
     11 C10        -1.4229   -4.7891   -0.0106 C.ar      1 <0>         0.4081
     12 N1         -0.2554   -4.1511   -0.0133 N.ar      1 <0>        -0.5727
     13 C11         0.8902   -4.8180   -0.0276 C.ar      1 <0>         0.4867
     14 O2          2.0741   -4.1594   -0.0298 O.3       1 <0>        -0.6795
     15 C12         0.8508   -6.2155   -0.0399 C.ar      1 <0>        -0.1593
     16 C13        -0.4029   -6.8559   -0.0366 C.ar      1 <0>         0.2596
     17 N2         -1.5075   -6.1089   -0.0169 N.ar      1 <0>        -0.5690
     18 N3         -0.1345   -8.1734   -0.0512 N.2       1 <0>        -0.2773
     19 N4          1.1405   -8.3484   -0.0624 N.2       1 <0>        -0.0384
     20 N5          1.7753   -7.2265   -0.0565 N.pl3     1 <0>        -0.3729
     21 H1          2.7391   -7.1171   -0.0631 H         1 <0>         0.4476
     22 H2          1.0039    1.9031    0.0027 H         1 <0>         0.0602
     23 H3         -0.5459    1.8868   -0.8726 H         1 <0>         0.0527
     24 H4         -0.5289    1.8773    0.9072 H         1 <0>         0.0527
     25 H5          0.5123   -0.3556   -0.8948 H         1 <0>         0.0759
     26 H6          0.5293   -0.3651    0.8851 H         1 <0>         0.0760
     27 H7         -1.9435   -0.1821    0.9097 H         1 <0>         0.0536
     28 H8         -1.9605   -0.1726   -0.8702 H         1 <0>         0.0536
     29 H9         -3.7496   -0.7795    0.0234 H         1 <0>         0.1258
     30 H10        -5.9238   -1.9264    0.0393 H         1 <0>         0.1192
     31 H11        -6.0299   -4.3838    0.0374 H         1 <0>         0.1223
     32 H12        -3.9616   -5.7116    0.0195 H         1 <0>         0.1433
@<TRIPOS>BOND
     1    1    2 1
     2    1   22 1
     3    1   23 1
     4    1   24 1
     5    2    3 1
     6    2   25 1
     7    2   26 1
     8    3    4 1
     9    3   27 1
    10    3   28 1
    11    4    5 1
    12    5   10 ar
    13    5    6 ar
    14    6    7 ar
    15    6   29 1
    16    7    8 ar
    17    7   30 1
    18    8    9 ar
    19    8   31 1
    20    9   10 ar
    21    9   32 1
    22   10   11 1
    23   11   17 ar
    24   11   12 ar
    25   12   13 ar
    26   13   14 1
    27   13   15 ar
    28   15   16 ar
    29   15   20 1
    30   16   17 ar
    31   16   18 1
    32   18   19 2
    33   19   20 1
    34   20   21 1
@<TRIPOS>MOLECULE
ZINC14953365
   32    34     0     0     0
SMALL
USER_CHARGES

@<TRIPOS>ATOM
      1 C1         -0.0187    1.5258    0.0104 C.3       1 <0>        -0.1457
      2 C2          0.0021   -0.0041    0.0020 C.3       1 <0>        -0.1224
      3 C3         -1.4333   -0.5336    0.0129 C.3       1 <0>         0.0532
      4 O1         -1.4139   -1.9625    0.0050 O.3       1 <0>        -0.2520
      5 C4         -2.6152   -2.5953    0.0131 C.ar      1 <0>         0.1789
      6 C5         -3.7896   -1.8588    0.0225 C.ar      1 <0>        -0.2310
      7 C6         -5.0111   -2.5039    0.0308 C.ar      1 <0>        -0.0680
      8 C7         -5.0712   -3.8870    0.0297 C.ar      1 <0>        -0.1802
      9 C8         -3.9111   -4.6331    0.0208 C.ar      1 <0>        -0.0323
     10 C9         -2.6726   -3.9930    0.0061 C.ar      1 <0>        -0.0665
     11 C10        -1.4235   -4.7891   -0.0106 C.ar      1 <0>         0.4378
     12 N1         -0.2555   -4.1526   -0.0133 N.ar      1 <0>        -0.5853
     13 C11         0.8886   -4.8183   -0.0276 C.ar      1 <0>         0.5093
     14 O2          2.0713   -4.1592   -0.0297 O.3       1 <0>        -0.6423
     15 C12         0.8505   -6.2267   -0.0400 C.ar      1 <0>        -0.1919
     16 C13        -0.4080   -6.8564   -0.0366 C.ar      1 <0>         0.3382
     17 N2         -1.5070   -6.1104   -0.0169 N.ar      1 <0>        -0.6189
     18 N3         -0.1580   -8.2010   -0.0510 N.pl3     1 <0>        -0.5059
     19 N4          1.2372   -8.3495   -0.0627 N.2       1 <0>        -0.0830
     20 N5          1.7907   -7.1872   -0.0559 N.2       1 <0>        -0.1662
     21 H1         -0.8167   -8.9130   -0.0527 H         1 <0>         0.4358
     22 H2          1.0039    1.9031    0.0027 H         1 <0>         0.0608
     23 H3         -0.5459    1.8868   -0.8726 H         1 <0>         0.0526
     24 H4         -0.5289    1.8773    0.9072 H         1 <0>         0.0526
     25 H5          0.5123   -0.3556   -0.8948 H         1 <0>         0.0768
     26 H6          0.5293   -0.3651    0.8851 H         1 <0>         0.0769
     27 H7         -1.9435   -0.1821    0.9097 H         1 <0>         0.0542
     28 H8         -1.9605   -0.1726   -0.8702 H         1 <0>         0.0542
     29 H9         -3.7496   -0.7795    0.0238 H         1 <0>         0.1271
     30 H10        -5.9237   -1.9264    0.0385 H         1 <0>         0.1201
     31 H11        -6.0302   -4.3837    0.0362 H         1 <0>         0.1222
     32 H12        -3.9622   -5.7119    0.0203 H         1 <0>         0.1409
@<TRIPOS>BOND
     1    1    2 1
     2    1   22 1
     3    1   23 1
     4    1   24 1
     5    2    3 1
     6    2   25 1
     7    2   26 1
     8    3    4 1
     9    3   27 1
    10    3   28 1
    11    4    5 1
    12    5   10 ar
    13    5    6 ar
    14    6    7 ar
    15    6   29 1
    16    7    8 ar
    17    7   30 1
    18    8    9 ar
    19    8   31 1
    20    9   10 ar
    21    9   32 1
    22   10   11 1
    23   11   17 ar
    24   11   12 ar
    25   12   13 ar
    26   13   14 1
    27   13   15 ar
    28   15   16 ar
    29   15   20 1
    30   16   17 ar
    31   16   18 1
    32   18   21 1
    33   18   19 1
    34   19   20 2
@<TRIPOS>MOLECULE
ZINC14953365
   32    34     0     0     0
SMALL
USER_CHARGES

@<TRIPOS>ATOM
      1 C1         -0.0187    1.5258    0.0104 C.3       1 <0>        -0.1457
      2 C2          0.0021   -0.0041    0.0020 C.3       1 <0>        -0.1218
      3 C3          0.7421   -0.5109    1.2415 C.3       1 <0>         0.0528
      4 O1          0.7614   -1.9398    1.2337 O.3       1 <0>        -0.2494
      5 C4          1.3846   -2.5535    2.2722 C.ar      1 <0>         0.1779
      6 C5          1.9611   -1.7987    3.2821 C.ar      1 <0>        -0.2330
      7 C6          2.5948   -2.4244    4.3380 C.ar      1 <0>        -0.0705
      8 C7          2.6582   -3.8062    4.3957 C.ar      1 <0>        -0.1809
      9 C8          2.0888   -4.5703    3.3986 C.ar      1 <0>        -0.0318
     10 C9          1.4423   -3.9501    2.3303 C.ar      1 <0>        -0.0655
     11 C10         0.8245   -4.7657    1.2592 C.ar      1 <0>         0.4409
     12 N1          0.2275   -4.1264    0.2544 N.ar      1 <0>        -0.6040
     13 C11        -0.3501   -4.7739   -0.7445 C.ar      1 <0>         0.5269
     14 O2         -0.9512   -4.1076   -1.7566 O.3       1 <0>        -0.6419
     15 C12        -0.3151   -6.2310   -0.7156 C.ar      1 <0>        -0.1264
     16 N2         -0.7406   -7.2297   -1.4617 N.2       1 <0>        -0.2278
     17 N3         -0.3994   -8.3395   -0.9027 N.pl3     1 <0>        -0.2462
     18 N4          0.2445   -8.1643    0.1989 N.2       1 <0>        -0.3215
     19 C13         0.3620   -6.8697    0.4258 C.ar      1 <0>         0.2652
     20 N5          0.9051   -6.0766    1.3584 N.ar      1 <0>        -0.5901
     21 H1          1.0039    1.9031    0.0027 H         1 <0>         0.0523
     22 H2         -0.5459    1.8868   -0.8726 H         1 <0>         0.0600
     23 H3         -0.5289    1.8773    0.9072 H         1 <0>         0.0523
     24 H4         -1.0205   -0.3814    0.0098 H         1 <0>         0.0764
     25 H5          0.5123   -0.3556   -0.8948 H         1 <0>         0.0765
     26 H6          1.7647   -0.1336    1.2338 H         1 <0>         0.0531
     27 H7          0.2319   -0.1594    2.1383 H         1 <0>         0.0530
     28 H8          1.9151   -0.7204    3.2430 H         1 <0>         0.1254
     29 H9          3.0433   -1.8327    5.1223 H         1 <0>         0.1184
     30 H10         3.1558   -4.2876    5.2246 H         1 <0>         0.1211
     31 H11         2.1408   -5.6480    3.4470 H         1 <0>         0.1429
     32 H12        -0.6055   -9.2126   -1.2715 H         1 <0>         0.4610
@<TRIPOS>BOND
     1    1    2 1
     2    1   21 1
     3    1   22 1
     4    1   23 1
     5    2    3 1
     6    2   24 1
     7    2   25 1
     8    3    4 1
     9    3   26 1
    10    3   27 1
    11    4    5 1
    12    5   10 ar
    13    5    6 ar
    14    6    7 ar
    15    6   28 1
    16    7    8 ar
    17    7   29 1
    18    8    9 ar
    19    8   30 1
    20    9   10 ar
    21    9   31 1
    22   10   11 1
    23   11   20 ar
    24   11   12 ar
    25   12   13 ar
    26   13   14 1
    27   13   15 ar
    28   15   19 ar
    29   15   16 2
    30   16   17 1
    31   17   18 1
    32   17   32 1
    33   18   19 2
    34   19   20 ar
@<TRIPOS>MOLECULE
ZINC36268618
   58    61     0     0     0
SMALL
USER_CHARGES

@<TRIPOS>ATOM
      1 C1         -4.5012   -0.9534   -0.2463 C.3       1 <0>        -0.1268
      2 C2         -3.2042   -1.7050   -0.0914 C.ar      1 <0>        -0.0515
      3 C3         -2.0046   -1.0754   -0.3690 C.ar      1 <0>        -0.1090
      4 C4         -0.8142   -1.7611   -0.2277 C.ar      1 <0>        -0.0728
      5 C5         -0.8227   -3.0846    0.1939 C.ar      1 <0>         0.0852
      6 C6         -2.0294   -3.7140    0.4719 C.ar      1 <0>        -0.0744
      7 C7         -3.2159   -3.0209    0.3336 C.ar      1 <0>        -0.1097
      8 C8         -2.0434   -5.1497    0.9296 C.3       1 <0>        -0.1249
      9 N1          0.3805   -3.7818    0.3376 N.pl3     1 <0>        -0.6590
     10 C9          0.7060   -4.3483    1.5460 C.2       1 <0>         0.5430
     11 C10         1.0395   -5.6875    1.6308 C.2       1 <0>        -0.2926
     12 C11         1.3682   -6.2231    2.8799 C.2       1 <0>         0.3757
     13 N2          1.3939   -5.4405    3.9585 N.am      1 <0>        -0.4716
     14 C12         1.0547   -4.1543    3.8640 C.2       1 <0>         0.6742
     15 O1          1.0598   -3.4634    4.8695 O.2       1 <0>        -0.4806
     16 N3          0.7126   -3.5979    2.6899 N.am      1 <0>        -0.4984
     17 C13         0.3394   -2.1822    2.6355 C.3       1 <0>         0.0439
     18 C14         1.8361   -5.9629    5.2532 C.3       1 <0>         0.0844
     19 C15         1.3548   -7.3947    5.4680 C.3       1 <0>        -0.1039
     20 C16         1.7162   -8.2404    4.2747 C.ar      1 <0>        -0.0191
     21 C17         1.7088   -7.6567    3.0061 C.ar      1 <0>        -0.1341
     22 C18         2.0214   -8.4213    1.8843 C.ar      1 <0>        -0.1073
     23 C19         2.3480   -9.7569    2.0364 C.ar      1 <0>         0.0994
     24 C20         2.3636  -10.3313    3.3059 C.ar      1 <0>         0.1761
     25 C21         2.0469   -9.5682    4.4223 C.ar      1 <0>        -0.1794
     26 O2          2.6898  -11.6421    3.4521 O.3       1 <0>        -0.2868
     27 C22         2.6862  -12.1672    4.7810 C.3       1 <0>         0.0160
     28 O3          2.6538  -10.5100    0.9461 O.3       1 <0>        -0.2932
     29 C23         2.6176   -9.8569   -0.3244 C.3       1 <0>         0.0191
     30 C24         0.4925   -1.0744   -0.5310 C.3       1 <0>        -0.1247
     31 H1         -4.7481   -0.4576    0.6925 H         1 <0>         0.0805
     32 H2         -4.3972   -0.2078   -1.0346 H         1 <0>         0.0757
     33 H3         -5.2963   -1.6512   -0.5088 H         1 <0>         0.0747
     34 H4         -1.9988   -0.0465   -0.6971 H         1 <0>         0.1379
     35 H5         -4.1542   -3.5084    0.5535 H         1 <0>         0.1357
     36 H6         -1.8916   -5.1887    2.0083 H         1 <0>         0.0609
     37 H7         -3.0042   -5.6008    0.6814 H         1 <0>         0.0845
     38 H8         -1.2447   -5.6981    0.4303 H         1 <0>         0.0736
     39 H9          1.0462   -6.3090    0.7476 H         1 <0>         0.1978
     40 H10        -0.7440   -2.0890    2.7102 H         1 <0>         0.0988
     41 H11         0.8078   -1.6509    3.4640 H         1 <0>         0.1188
     42 H12         0.6768   -1.7536    1.6918 H         1 <0>         0.1126
     43 H13         2.9252   -5.9429    5.2928 H         1 <0>         0.1161
     44 H14         1.4396   -5.3303    6.0474 H         1 <0>         0.1370
     45 H15         1.8278   -7.8058    6.3599 H         1 <0>         0.1288
     46 H16         0.2728   -7.3972    5.5994 H         1 <0>         0.1065
     47 H17         2.0085   -7.9740    0.9014 H         1 <0>         0.1541
     48 H18         2.0601  -10.0162    5.4050 H         1 <0>         0.1586
     49 H19         3.4029  -11.6173    5.3910 H         1 <0>         0.0658
     50 H20         1.6895  -12.0639    5.2099 H         1 <0>         0.0658
     51 H21         2.9636  -13.2211    4.7560 H         1 <0>         0.1151
     52 H22         2.8810  -10.5689   -1.1066 H         1 <0>         0.1127
     53 H23         1.6144   -9.4717   -0.5065 H         1 <0>         0.0600
     54 H24         3.3300   -9.0319   -0.3292 H         1 <0>         0.0601
     55 H25         0.8708   -0.5976    0.3732 H         1 <0>         0.0785
     56 H26         1.2158   -1.8094   -0.8840 H         1 <0>         0.0667
     57 H27         0.3360   -0.3195   -1.3016 H         1 <0>         0.0850
     58 H28         0.9855   -3.8656   -0.4160 H         1 <0>         0.4407
@<TRIPOS>BOND
     1    1    2 1
     2    1   31 1
     3    1   32 1
     4    1   33 1
     5    2    7 ar
     6    2    3 ar
     7    3    4 ar
     8    3   34 1
     9    4    5 ar
    10    4   30 1
    11    5    6 ar
    12    5    9 1
    13    6    7 ar
    14    6    8 1
    15    7   35 1
    16    8   36 1
    17    8   37 1
    18    8   38 1
    19    9   10 1
    20    9   58 1
    21   10   16 1
    22   10   11 2
    23   11   12 1
    24   11   39 1
    25   12   21 1
    26   12   13 2
    27   13   14 am
    28   13   18 1
    29   14   15 2
    30   14   16 am
    31   16   17 1
    32   17   40 1
    33   17   41 1
    34   17   42 1
    35   18   19 1
    36   18   43 1
    37   18   44 1
    38   19   20 1
    39   19   45 1
    40   19   46 1
    41   20   25 ar
    42   20   21 ar
    43   21   22 ar
    44   22   23 ar
    45   22   47 1
    46   23   24 ar
    47   23   28 1
    48   24   25 ar
    49   24   26 1
    50   25   48 1
    51   26   27 1
    52   27   49 1
    53   27   50 1
    54   27   51 1
    55   28   29 1
    56   29   52 1
    57   29   53 1
    58   29   54 1
    59   30   55 1
    60   30   56 1
    61   30   57 1
@<TRIPOS>MOLECULE
ZINC06032206
   33    35     0     0     0
SMALL
USER_CHARGES
5-[(3S)-3-methyl-3-methylsulfanyl-2-oxo-indolin-5-yl]-3,6-dihydro-1,3,4-thiadiazin-2-one
@<TRIPOS>ATOM
      1 C1          2.0457    1.8945    1.2504 C.3       1 <0>        -0.1327
      2 C2          1.1913    2.1241    0.0021 C.3       1 <0>        -0.0305
      3 C3          0.5969    3.5139    0.0152 C.ar      1 <0>        -0.1289
      4 C4          1.1584    4.7674    0.0162 C.ar      1 <0>         0.0000
      5 C5          0.3349    5.8976    0.0298 C.ar      1 <0>        -0.0765
      6 C6         -1.0536    5.7374    0.0422 C.ar      1 <0>        -0.0454
      7 C7         -1.6051    4.4771    0.0411 C.ar      1 <0>        -0.1397
      8 C8         -0.7842    3.3483    0.0275 C.ar      1 <0>         0.1777
      9 N1         -1.1060    1.9916    0.0174 N.am      1 <0>        -0.6647
     10 C9         -0.0144    1.2087    0.0087 C.2       1 <0>         0.5477
     11 O1          0.0021   -0.0041    0.0020 O.2       1 <0>        -0.4859
     12 C10         0.9267    7.2478    0.0314 C.2       1 <0>         0.1788
     13 N2          2.2056    7.3563    0.0254 N.2       1 <0>        -0.2479
     14 N3          2.9047    8.5564    0.0150 N.am      1 <0>        -0.5535
     15 C11         2.3777    9.7097    0.4603 C.2       1 <0>         0.4971
     16 O2          3.0387   10.7306    0.4386 O.2       1 <0>        -0.4767
     17 S1          0.7256    9.7395    1.0768 S.3       1 <0>        -0.1072
     18 C12         0.0051    8.4355    0.0462 C.3       1 <0>        -0.1207
     19 S2          2.1779    1.8651   -1.4979 S.3       1 <0>        -0.1874
     20 C13         2.6990    0.1311   -1.3865 C.3       1 <0>        -0.1378
     21 H1          2.9157    2.5673    1.2281 H         1 <0>         0.0882
     22 H2          2.3903    0.8501    1.2718 H         1 <0>         0.0735
     23 H3          1.4454    2.1010    2.1487 H         1 <0>         0.0732
     24 H4          2.2325    4.8798    0.0062 H         1 <0>         0.1466
     25 H5         -1.6955    6.6058    0.0523 H         1 <0>         0.1425
     26 H6         -2.6787    4.3605    0.0507 H         1 <0>         0.1400
     27 H7         -2.1598    1.6763    0.0173 H         1 <0>         0.4462
     28 H8          3.9349    8.5895   -0.3692 H         1 <0>         0.4673
     29 H9         -0.1285    8.8087   -0.9799 H         1 <0>         0.1272
     30 H10        -0.9705    8.1375    0.4579 H         1 <0>         0.1463
     31 H11         3.3114   -0.1248   -2.2637 H         1 <0>         0.1080
     32 H12         1.8110   -0.5175   -1.3574 H         1 <0>         0.0923
     33 H13         3.2906   -0.0159   -0.4708 H         1 <0>         0.0828
@<TRIPOS>BOND
     1    1    2 1
     2    1   21 1
     3    1   22 1
     4    1   23 1
     5    2   10 1
     6    2    3 1
     7    2   19 1
     8    3    8 ar
     9    3    4 ar
    10    4    5 ar
    11    4   24 1
    12    5    6 ar
    13    5   12 1
    14    6    7 ar
    15    6   25 1
    16    7    8 ar
    17    7   26 1
    18    8    9 1
    19    9   10 am
    20    9   27 1
    21   10   11 2
    22   12   18 1
    23   12   13 2
    24   13   14 1
    25   14   15 am
    26   14   28 1
    27   15   16 2
    28   15   17 1
    29   17   18 1
    30   18   29 1
    31   18   30 1
    32   19   20 1
    33   20   31 1
    34   20   32 1
    35   20   33 1
@<TRIPOS>MOLECULE
ZINC06067429
   33    35     0     0     0
SMALL
USER_CHARGES
5-[(3R)-3-methyl-3-methylsulfanyl-2-oxo-indolin-5-yl]-3,6-dihydro-1,3,4-thiadiazin-2-one
@<TRIPOS>ATOM
      1 C1          1.1218    3.8976   -1.2454 C.3       1 <0>        -0.1323
      2 C2          0.6397    3.1731    0.0130 C.3       1 <0>        -0.0308
      3 C3         -0.8692    3.0825    0.0269 C.ar      1 <0>        -0.1288
      4 C4         -1.8595    4.0341    0.0411 C.ar      1 <0>        -0.0001
      5 C5         -3.2014    3.6403    0.0514 C.ar      1 <0>        -0.0765
      6 C6         -3.5193    2.2792    0.0471 C.ar      1 <0>        -0.0455
      7 C7         -2.5191    1.3348    0.0329 C.ar      1 <0>        -0.1397
      8 C8         -1.1795    1.7266    0.0166 C.ar      1 <0>         0.1777
      9 N1         -0.0111    0.9658    0.0074 N.am      1 <0>        -0.6648
     10 C9          1.0944    1.7292    0.0009 C.2       1 <0>         0.5477
     11 O1          2.2415    1.3354   -0.0116 O.2       1 <0>        -0.4859
     12 C10        -4.2726    4.6531    0.0662 C.2       1 <0>         0.1785
     13 N2         -3.9430    5.8935    0.0745 N.2       1 <0>        -0.2478
     14 N3         -4.8367    6.9567    0.0776 N.am      1 <0>        -0.5535
     15 C11        -6.0998    6.8447    0.5230 C.2       1 <0>         0.4972
     16 O2         -6.8378    7.8115    0.5127 O.2       1 <0>        -0.4767
     17 S1         -6.6848    5.2924    1.1218 S.3       1 <0>        -0.1066
     18 C12        -5.7017    4.1863    0.0769 C.3       1 <0>        -0.1206
     19 S2          1.2431    4.0171    1.5010 S.3       1 <0>        -0.1868
     20 C13         3.0490    3.9222    1.3575 C.3       1 <0>        -0.1378
     21 H1          0.7825    4.9436   -1.2190 H         1 <0>         0.0881
     22 H2          0.7088    3.4005   -2.1356 H         1 <0>         0.0730
     23 H3          2.2207    3.8695   -1.2864 H         1 <0>         0.0735
     24 H4         -1.6028    5.0832    0.0447 H         1 <0>         0.1465
     25 H5         -4.5534    1.9680    0.0554 H         1 <0>         0.1425
     26 H6         -2.7718    0.2847    0.0296 H         1 <0>         0.1400
     27 H7         -0.0700   -0.1326    0.0062 H         1 <0>         0.4462
     28 H8         -4.5205    7.9421   -0.2954 H         1 <0>         0.4670
     29 H9         -6.0991    4.1987   -0.9487 H         1 <0>         0.1270
     30 H10        -5.7501    3.1626    0.4765 H         1 <0>         0.1463
     31 H11         3.5121    4.4138    2.2257 H         1 <0>         0.1080
     32 H12         3.3706    4.4278    0.4350 H         1 <0>         0.0827
     33 H13         3.3593    2.8674    1.3247 H         1 <0>         0.0923
@<TRIPOS>BOND
     1    1    2 1
     2    1   21 1
     3    1   22 1
     4    1   23 1
     5    2   10 1
     6    2    3 1
     7    2   19 1
     8    3    8 ar
     9    3    4 ar
    10    4    5 ar
    11    4   24 1
    12    5    6 ar
    13    5   12 1
    14    6    7 ar
    15    6   25 1
    16    7    8 ar
    17    7   26 1
    18    8    9 1
    19    9   10 am
    20    9   27 1
    21   10   11 2
    22   12   18 1
    23   12   13 2
    24   13   14 1
    25   14   15 am
    26   14   28 1
    27   15   16 2
    28   15   17 1
    29   17   18 1
    30   18   29 1
    31   18   30 1
    32   19   20 1
    33   20   31 1
    34   20   32 1
    35   20   33 1
@<TRIPOS>MOLECULE
ZINC13736993
   43    45     0     0     0
SMALL
USER_CHARGES
N-(3-chloro-4-pyridyl)-3-(cyclopentoxy)-4-methoxy-benzamide
@<TRIPOS>ATOM
      1 C1         -8.2387    7.4861   -0.3809 C.3       1 <0>         0.0218
      2 O1         -8.3582    6.0622   -0.3906 O.3       1 <0>        -0.2981
      3 C2         -7.2116    5.3482   -0.5310 C.ar      1 <0>         0.1364
      4 C3         -5.9962    6.0074   -0.6573 C.ar      1 <0>        -0.1816
      5 C4         -4.8295    5.2875   -0.7947 C.ar      1 <0>        -0.0758
      6 C5         -4.8689    3.8910   -0.8188 C.ar      1 <0>        -0.1444
      7 C6         -6.0922    3.2273   -0.6916 C.ar      1 <0>        -0.1095
      8 C7         -7.2575    3.9550   -0.5484 C.ar      1 <0>         0.0988
      9 O2         -8.4496    3.3123   -0.4239 O.3       1 <0>        -0.2924
     10 C8         -8.4105    1.8880   -0.3152 C.3       1 <0>         0.0756
     11 C9         -8.4021    1.2508   -1.7202 C.3       1 <0>        -0.1504
     12 C10        -9.2743   -0.0206   -1.5650 C.3       1 <0>        -0.1236
     13 C11       -10.3975    0.4492   -0.6075 C.3       1 <0>        -0.1237
     14 C12        -9.6784    1.3783    0.3922 C.3       1 <0>        -0.1208
     15 C13        -3.6209    3.1185   -0.9721 C.2       1 <0>         0.5708
     16 O3         -3.6562    1.9033   -0.9878 O.2       1 <0>        -0.5052
     17 N1         -2.4420    3.7601   -1.0946 N.am      1 <0>        -0.6597
     18 C14        -1.2777    3.0365   -1.3537 C.ar      1 <0>         0.2078
     19 C15        -1.3400    1.7307   -1.8378 C.ar      1 <0>        -0.1868
     20 C16        -0.1658    1.0472   -2.0762 C.ar      1 <0>         0.1265
     21 N2          1.0049    1.6176   -1.8625 N.ar      1 <0>        -0.4854
     22 C17         1.1067    2.8532   -1.4105 C.ar      1 <0>         0.1398
     23 C18        -0.0208    3.6030   -1.1411 C.ar      1 <0>        -0.1330
     24 Cl1         0.1235    5.2273   -0.5457 Cl        1 <0>        -0.0509
     25 H1         -9.2259    7.9328   -0.2627 H         1 <0>         0.1056
     26 H2         -7.6001    7.7916    0.4480 H         1 <0>         0.0592
     27 H3         -7.7989    7.8202   -1.3206 H         1 <0>         0.0592
     28 H4         -5.9648    7.0868   -0.6434 H         1 <0>         0.1460
     29 H5         -3.8849    5.8027   -0.8883 H         1 <0>         0.1301
     30 H6         -6.1262    2.1480   -0.7049 H         1 <0>         0.1529
     31 H7         -7.5241    1.5803    0.2395 H         1 <0>         0.0779
     32 H8         -8.8440    1.9297   -2.4495 H         1 <0>         0.0808
     33 H9         -7.3864    0.9843   -2.0121 H         1 <0>         0.0734
     34 H10        -8.6988   -0.8308   -1.1172 H         1 <0>         0.0713
     35 H11        -9.6884   -0.3249   -2.5263 H         1 <0>         0.0728
     36 H12       -10.8373   -0.4024   -0.0884 H         1 <0>         0.0717
     37 H13       -11.1620    0.9986   -1.1568 H         1 <0>         0.0705
     38 H14        -9.4073    0.8226    1.2898 H         1 <0>         0.0787
     39 H15       -10.3235    2.2174    0.6526 H         1 <0>         0.0828
     40 H16        -2.4031    4.7249   -1.0026 H         1 <0>         0.4165
     41 H17        -2.2945    1.2591   -2.0192 H         1 <0>         0.1761
     42 H18        -0.2051    0.0335   -2.4468 H         1 <0>         0.1687
     43 H19         2.0842    3.2831   -1.2490 H         1 <0>         0.1695
@<TRIPOS>BOND
     1    1    2 1
     2    1   25 1
     3    1   26 1
     4    1   27 1
     5    2    3 1
     6    3    8 ar
     7    3    4 ar
     8    4    5 ar
     9    4   28 1
    10    5    6 ar
    11    5   29 1
    12    6    7 ar
    13    6   15 1
    14    7    8 ar
    15    7   30 1
    16    8    9 1
    17    9   10 1
    18   10   14 1
    19   10   11 1
    20   10   31 1
    21   11   12 1
    22   11   32 1
    23   11   33 1
    24   12   13 1
    25   12   34 1
    26   12   35 1
    27   13   14 1
    28   13   36 1
    29   13   37 1
    30   14   38 1
    31   14   39 1
    32   15   16 2
    33   15   17 am
    34   17   18 1
    35   17   40 1
    36   18   23 ar
    37   18   19 ar
    38   19   20 ar
    39   19   41 1
    40   20   21 ar
    41   20   42 1
    42   21   22 ar
    43   22   23 ar
    44   22   43 1
    45   23   24 1
@<TRIPOS>MOLECULE
ZINC00021732
   39    41     0     0     0
SMALL
USER_CHARGES

@<TRIPOS>ATOM
      1 C1         -0.0173    1.4248    0.0099 C.3       1 <0>         0.0202
      2 O1          0.0021   -0.0041    0.0020 O.3       1 <0>        -0.2975
      3 C2         -1.2011   -0.6379    0.0101 C.ar      1 <0>         0.1622
      4 C3         -2.3743    0.0994    0.0195 C.ar      1 <0>        -0.1958
      5 C4         -3.5965   -0.5465    0.0272 C.ar      1 <0>        -0.0098
      6 C5         -3.6519   -1.9279    0.0261 C.ar      1 <0>        -0.6799
      7 C6         -2.4852   -2.6694    0.0172 C.ar      1 <0>        -0.0746
      8 C7         -1.2569   -2.0283    0.0032 C.ar      1 <0>         0.0844
      9 O2         -0.1083   -2.7563   -0.0116 O.3       1 <0>        -0.3018
     10 C8         -0.2420   -4.1790   -0.0180 C.3       1 <0>         0.0188
     11 S1         -5.2128   -2.7451    0.0365 S.o2      1 <0>         2.6988
     12 O3         -4.9910   -4.0374    0.5843 O.2       1 <0>        -0.9394
     13 O4         -6.1462   -1.8308    0.5952 O.2       1 <0>        -0.9393
     14 N1         -5.6581   -2.9704   -1.5425 N.pl3     1 <0>        -0.9377
     15 C9         -6.4360   -2.0181   -2.3395 C.3       1 <0>         0.1121
     16 C10        -6.5861   -2.6766   -3.7207 C.3       1 <0>        -0.0825
     17 C11        -5.8568   -3.9953   -3.5938 C.ar      1 <0>        -0.1299
     18 C12        -5.3422   -4.0925   -2.3101 C.ar      1 <0>         0.1574
     19 C13        -4.6170   -5.2318   -1.9554 C.ar      1 <0>        -0.1549
     20 C14        -4.4142   -6.2405   -2.8731 C.ar      1 <0>        -0.0858
     21 C15        -4.9281   -6.1317   -4.1521 C.ar      1 <0>        -0.1408
     22 C16        -5.6552   -5.0107   -4.5082 C.ar      1 <0>        -0.0761
     23 H1          1.0053    1.8021    0.0021 H         1 <0>         0.1077
     24 H2         -0.5445    1.7859   -0.8732 H         1 <0>         0.0608
     25 H3         -0.5275    1.7763    0.9067 H         1 <0>         0.0613
     26 H4         -2.3338    1.1787    0.0211 H         1 <0>         0.1489
     27 H5         -4.5102    0.0294    0.0345 H         1 <0>         0.1467
     28 H6         -2.5312   -3.7485    0.0167 H         1 <0>         0.1515
     29 H7         -0.7791   -4.4975    0.8754 H         1 <0>         0.0602
     30 H8         -0.7960   -4.4879   -0.9044 H         1 <0>         0.0587
     31 H9          0.7471   -4.6369   -0.0298 H         1 <0>         0.1074
     32 H10        -7.4152   -1.8584   -1.8882 H         1 <0>         0.0923
     33 H11        -5.9006   -1.0727   -2.4275 H         1 <0>         0.0837
     34 H12        -7.6385   -2.8445   -3.9496 H         1 <0>         0.0935
     35 H13        -6.1227   -2.0581   -4.4893 H         1 <0>         0.0921
     36 H14        -4.2129   -5.3230   -0.9580 H         1 <0>         0.1408
     37 H15        -3.8517   -7.1186   -2.5921 H         1 <0>         0.1311
     38 H16        -4.7675   -6.9232   -4.8691 H         1 <0>         0.1284
     39 H17        -6.0561   -4.9236   -5.5072 H         1 <0>         0.1266
@<TRIPOS>BOND
     1    1    2 1
     2    1   23 1
     3    1   24 1
     4    1   25 1
     5    2    3 1
     6    3    8 ar
     7    3    4 ar
     8    4    5 ar
     9    4   26 1
    10    5    6 ar
    11    5   27 1
    12    6    7 ar
    13    6   11 1
    14    7    8 ar
    15    7   28 1
    16    8    9 1
    17    9   10 1
    18   10   29 1
    19   10   30 1
    20   10   31 1
    21   11   12 2
    22   11   13 2
    23   11   14 1
    24   14   18 1
    25   14   15 1
    26   15   16 1
    27   15   32 1
    28   15   33 1
    29   16   17 1
    30   16   34 1
    31   16   35 1
    32   17   22 ar
    33   17   18 ar
    34   18   19 ar
    35   19   20 ar
    36   19   36 1
    37   20   21 ar
    38   20   37 1
    39   21   22 ar
    40   21   38 1
    41   22   39 1
@<TRIPOS>MOLECULE
ZINC09230249
   29    30     0     0     0
SMALL
USER_CHARGES

@<TRIPOS>ATOM
      1 C1         -0.0173    1.4248    0.0099 C.3       1 <0>         0.0236
      2 O1          0.0021   -0.0041    0.0020 O.3       1 <0>        -0.3040
      3 C2         -1.2011   -0.6379    0.0101 C.ar      1 <0>         0.1175
      4 C3         -2.3714    0.0993    0.0195 C.ar      1 <0>        -0.1445
      5 C4         -3.6031   -0.5532    0.0272 C.ar      1 <0>        -0.0191
      6 C5         -3.6514   -1.9463    0.0256 C.ar      1 <0>        -0.0954
      7 C6         -2.4813   -2.6777    0.0162 C.ar      1 <0>        -0.1520
      8 C7         -1.2554   -2.0294    0.0031 C.ar      1 <0>         0.0894
      9 O2         -0.1049   -2.7535   -0.0117 O.3       1 <0>        -0.3072
     10 C8         -0.2340   -4.1767   -0.0181 C.3       1 <0>         0.4100
     11 F1         -0.9220   -4.5877    1.1286 F         1 <0>        -0.1977
     12 F2         -0.9438   -4.5754   -1.1558 F         1 <0>        -0.1976
     13 C9         -4.8604    0.2335    0.0378 C.2       1 <0>         0.1091
     14 C10        -6.1084   -0.4326    0.0457 C.2       1 <0>        -0.0608
     15 C11        -7.2432    0.3233    0.0552 C.2       1 <0>        -0.1772
     16 C12        -7.1016    1.7287    0.0567 C.2       1 <0>         0.4770
     17 N1         -5.8696    2.2712    0.0487 N.am      1 <0>        -0.4422
     18 N2         -4.8109    1.5448    0.0452 N.2       1 <0>        -0.2145
     19 O3         -8.0890    2.4461    0.0648 O.2       1 <0>        -0.5275
     20 H1          1.0053    1.8021    0.0021 H         1 <0>         0.1046
     21 H2         -0.5445    1.7859   -0.8732 H         1 <0>         0.0586
     22 H3         -0.5275    1.7763    0.9067 H         1 <0>         0.0586
     23 H4         -2.3310    1.1786    0.0211 H         1 <0>         0.1510
     24 H5         -4.6049   -2.4534    0.0320 H         1 <0>         0.1391
     25 H6         -2.5204   -3.7570    0.0153 H         1 <0>         0.1473
     26 H7          0.7566   -4.6313   -0.0300 H         1 <0>         0.1846
     27 H8         -6.1609   -1.5113    0.0438 H         1 <0>         0.1580
     28 H9         -8.2197   -0.1381    0.0612 H         1 <0>         0.1689
     29 H10        -5.7792    3.2370    0.0498 H         1 <0>         0.4424
@<TRIPOS>BOND
     1    1    2 1
     2    1   20 1
     3    1   21 1
     4    1   22 1
     5    2    3 1
     6    3    8 ar
     7    3    4 ar
     8    4    5 ar
     9    4   23 1
    10    5    6 ar
    11    5   13 1
    12    6    7 ar
    13    6   24 1
    14    7    8 ar
    15    7   25 1
    16    8    9 1
    17    9   10 1
    18   10   11 1
    19   10   12 1
    20   10   26 1
    21   13   14 1
    22   13   18 2
    23   14   15 2
    24   14   27 1
    25   15   16 1
    26   15   28 1
    27   16   19 2
    28   16   17 am
    29   17   18 1
    30   17   29 1
@<TRIPOS>MOLECULE
ZINC04363905
   52    54     0     0     0
SMALL
USER_CHARGES

@<TRIPOS>ATOM
      1 C1         -0.0605    1.3780   -0.6406 C.3       1 <0>         0.0214
      2 O1         -0.0267   -0.0353   -0.4318 O.3       1 <0>        -0.2987
      3 C2         -1.2145   -0.6524   -0.1911 C.ar      1 <0>         0.1597
      4 C3         -2.3870    0.0855   -0.1623 C.ar      1 <0>        -0.1960
      5 C4         -3.5936   -0.5435    0.0821 C.ar      1 <0>         0.0027
      6 C5         -3.6338   -1.9083    0.2986 C.ar      1 <0>        -0.6783
      7 C6         -2.4676   -2.6502    0.2717 C.ar      1 <0>        -0.0796
      8 C7         -1.2557   -2.0270    0.0211 C.ar      1 <0>         0.0865
      9 O2         -0.1083   -2.7563   -0.0116 O.3       1 <0>        -0.2939
     10 C8         -0.2380   -4.1751    0.0991 C.3       1 <0>         0.0757
     11 C9         -0.2554   -4.5898    1.5849 C.3       1 <0>        -0.1536
     12 C10         0.5315   -5.9235    1.6163 C.3       1 <0>        -0.1235
     13 C11         1.6616   -5.6780    0.5859 C.3       1 <0>        -0.1238
     14 C12         0.9809   -4.8670   -0.5361 C.3       1 <0>        -0.1208
     15 S1         -5.1748   -2.7039    0.6101 S.o2      1 <0>         2.6883
     16 O3         -4.8789   -3.8984    1.3206 O.2       1 <0>        -0.9469
     17 O4         -6.0491   -1.7086    1.1240 O.2       1 <0>        -0.9452
     18 N1         -5.7925   -3.1656   -0.8553 N.pl3     1 <0>        -0.9902
     19 C13        -5.4697   -4.4853   -1.4034 C.3       1 <0>         0.1252
     20 C14        -6.5771   -5.4750   -1.0360 C.3       1 <0>        -0.0495
     21 C15        -6.2527   -6.8010   -1.5867 C.1       1 <0>         0.2056
     22 N2         -6.0023   -7.8243   -2.0117 N.1       1 <0>        -0.4234
     23 C16        -6.6619   -2.2543   -1.6037 C.3       1 <0>         0.1924
     24 C17        -5.8385   -1.4794   -2.6000 C.2       1 <0>        -0.0484
     25 C18        -5.5850   -1.8493   -3.8681 C.2       1 <0>        -0.1834
     26 C19        -4.7802   -0.8358   -4.4373 C.2       1 <0>        -0.2160
     27 C20        -4.5900    0.0929   -3.4830 C.2       1 <0>        -0.0286
     28 O5         -5.2382   -0.2994   -2.3740 O.3       1 <0>        -0.1700
     29 H1          0.9506    1.7428   -0.8213 H         1 <0>         0.1059
     30 H2         -0.6876    1.6030   -1.5033 H         1 <0>         0.0592
     31 H3         -0.4702    1.8662    0.2437 H         1 <0>         0.0604
     32 H4         -2.3582    1.1519   -0.3304 H         1 <0>         0.1449
     33 H5         -4.5067    0.0328    0.1043 H         1 <0>         0.1451
     34 H6         -2.5018   -3.7162    0.4415 H         1 <0>         0.1494
     35 H7         -1.1531   -4.5056   -0.3923 H         1 <0>         0.0748
     36 H8          0.2434   -3.8381    2.1966 H         1 <0>         0.0817
     37 H9         -1.2792   -4.7427    1.9263 H         1 <0>         0.0762
     38 H10         0.9457   -6.1044    2.6081 H         1 <0>         0.0736
     39 H11        -0.1024   -6.7534    1.3040 H         1 <0>         0.0717
     40 H12         2.4700   -5.1020    1.0363 H         1 <0>         0.0705
     41 H13         2.0367   -6.6251    0.1982 H         1 <0>         0.0718
     42 H14         0.6572   -5.5339   -1.3352 H         1 <0>         0.0783
     43 H15         1.6713   -4.1206   -0.9288 H         1 <0>         0.0825
     44 H16        -5.3877   -4.4180   -2.4883 H         1 <0>         0.0967
     45 H17        -4.5224   -4.8293   -0.9881 H         1 <0>         0.0932
     46 H18        -6.6590   -5.5422    0.0488 H         1 <0>         0.1198
     47 H19        -7.5243   -5.1309   -1.4513 H         1 <0>         0.1182
     48 H20        -7.4233   -2.8294   -2.1307 H         1 <0>         0.1235
     49 H21        -7.1429   -1.5618   -0.9129 H         1 <0>         0.1176
     50 H22        -5.9296   -2.7483   -4.3574 H         1 <0>         0.1487
     51 H23        -4.3923   -0.8119   -5.4450 H         1 <0>         0.1478
     52 H24        -4.0168    1.0017   -3.5913 H         1 <0>         0.2007
@<TRIPOS>BOND
     1    1    2 1
     2    1   29 1
     3    1   30 1
     4    1   31 1
     5    2    3 1
     6    3    8 ar
     7    3    4 ar
     8    4    5 ar
     9    4   32 1
    10    5    6 ar
    11    5   33 1
    12    6    7 ar
    13    6   15 1
    14    7    8 ar
    15    7   34 1
    16    8    9 1
    17    9   10 1
    18   10   14 1
    19   10   11 1
    20   10   35 1
    21   11   12 1
    22   11   36 1
    23   11   37 1
    24   12   13 1
    25   12   38 1
    26   12   39 1
    27   13   14 1
    28   13   40 1
    29   13   41 1
    30   14   42 1
    31   14   43 1
    32   15   16 2
    33   15   17 2
    34   15   18 1
    35   18   19 1
    36   18   23 1
    37   19   20 1
    38   19   44 1
    39   19   45 1
    40   20   21 1
    41   20   46 1
    42   20   47 1
    43   21   22 3
    44   23   24 1
    45   23   48 1
    46   23   49 1
    47   24   28 1
    48   24   25 2
    49   25   26 1
    50   25   50 1
    51   26   27 2
    52   26   51 1
    53   27   28 1
    54   27   52 1
@<TRIPOS>MOLECULE
ZINC04363799
   44    45     0     0     0
SMALL
USER_CHARGES

@<TRIPOS>ATOM
      1 C1         -0.0187    1.5258    0.0104 C.3       1 <0>        -0.1522
      2 C2          0.0021   -0.0041    0.0020 C.3       1 <0>        -0.1476
      3 C3          0.7182   -0.4975   -1.2568 C.3       1 <0>         0.1094
      4 N1          0.7381   -1.9623   -1.2648 N.pl3     1 <0>        -0.9912
      5 C4         -0.4068   -2.7075   -1.7941 C.3       1 <0>         0.2081
      6 C5         -0.2713   -2.8414   -3.2890 C.2       1 <0>        -0.0498
      7 C6          0.3416   -3.8488   -3.9363 C.2       1 <0>        -0.1809
      8 C7          0.2337   -3.5731   -5.3188 C.2       1 <0>        -0.2177
      9 C8         -0.4387   -2.4138   -5.4337 C.2       1 <0>        -0.0336
     10 O1         -0.7471   -1.9781   -4.2012 O.3       1 <0>        -0.1732
     11 S1          2.0547   -2.7758   -0.6757 S.o2      1 <0>         2.6905
     12 O2          2.0534   -4.0541   -1.2963 O.2       1 <0>        -0.9490
     13 O3          3.1577   -1.8848   -0.7688 O.2       1 <0>        -0.9493
     14 C9          1.7722   -3.0496    1.0419 C.ar      1 <0>        -0.6776
     15 C10         2.1877   -2.1105    1.9675 C.ar      1 <0>        -0.0101
     16 C11         1.9684   -2.3207    3.3161 C.ar      1 <0>        -0.1951
     17 C12         1.3304   -3.4743    3.7428 C.ar      1 <0>         0.1593
     18 C13         0.9118   -4.4193    2.8111 C.ar      1 <0>         0.0837
     19 C14         1.1304   -4.2003    1.4604 C.ar      1 <0>        -0.0789
     20 O4          0.2852   -5.5532    3.2249 O.3       1 <0>        -0.3029
     21 C15        -0.1167   -6.4786    2.2128 C.3       1 <0>         0.0196
     22 O5          1.1143   -3.6828    5.0691 O.3       1 <0>        -0.2986
     23 C16         1.5715   -2.6703    5.9680 C.3       1 <0>         0.0206
     24 H1          1.0039    1.9031    0.0027 H         1 <0>         0.0589
     25 H2         -0.5459    1.8868   -0.8726 H         1 <0>         0.0584
     26 H3         -0.5289    1.8773    0.9072 H         1 <0>         0.0589
     27 H4          0.5293   -0.3651    0.8851 H         1 <0>         0.0642
     28 H5         -1.0205   -0.3814    0.0098 H         1 <0>         0.0698
     29 H6          0.1910   -0.1364   -2.1398 H         1 <0>         0.0891
     30 H7          1.7408   -0.1202   -1.2645 H         1 <0>         0.0965
     31 H8         -0.4357   -3.6988   -1.3417 H         1 <0>         0.1115
     32 H9         -1.3277   -2.1739   -1.5591 H         1 <0>         0.1009
     33 H10         0.8241   -4.7038   -3.4862 H         1 <0>         0.1587
     34 H11         0.6177   -4.1773   -6.1274 H         1 <0>         0.1498
     35 H12        -0.6913   -1.9192   -6.3600 H         1 <0>         0.2036
     36 H13         2.6851   -1.2109    1.6363 H         1 <0>         0.1453
     37 H14         2.2947   -1.5858    4.0372 H         1 <0>         0.1472
     38 H15         0.8031   -4.9303    0.7350 H         1 <0>         0.1512
     39 H16         0.7598   -6.8140    1.6584 H         1 <0>         0.0603
     40 H17        -0.6030   -7.3364    2.6773 H         1 <0>         0.1065
     41 H18        -0.8134   -5.9912    1.5308 H         1 <0>         0.0577
     42 H19         1.3369   -2.9607    6.9920 H         1 <0>         0.1070
     43 H20         2.6497   -2.5505    5.8622 H         1 <0>         0.0608
     44 H21         1.0766   -1.7275    5.7352 H         1 <0>         0.0605
@<TRIPOS>BOND
     1    1    2 1
     2    1   24 1
     3    1   25 1
     4    1   26 1
     5    2    3 1
     6    2   27 1
     7    2   28 1
     8    3    4 1
     9    3   29 1
    10    3   30 1
    11    4    5 1
    12    4   11 1
    13    5    6 1
    14    5   31 1
    15    5   32 1
    16    6   10 1
    17    6    7 2
    18    7    8 1
    19    7   33 1
    20    8    9 2
    21    8   34 1
    22    9   10 1
    23    9   35 1
    24   11   12 2
    25   11   13 2
    26   11   14 1
    27   14   19 ar
    28   14   15 ar
    29   15   16 ar
    30   15   36 1
    31   16   17 ar
    32   16   37 1
    33   17   18 ar
    34   17   22 1
    35   18   19 ar
    36   18   20 1
    37   19   38 1
    38   20   21 1
    39   21   39 1
    40   21   40 1
    41   21   41 1
    42   22   23 1
    43   23   42 1
    44   23   43 1
    45   23   44 1
@<TRIPOS>MOLECULE
ZINC00021702
   42    44     0     0     0
SMALL
USER_CHARGES

@<TRIPOS>ATOM
      1 C1          0.5113    1.5572   -0.0104 C.3       1 <0>         0.0207
      2 O1          0.4168    0.1314   -0.0261 O.3       1 <0>        -0.2985
      3 C2          0.9573   -0.5348    1.0291 C.ar      1 <0>         0.1596
      4 C3          1.5599    0.1688    2.0596 C.ar      1 <0>        -0.1959
      5 C4          2.1084   -0.5100    3.1317 C.ar      1 <0>        -0.0084
      6 C5          2.0577   -1.8908    3.1787 C.ar      1 <0>        -0.6790
      7 C6          1.4583   -2.5988    2.1538 C.ar      1 <0>        -0.0816
      8 C7          0.9012   -1.9243    1.0792 C.ar      1 <0>         0.0840
      9 O2          0.3059   -2.6190    0.0730 O.3       1 <0>        -0.3026
     10 C8          0.2853   -4.0430    0.1915 C.3       1 <0>         0.0195
     11 S1          2.7591   -2.7501    4.5478 S.o2      1 <0>         2.6943
     12 O3          3.0654   -4.0604    4.0911 O.2       1 <0>        -0.9518
     13 O4          3.7415   -1.8893    5.1074 O.2       1 <0>        -0.9546
     14 N1          1.5678   -2.9122    5.6866 N.pl3     1 <0>        -1.1074
     15 C9          0.3895   -3.7348    5.4020 C.3       1 <0>         0.1968
     16 H1          0.2511   -3.8367    4.3256 H         1 <0>         0.0977
     17 C10         0.5358   -5.1248    6.0570 C.3       1 <0>        -0.1344
     18 C11        -0.9171   -5.4566    6.4583 C.3       1 <0>        -0.0849
     19 C12        -1.5931   -4.1150    6.6438 C.ar      1 <0>        -0.0845
     20 C13        -0.8426   -3.1241    6.0345 C.ar      1 <0>        -0.1143
     21 C14        -1.2723   -1.8086    6.0747 C.ar      1 <0>        -0.0915
     22 C15        -2.4489   -1.4809    6.7203 C.ar      1 <0>        -0.1228
     23 C16        -3.2004   -2.4689    7.3280 C.ar      1 <0>        -0.1095
     24 C17        -2.7714   -3.7860    7.2921 C.ar      1 <0>        -0.1092
     25 H2          1.5605    1.8515    0.0156 H         1 <0>         0.0609
     26 H3          0.0424    1.9623   -0.9071 H         1 <0>         0.1070
     27 H4          0.0031    1.9453    0.8724 H         1 <0>         0.0604
     28 H5          1.6015    1.2474    2.0249 H         1 <0>         0.1472
     29 H6          2.5778    0.0395    3.9342 H         1 <0>         0.1464
     30 H7          1.4204   -3.6775    2.1927 H         1 <0>         0.1513
     31 H8          1.3075   -4.4182    0.2416 H         1 <0>         0.0605
     32 H9         -0.2499   -4.3244    1.0983 H         1 <0>         0.0572
     33 H10        -0.2173   -4.4724   -0.6752 H         1 <0>         0.1067
     34 H11         1.6502   -2.4624    6.5420 H         1 <0>         0.4222
     35 H12         0.9157   -5.8528    5.3402 H         1 <0>         0.0909
     36 H13         1.1784   -5.0731    6.9359 H         1 <0>         0.0857
     37 H14        -1.4087   -6.0215    5.6663 H         1 <0>         0.0859
     38 H15        -0.9325   -6.0200    7.3913 H         1 <0>         0.0816
     39 H16        -0.6856   -1.0360    5.6000 H         1 <0>         0.1201
     40 H17        -2.7809   -0.4537    6.7505 H         1 <0>         0.1253
     41 H18        -4.1205   -2.2145    7.8331 H         1 <0>         0.1257
     42 H19        -3.3585   -4.5584    7.7666 H         1 <0>         0.1232
@<TRIPOS>BOND
     1    1    2 1
     2    1   25 1
     3    1   26 1
     4    1   27 1
     5    2    3 1
     6    3    8 ar
     7    3    4 ar
     8    4    5 ar
     9    4   28 1
    10    5    6 ar
    11    5   29 1
    12    6    7 ar
    13    6   11 1
    14    7    8 ar
    15    7   30 1
    16    8    9 1
    17    9   10 1
    18   10   31 1
    19   10   32 1
    20   10   33 1
    21   11   12 2
    22   11   13 2
    23   11   14 1
    24   14   15 1
    25   14   34 1
    26   15   16 1
    27   15   20 1
    28   15   17 1
    29   17   18 1
    30   17   35 1
    31   17   36 1
    32   18   19 1
    33   18   37 1
    34   18   38 1
    35   19   24 ar
    36   19   20 ar
    37   20   21 ar
    38   21   22 ar
    39   21   39 1
    40   22   23 ar
    41   22   40 1
    42   23   24 ar
    43   23   41 1
    44   24   42 1
@<TRIPOS>MOLECULE
ZINC00170852
   42    44     0     0     0
SMALL
USER_CHARGES

@<TRIPOS>ATOM
      1 C1         -0.0173    1.4248    0.0099 C.3       1 <0>         0.0206
      2 O1          0.0021   -0.0041    0.0020 O.3       1 <0>        -0.2986
      3 C2          0.6262   -0.6188    1.0422 C.ar      1 <0>         0.1593
      4 C3          1.2021    0.1367    2.0510 C.ar      1 <0>        -0.1960
      5 C4          1.8358   -0.4897    3.1079 C.ar      1 <0>        -0.0084
      6 C5          1.8971   -1.8699    3.1612 C.ar      1 <0>        -0.6784
      7 C6          1.3251   -2.6295    2.1578 C.ar      1 <0>        -0.0814
      8 C7          0.6830   -2.0080    1.0988 C.ar      1 <0>         0.0834
      9 O2          0.1145   -2.7540    0.1140 O.3       1 <0>        -0.3026
     10 C8          0.2115   -4.1743    0.2380 C.3       1 <0>         0.0194
     11 S1          2.7068   -2.6623    4.5107 S.o2      1 <0>         2.6947
     12 O3          3.1027   -3.9467    4.0493 O.2       1 <0>        -0.9506
     13 O4          3.6340   -1.7226    5.0365 O.2       1 <0>        -0.9557
     14 N1          1.5678   -2.9122    5.6866 N.pl3     1 <0>        -1.1042
     15 C9          0.4467   -3.8221    5.4389 C.3       1 <0>         0.1949
     16 H1          0.2594   -3.9079    4.3685 H         1 <0>         0.0922
     17 C10        -0.8197   -3.3219    6.1657 C.3       1 <0>        -0.1256
     18 C11        -0.7446   -4.0688    7.5143 C.3       1 <0>        -0.0853
     19 C12         0.0491   -5.3255    7.2275 C.ar      1 <0>        -0.0841
     20 C13         0.7349   -5.1844    6.0325 C.ar      1 <0>        -0.1254
     21 C14         1.5315   -6.2162    5.5661 C.ar      1 <0>        -0.0844
     22 C15         1.6450   -7.3881    6.2887 C.ar      1 <0>        -0.1259
     23 C16         0.9619   -7.5318    7.4816 C.ar      1 <0>        -0.1082
     24 C17         0.1632   -6.4996    7.9523 C.ar      1 <0>        -0.1155
     25 H2          1.0053    1.8021    0.0021 H         1 <0>         0.0609
     26 H3         -0.5445    1.7859   -0.8732 H         1 <0>         0.1071
     27 H4         -0.5275    1.7763    0.9067 H         1 <0>         0.0606
     28 H5          1.1562    1.2150    2.0113 H         1 <0>         0.1474
     29 H6          2.2842    0.1003    3.8935 H         1 <0>         0.1464
     30 H7          1.3747   -3.7075    2.2017 H         1 <0>         0.1516
     31 H8          1.2614   -4.4664    0.2576 H         1 <0>         0.0603
     32 H9         -0.2714   -4.4922    1.1620 H         1 <0>         0.0576
     33 H10        -0.2815   -4.6476   -0.6111 H         1 <0>         0.1067
     34 H11         1.6430   -2.4561    6.5393 H         1 <0>         0.4205
     35 H12        -0.7788   -2.2433    6.3174 H         1 <0>         0.0892
     36 H13        -1.7182   -3.6032    5.6165 H         1 <0>         0.0882
     37 H14        -0.2308   -3.4582    8.2567 H         1 <0>         0.0830
     38 H15        -1.7457   -4.3247    7.8612 H         1 <0>         0.0805
     39 H16         2.0657   -6.1047    4.6341 H         1 <0>         0.1343
     40 H17         2.2667   -8.1914    5.9218 H         1 <0>         0.1258
     41 H18         1.0494   -8.4473    8.0477 H         1 <0>         0.1246
     42 H19        -0.3713   -6.6111    8.8840 H         1 <0>         0.1211
@<TRIPOS>BOND
     1    1    2 1
     2    1   25 1
     3    1   26 1
     4    1   27 1
     5    2    3 1
     6    3    8 ar
     7    3    4 ar
     8    4    5 ar
     9    4   28 1
    10    5    6 ar
    11    5   29 1
    12    6    7 ar
    13    6   11 1
    14    7    8 ar
    15    7   30 1
    16    8    9 1
    17    9   10 1
    18   10   31 1
    19   10   32 1
    20   10   33 1
    21   11   12 2
    22   11   13 2
    23   11   14 1
    24   14   15 1
    25   14   34 1
    26   15   16 1
    27   15   20 1
    28   15   17 1
    29   17   18 1
    30   17   35 1
    31   17   36 1
    32   18   19 1
    33   18   37 1
    34   18   38 1
    35   19   24 ar
    36   19   20 ar
    37   20   21 ar
    38   21   22 ar
    39   21   39 1
    40   22   23 ar
    41   22   40 1
    42   23   24 ar
    43   23   41 1
    44   24   42 1
@<TRIPOS>MOLECULE
ZINC00171079
   41    44     0     0     0
SMALL
USER_CHARGES

@<TRIPOS>ATOM
      1 C1         -0.0184    1.5028    0.0103 C.3       1 <0>        -0.1155
      2 C2          0.0021   -0.0041    0.0020 C.ar      1 <0>        -0.0564
      3 C3          0.0058   -0.6889   -1.1976 C.ar      1 <0>        -0.1135
      4 C4          0.0250   -2.0713   -1.2061 C.ar      1 <0>        -0.0976
      5 C5          0.0401   -2.7729   -0.0143 C.ar      1 <0>        -0.1166
      6 C6          0.0365   -2.0942    1.1883 C.ar      1 <0>        -0.0874
      7 C7          0.0230   -0.7054    1.2001 C.ar      1 <0>         0.1287
      8 N1          0.0251   -0.0140    2.4180 N.am      1 <0>        -0.4635
      9 C8         -1.1750    0.3065    3.0343 C.2       1 <0>         0.3226
     10 C9         -1.1461    0.9922    4.2420 C.2       1 <0>        -0.1502
     11 C10         0.1006    1.3417    4.8048 C.2       1 <0>         0.5957
     12 O1          0.1520    1.9428    5.8629 O.2       1 <0>        -0.5078
     13 N2          1.2345    1.0020    4.1572 N.am      1 <0>        -0.5434
     14 C11         1.1925    0.3338    2.9916 C.2       1 <0>         0.7112
     15 O2          2.2350    0.0403    2.4389 O.2       1 <0>        -0.5159
     16 C12         2.5312    1.3623    4.7358 C.3       1 <0>         0.1571
     17 C13         3.0062    0.2505    5.6355 C.ar      1 <0>        -0.1222
     18 C14         2.6629    0.2506    6.9745 C.ar      1 <0>        -0.0928
     19 C15         3.0986   -0.7693    7.7998 C.ar      1 <0>        -0.1275
     20 C16         3.8772   -1.7893    7.2859 C.ar      1 <0>        -0.1080
     21 C17         4.2198   -1.7899    5.9466 C.ar      1 <0>        -0.1265
     22 C18         3.7805   -0.7723    5.1205 C.ar      1 <0>        -0.0907
     23 N3         -2.4626    1.1728    4.6153 N.pl3     1 <0>        -0.5172
     24 H1         -2.7793    1.6198    5.4158 H         1 <0>         0.4387
     25 C19        -3.2244    0.6109    3.6565 C.2       1 <0>         0.2757
     26 N4         -2.4581    0.1013    2.7262 N.2       1 <0>        -0.4916
     27 H2          1.0042    1.8801    0.0026 H         1 <0>         0.0752
     28 H3         -0.5455    1.8639   -0.8728 H         1 <0>         0.0749
     29 H4         -0.5286    1.8543    0.9071 H         1 <0>         0.0588
     30 H5         -0.0067   -0.1439   -2.1299 H         1 <0>         0.1314
     31 H6          0.0279   -2.6045   -2.1453 H         1 <0>         0.1300
     32 H7          0.0544   -3.8528   -0.0241 H         1 <0>         0.1311
     33 H8          0.0479   -2.6426    2.1186 H         1 <0>         0.1237
     34 H9          3.2555    1.5171    3.9361 H         1 <0>         0.1121
     35 H10         2.4282    2.2797    5.3153 H         1 <0>         0.1115
     36 H11         2.0546    1.0475    7.3760 H         1 <0>         0.1288
     37 H12         2.8310   -0.7688    8.8461 H         1 <0>         0.1237
     38 H13         4.2182   -2.5857    7.9308 H         1 <0>         0.1231
     39 H14         4.8283   -2.5867    5.5452 H         1 <0>         0.1243
     40 H15         4.0450   -0.7747    4.0733 H         1 <0>         0.1307
     41 H16        -4.3041    0.5847    3.6560 H         1 <0>         0.2354
@<TRIPOS>BOND
     1    1    2 1
     2    1   27 1
     3    1   28 1
     4    1   29 1
     5    2    7 ar
     6    2    3 ar
     7    3    4 ar
     8    3   30 1
     9    4    5 ar
    10    4   31 1
    11    5    6 ar
    12    5   32 1
    13    6    7 ar
    14    6   33 1
    15    7    8 1
    16    8   14 am
    17    8    9 1
    18    9   26 1
    19    9   10 2
    20   10   11 1
    21   10   23 1
    22   11   12 2
    23   11   13 am
    24   13   14 am
    25   13   16 1
    26   14   15 2
    27   16   17 1
    28   16   34 1
    29   16   35 1
    30   17   22 ar
    31   17   18 ar
    32   18   19 ar
    33   18   36 1
    34   19   20 ar
    35   19   37 1
    36   20   21 ar
    37   20   38 1
    38   21   22 ar
    39   21   39 1
    40   22   40 1
    41   23   24 1
    42   23   25 1
    43   25   26 2
    44   25   41 1
@<TRIPOS>MOLECULE
ZINC00171073
   38    41     0     0     0
SMALL
USER_CHARGES

@<TRIPOS>ATOM
      1 C1         -0.0184    1.5028    0.0103 C.3       1 <0>        -0.1159
      2 C2          0.0021   -0.0041    0.0020 C.ar      1 <0>        -0.0559
      3 C3          0.0058   -0.6889   -1.1976 C.ar      1 <0>        -0.1135
      4 C4          0.0250   -2.0713   -1.2061 C.ar      1 <0>        -0.0972
      5 C5          0.0401   -2.7729   -0.0143 C.ar      1 <0>        -0.1165
      6 C6          0.0365   -2.0942    1.1883 C.ar      1 <0>        -0.0871
      7 C7          0.0230   -0.7054    1.2001 C.ar      1 <0>         0.1277
      8 N1          0.0251   -0.0140    2.4180 N.am      1 <0>        -0.4626
      9 C8         -1.1750    0.3065    3.0343 C.2       1 <0>         0.3230
     10 C9         -1.1461    0.9922    4.2420 C.2       1 <0>        -0.1495
     11 C10         0.1006    1.3417    4.8048 C.2       1 <0>         0.5938
     12 O1          0.1520    1.9428    5.8629 O.2       1 <0>        -0.5004
     13 N2          1.2345    1.0020    4.1572 N.am      1 <0>        -0.5475
     14 C11         1.1925    0.3338    2.9916 C.2       1 <0>         0.7124
     15 O2          2.2350    0.0403    2.4389 O.2       1 <0>        -0.5142
     16 C12         2.5312    1.3623    4.7358 C.3       1 <0>         0.2004
     17 C13         3.0062    0.2505    5.6355 C.2       1 <0>        -0.0525
     18 C14         3.7657   -0.7945    5.2607 C.2       1 <0>        -0.1692
     19 C15         3.9719   -1.5855    6.4143 C.2       1 <0>        -0.2203
     20 C16         3.3261   -0.9766    7.4249 C.2       1 <0>        -0.0267
     21 O3          2.7478    0.1381    6.9486 O.3       1 <0>        -0.1653
     22 N3         -2.4626    1.1728    4.6153 N.pl3     1 <0>        -0.5166
     23 H1         -2.7793    1.6198    5.4158 H         1 <0>         0.4391
     24 C17        -3.2244    0.6109    3.6565 C.2       1 <0>         0.2766
     25 N4         -2.4581    0.1013    2.7262 N.2       1 <0>        -0.4909
     26 H2          1.0042    1.8801    0.0026 H         1 <0>         0.0755
     27 H3         -0.5455    1.8639   -0.8728 H         1 <0>         0.0751
     28 H4         -0.5286    1.8543    0.9071 H         1 <0>         0.0590
     29 H5         -0.0067   -0.1439   -2.1299 H         1 <0>         0.1317
     30 H6          0.0279   -2.6045   -2.1453 H         1 <0>         0.1302
     31 H7          0.0544   -3.8528   -0.0241 H         1 <0>         0.1313
     32 H8          0.0479   -2.6426    2.1186 H         1 <0>         0.1238
     33 H9          3.2555    1.5171    3.9361 H         1 <0>         0.1349
     34 H10         2.4282    2.2797    5.3153 H         1 <0>         0.1204
     35 H11         4.1448   -0.9918    4.2689 H         1 <0>         0.1546
     36 H12         4.5389   -2.5029    6.4727 H         1 <0>         0.1513
     37 H13         3.2832   -1.3230    8.4470 H         1 <0>         0.2050
     38 H14        -4.3041    0.5847    3.6560 H         1 <0>         0.2359
@<TRIPOS>BOND
     1    1    2 1
     2    1   26 1
     3    1   27 1
     4    1   28 1
     5    2    7 ar
     6    2    3 ar
     7    3    4 ar
     8    3   29 1
     9    4    5 ar
    10    4   30 1
    11    5    6 ar
    12    5   31 1
    13    6    7 ar
    14    6   32 1
    15    7    8 1
    16    8   14 am
    17    8    9 1
    18    9   25 1
    19    9   10 2
    20   10   11 1
    21   10   22 1
    22   11   12 2
    23   11   13 am
    24   13   14 am
    25   13   16 1
    26   14   15 2
    27   16   17 1
    28   16   33 1
    29   16   34 1
    30   17   21 1
    31   17   18 2
    32   18   19 1
    33   18   35 1
    34   19   20 2
    35   19   36 1
    36   20   21 1
    37   20   37 1
    38   22   23 1
    39   22   24 1
    40   24   25 2
    41   24   38 1
@<TRIPOS>MOLECULE
ZINC00599006
   55    58     0     0     0
SMALL
USER_CHARGES
4-[2-(3-cyclopentoxy-4-methoxy-phenyl)-2-phenyl-ethyl]pyridine
@<TRIPOS>ATOM
      1 C1         -3.3264    3.4718    2.7264 C.3       1 <0>         0.0261
      2 O1         -2.5581    2.5165    1.9923 O.3       1 <0>        -0.3064
      3 C2         -1.4031    2.9574    1.4256 C.ar      1 <0>         0.0970
      4 C3         -1.0152    4.2789    1.5780 C.ar      1 <0>        -0.1688
      5 C4          0.1562    4.7269    0.9965 C.ar      1 <0>        -0.1111
      6 C5          0.9460    3.8575    0.2672 C.ar      1 <0>        -0.0706
      7 C6          0.5677    2.5365    0.1161 C.ar      1 <0>        -0.1660
      8 C7         -0.6052    2.0810    0.6964 C.ar      1 <0>         0.1081
      9 O2         -0.9788    0.7817    0.5488 O.3       1 <0>        -0.2961
     10 C8         -0.0567   -0.0874   -0.1119 C.3       1 <0>         0.0787
     11 C9         -0.2970   -0.0532   -1.6353 C.3       1 <0>        -0.1477
     12 C10        -0.0551   -1.5147   -2.0901 C.3       1 <0>        -0.1238
     13 C11        -0.6604   -2.3399   -0.9275 C.3       1 <0>        -0.1237
     14 C12        -0.2872   -1.5407    0.3381 C.3       1 <0>        -0.1221
     15 C13         2.2218    4.3513   -0.3650 C.3       1 <0>         0.0036
     16 H1          2.7829    3.5044   -0.7602 H         1 <0>         0.0870
     17 C14         3.0648    5.0757    0.6863 C.3       1 <0>        -0.0739
     18 C15         4.3925    5.4617    0.0868 C.ar      1 <0>        -0.0349
     19 C16         5.4796    4.6042    0.1582 C.ar      1 <0>        -0.1717
     20 C17         6.6803    4.9905   -0.4067 C.ar      1 <0>         0.0988
     21 N1          6.8008    6.1623   -0.9994 N.ar      1 <0>        -0.4878
     22 C18         5.7898    7.0049   -1.0819 C.ar      1 <0>         0.0998
     23 C19         4.5574    6.6852   -0.5442 C.ar      1 <0>        -0.1605
     24 C20         1.8914    5.3022   -1.4864 C.ar      1 <0>        -0.0669
     25 C21         1.2976    6.5192   -1.2083 C.ar      1 <0>        -0.1160
     26 C22         0.9986    7.3934   -2.2366 C.ar      1 <0>        -0.1171
     27 C23         1.2847    7.0465   -3.5438 C.ar      1 <0>        -0.1213
     28 C24         1.8741    5.8276   -3.8223 C.ar      1 <0>        -0.1151
     29 C25         2.1771    4.9552   -2.7937 C.ar      1 <0>        -0.1118
     30 H2         -2.7282    3.8647    3.5486 H         1 <0>         0.0548
     31 H3         -3.6174    4.2887    2.0661 H         1 <0>         0.0546
     32 H4         -4.2198    2.9907    3.1247 H         1 <0>         0.1008
     33 H5         -1.6304    4.9600    2.1472 H         1 <0>         0.1352
     34 H6          0.4553    5.7581    1.1125 H         1 <0>         0.1266
     35 H7          1.1863    1.8595   -0.4544 H         1 <0>         0.1349
     36 H8          0.9665    0.2148    0.1116 H         1 <0>         0.0753
     37 H9         -1.3212    0.2495   -1.8532 H         1 <0>         0.0801
     38 H10         0.4116    0.6197   -2.1183 H         1 <0>         0.0701
     39 H11         1.0114   -1.7154   -2.1919 H         1 <0>         0.0696
     40 H12        -0.5767   -1.7230   -3.0243 H         1 <0>         0.0719
     41 H13        -0.2170   -3.3351   -0.8948 H         1 <0>         0.0709
     42 H14        -1.7434   -2.4070   -1.0308 H         1 <0>         0.0702
     43 H15         0.6243   -1.9441    0.7791 H         1 <0>         0.0771
     44 H16        -1.1025   -1.5831    1.0604 H         1 <0>         0.0821
     45 H17         2.5410    5.9725    1.0171 H         1 <0>         0.0820
     46 H18         3.2289    4.4158    1.5382 H         1 <0>         0.0847
     47 H19         5.3884    3.6450    0.6462 H         1 <0>         0.1330
     48 H20         7.5310    4.3269   -0.3583 H         1 <0>         0.1542
     49 H21         5.9265    7.9560   -1.5751 H         1 <0>         0.1531
     50 H22         3.7334    7.3798   -0.6144 H         1 <0>         0.1322
     51 H23         1.0704    6.7884   -0.1874 H         1 <0>         0.1211
     52 H24         0.5384    8.3459   -2.0190 H         1 <0>         0.1214
     53 H25         1.0479    7.7281   -4.3475 H         1 <0>         0.1205
     54 H26         2.0975    5.5566   -4.8436 H         1 <0>         0.1205
     55 H27         2.6372    4.0027   -3.0113 H         1 <0>         0.1173
@<TRIPOS>BOND
     1    1    2 1
     2    1   30 1
     3    1   31 1
     4    1   32 1
     5    2    3 1
     6    3    8 ar
     7    3    4 ar
     8    4    5 ar
     9    4   33 1
    10    5    6 ar
    11    5   34 1
    12    6    7 ar
    13    6   15 1
    14    7    8 ar
    15    7   35 1
    16    8    9 1
    17    9   10 1
    18   10   14 1
    19   10   11 1
    20   10   36 1
    21   11   12 1
    22   11   37 1
    23   11   38 1
    24   12   13 1
    25   12   39 1
    26   12   40 1
    27   13   14 1
    28   13   41 1
    29   13   42 1
    30   14   43 1
    31   14   44 1
    32   15   16 1
    33   15   17 1
    34   15   24 1
    35   17   18 1
    36   17   45 1
    37   17   46 1
    38   18   23 ar
    39   18   19 ar
    40   19   20 ar
    41   19   47 1
    42   20   21 ar
    43   20   48 1
    44   21   22 ar
    45   22   23 ar
    46   22   49 1
    47   23   50 1
    48   24   29 ar
    49   24   25 ar
    50   25   26 ar
    51   25   51 1
    52   26   27 ar
    53   26   52 1
    54   27   28 ar
    55   27   53 1
    56   28   29 ar
    57   28   54 1
    58   29   55 1
@<TRIPOS>MOLECULE
ZINC02000919
   41    43     0     0     0
SMALL
USER_CHARGES

@<TRIPOS>ATOM
      1 C1          0.5684    1.3813    0.2968 C.3       1 <0>         0.0255
      2 O1          0.3927   -0.0330    0.1934 O.3       1 <0>        -0.3057
      3 C2          0.7874   -0.6210   -0.9677 C.ar      1 <0>         0.0999
      4 C3          1.3368    0.1460   -1.9826 C.ar      1 <0>        -0.1683
      5 C4          1.7379   -0.4533   -3.1620 C.ar      1 <0>        -0.1118
      6 C5          1.5917   -1.8175   -3.3324 C.ar      1 <0>        -0.0754
      7 C6          1.0438   -2.5883   -2.3241 C.ar      1 <0>        -0.1640
      8 C7          0.6455   -1.9949   -1.1370 C.ar      1 <0>         0.1082
      9 O2          0.1119   -2.7526   -0.1417 O.3       1 <0>        -0.2956
     10 C8          0.1029   -4.1681   -0.3377 C.3       1 <0>         0.0781
     11 C9         -1.1687   -4.5874   -1.1040 C.3       1 <0>        -0.1484
     12 C10        -1.5683   -5.9405   -0.4650 C.3       1 <0>        -0.1242
     13 C11        -1.2445   -5.7198    1.0335 C.3       1 <0>        -0.1240
     14 C12         0.0547   -4.8881    1.0213 C.3       1 <0>        -0.1221
     15 C13         2.0301   -2.4655   -4.6204 C.3       1 <0>        -0.0563
     16 H1          1.8596   -3.5417   -4.5910 H         1 <0>         0.1000
     17 C14         3.5130   -2.1483   -4.9227 C.3       1 <0>        -0.1506
     18 C15         3.5576   -1.9806   -6.4255 C.2       1 <0>         0.5187
     19 O3          4.5674   -2.0006   -7.0970 O.2       1 <0>        -0.5316
     20 N1          2.3152   -1.8068   -6.9084 N.am      1 <0>        -0.7338
     21 C16         1.3168   -1.8256   -5.8320 C.3       1 <0>         0.1067
     22 H2          1.6254    1.6250    0.1896 H         1 <0>         0.0555
     23 H3         -0.0002    1.8766   -0.4903 H         1 <0>         0.0553
     24 H4          0.2140    1.7213    1.2699 H         1 <0>         0.1015
     25 H5          1.4515    1.2119   -1.8523 H         1 <0>         0.1366
     26 H6          2.1660    0.1456   -3.9522 H         1 <0>         0.1272
     27 H7          0.9304   -3.6537   -2.4598 H         1 <0>         0.1374
     28 H8          0.9909   -4.4738   -0.8910 H         1 <0>         0.0760
     29 H9         -1.9594   -3.8506   -0.9629 H         1 <0>         0.0805
     30 H10        -0.9503   -4.7158   -2.1641 H         1 <0>         0.0708
     31 H11        -2.6315   -6.1352   -0.6059 H         1 <0>         0.0721
     32 H12        -0.9681   -6.7532   -0.8743 H         1 <0>         0.0702
     33 H13        -2.0475   -5.1659    1.5198 H         1 <0>         0.0703
     34 H14        -1.0814   -6.6747    1.5332 H         1 <0>         0.0710
     35 H15         0.9189   -5.5439    1.1272 H         1 <0>         0.0776
     36 H16         0.0382   -4.1579    1.8303 H         1 <0>         0.0823
     37 H17         3.8145   -1.2257   -4.4268 H         1 <0>         0.1096
     38 H18         4.1511   -2.9756   -4.6120 H         1 <0>         0.1061
     39 H19         2.1051   -1.6852   -7.8475 H         1 <0>         0.4120
     40 H20         0.4568   -2.4279   -6.1248 H         1 <0>         0.0843
     41 H21         1.0026   -0.8100   -5.5915 H         1 <0>         0.0783
@<TRIPOS>BOND
     1    1    2 1
     2    1   22 1
     3    1   23 1
     4    1   24 1
     5    2    3 1
     6    3    8 ar
     7    3    4 ar
     8    4    5 ar
     9    4   25 1
    10    5    6 ar
    11    5   26 1
    12    6    7 ar
    13    6   15 1
    14    7    8 ar
    15    7   27 1
    16    8    9 1
    17    9   10 1
    18   10   14 1
    19   10   11 1
    20   10   28 1
    21   11   12 1
    22   11   29 1
    23   11   30 1
    24   12   13 1
    25   12   31 1
    26   12   32 1
    27   13   14 1
    28   13   33 1
    29   13   34 1
    30   14   35 1
    31   14   36 1
    32   15   16 1
    33   15   21 1
    34   15   17 1
    35   17   18 1
    36   17   37 1
    37   17   38 1
    38   18   19 2
    39   18   20 am
    40   20   21 1
    41   20   39 1
    42   21   40 1
    43   21   41 1
@<TRIPOS>MOLECULE
ZINC13600184
   54    57     0     0     0
SMALL
USER_CHARGES
(4R)-1-[(4-bromophenyl)methyl]-4-[3-(cyclopentoxy)-4-methoxy-phenyl]pyrrolidin-2-one
@<TRIPOS>ATOM
      1 C1         -3.5586    3.0067   -0.6093 C.3       1 <0>         0.0255
      2 O1         -2.3897    3.8003   -0.3952 O.3       1 <0>        -0.3056
      3 C2         -1.2220    3.1355   -0.1858 C.ar      1 <0>         0.1005
      4 C3         -1.2011    1.7500   -0.1915 C.ar      1 <0>        -0.1682
      5 C4         -0.0143    1.0757    0.0278 C.ar      1 <0>        -0.1104
      6 C5          1.1555    1.7808    0.2418 C.ar      1 <0>        -0.0753
      7 C6          1.1427    3.1631    0.2431 C.ar      1 <0>        -0.1634
      8 C7         -0.0445    3.8451    0.0296 C.ar      1 <0>         0.1080
      9 O2         -0.0589    5.2050    0.0310 O.3       1 <0>        -0.2957
     10 C8          1.2032    5.8671    0.1340 C.3       1 <0>         0.0788
     11 C9          1.5913    6.0371    1.6173 C.3       1 <0>        -0.1487
     12 C10         2.2805    7.4240    1.6722 C.3       1 <0>        -0.1241
     13 C11         1.4377    8.2648    0.6813 C.3       1 <0>        -0.1240
     14 C12         1.1059    7.2827   -0.4611 C.3       1 <0>        -0.1219
     15 C13         2.4477    1.0407    0.4736 C.3       1 <0>        -0.0538
     16 H1          3.2699    1.7373    0.6373 H         1 <0>         0.1004
     17 C14         2.3153    0.0532    1.6562 C.3       1 <0>        -0.1483
     18 C15         3.1336   -1.1461    1.2314 C.2       1 <0>         0.5197
     19 O3          3.5205   -2.0220    1.9757 O.2       1 <0>        -0.5250
     20 N1          3.3702   -1.0994   -0.0910 N.am      1 <0>        -0.6158
     21 C16         2.7569    0.0867   -0.7014 C.3       1 <0>         0.1084
     22 C17         4.1418   -2.1028   -0.8286 C.3       1 <0>         0.1640
     23 C18         3.2168   -3.1863   -1.3200 C.ar      1 <0>        -0.0972
     24 C19         2.9733   -4.2964   -0.5330 C.ar      1 <0>        -0.0903
     25 C20         2.1213   -5.2881   -0.9812 C.ar      1 <0>        -0.0920
     26 C21         1.5204   -5.1748   -2.2220 C.ar      1 <0>        -0.0853
     27 C22         1.7685   -4.0663   -3.0114 C.ar      1 <0>        -0.0937
     28 C23         2.6166   -3.0726   -2.5601 C.ar      1 <0>        -0.0988
     29 Br1         0.3598   -6.5344   -2.8385 Br        1 <0>        -0.0486
     30 H2         -4.4179    3.6596   -0.7629 H         1 <0>         0.1015
     31 H3         -3.4162    2.3803   -1.4899 H         1 <0>         0.0553
     32 H4         -3.7334    2.3750    0.2616 H         1 <0>         0.0554
     33 H5         -2.1126    1.1969   -0.3631 H         1 <0>         0.1361
     34 H6         -0.0002   -0.0042    0.0275 H         1 <0>         0.1260
     35 H7          2.0580    3.7115    0.4101 H         1 <0>         0.1373
     36 H8          1.9689    5.2940   -0.3890 H         1 <0>         0.0756
     37 H9          0.7022    6.0279    2.2477 H         1 <0>         0.0805
     38 H10         2.2847    5.2534    1.9225 H         1 <0>         0.0711
     39 H11         3.3152    7.3541    1.3367 H         1 <0>         0.0698
     40 H12         2.2292    7.8446    2.6765 H         1 <0>         0.0721
     41 H13         2.0192    9.1062    0.3044 H         1 <0>         0.0710
     42 H14         0.5236    8.6157    1.1603 H         1 <0>         0.0703
     43 H15         1.8250    7.3970   -1.2723 H         1 <0>         0.0773
     44 H16         0.0962    7.4644   -0.8293 H         1 <0>         0.0822
     45 H17         2.7246    0.4912    2.5665 H         1 <0>         0.1063
     46 H18         1.2727   -0.2289    1.8027 H         1 <0>         0.1090
     47 H19         1.8364   -0.1877   -1.2167 H         1 <0>         0.0775
     48 H20         3.4530    0.5570   -1.3959 H         1 <0>         0.0839
     49 H21         4.6325   -1.6304   -1.6796 H         1 <0>         0.0923
     50 H22         4.8943   -2.5380   -0.1711 H         1 <0>         0.0955
     51 H23         3.4457   -4.3868    0.4340 H         1 <0>         0.1358
     52 H24         1.9276   -6.1533   -0.3644 H         1 <0>         0.1339
     53 H25         1.2993   -3.9772   -3.9800 H         1 <0>         0.1337
     54 H26         2.8106   -2.2072   -3.1765 H         1 <0>         0.1310
@<TRIPOS>BOND
     1    1    2 1
     2    1   30 1
     3    1   31 1
     4    1   32 1
     5    2    3 1
     6    3    8 ar
     7    3    4 ar
     8    4    5 ar
     9    4   33 1
    10    5    6 ar
    11    5   34 1
    12    6    7 ar
    13    6   15 1
    14    7    8 ar
    15    7   35 1
    16    8    9 1
    17    9   10 1
    18   10   14 1
    19   10   11 1
    20   10   36 1
    21   11   12 1
    22   11   37 1
    23   11   38 1
    24   12   13 1
    25   12   39 1
    26   12   40 1
    27   13   14 1
    28   13   41 1
    29   13   42 1
    30   14   43 1
    31   14   44 1
    32   15   16 1
    33   15   21 1
    34   15   17 1
    35   17   18 1
    36   17   45 1
    37   17   46 1
    38   18   19 2
    39   18   20 am
    40   20   21 1
    41   20   22 1
    42   21   47 1
    43   21   48 1
    44   22   23 1
    45   22   49 1
    46   22   50 1
    47   23   28 ar
    48   23   24 ar
    49   24   25 ar
    50   24   51 1
    51   25   26 ar
    52   25   52 1
    53   26   27 ar
    54   26   29 1
    55   27   28 ar
    56   27   53 1
    57   28   54 1
@<TRIPOS>MOLECULE
ZINC04363863
   52    54     0     0     0
SMALL
USER_CHARGES

@<TRIPOS>ATOM
      1 C1          0.8283    2.2401   -0.2916 C.3       1 <0>         0.0205
      2 O1          0.7457    0.8268   -0.0977 O.3       1 <0>        -0.2982
      3 C2          1.1718    0.0374   -1.1198 C.ar      1 <0>         0.1611
      4 C3          1.6640    0.6108   -2.2813 C.ar      1 <0>        -0.1945
      5 C4          2.0972   -0.1930   -3.3192 C.ar      1 <0>        -0.0086
      6 C5          2.0403   -1.5694   -3.2017 C.ar      1 <0>        -0.6825
      7 C6          1.5500   -2.1479   -2.0459 C.ar      1 <0>        -0.0781
      8 C7          1.1199   -1.3479   -0.9994 C.ar      1 <0>         0.0840
      9 O2          0.6428   -1.9155    0.1407 O.3       1 <0>        -0.3024
     10 C8          0.6190   -3.3433    0.1938 C.3       1 <0>         0.0196
     11 S1          2.5935   -2.5884   -4.5285 S.o2      1 <0>         2.6871
     12 O3          1.9291   -3.8365   -4.3862 O.2       1 <0>        -0.9473
     13 O4          2.4975   -1.8046   -5.7099 O.2       1 <0>        -0.9454
     14 N1          4.2051   -2.8795   -4.2832 N.pl3     1 <0>        -0.9883
     15 C9          4.6285   -4.0432   -3.5004 C.3       1 <0>         0.1276
     16 C10         4.8637   -5.2298   -4.4373 C.3       1 <0>        -0.0557
     17 C11         5.1528   -6.4337   -3.6411 C.1       1 <0>         0.2065
     18 N2          5.3760   -7.3628   -3.0268 N.1       1 <0>        -0.4255
     19 C12         5.2076   -1.9733   -4.8490 C.3       1 <0>         0.1918
     20 H1          4.7045   -1.1206   -5.3050 H         1 <0>         0.1131
     21 C13         6.0108   -2.7139   -5.9162 C.3       1 <0>        -0.1364
     22 C14         7.1875   -1.8263   -6.3387 C.3       1 <0>        -0.1183
     23 C15         8.1802   -1.7592   -5.1798 C.3       1 <0>        -0.0857
     24 C16         7.4775   -1.3827   -3.9018 C.ar      1 <0>        -0.0606
     25 C17         6.1134   -1.4854   -3.7487 C.ar      1 <0>        -0.0949
     26 C18         5.5290   -1.1280   -2.5407 C.ar      1 <0>        -0.1078
     27 C19         6.3039   -0.6690   -1.4955 C.ar      1 <0>        -0.1232
     28 C20         7.6732   -0.5633   -1.6511 C.ar      1 <0>        -0.1108
     29 C21         8.2549   -0.9180   -2.8491 C.ar      1 <0>        -0.1218
     30 H2          1.8664    2.5228   -0.4667 H         1 <0>         0.0607
     31 H3          0.2240    2.5247   -1.1529 H         1 <0>         0.0610
     32 H4          0.4577    2.7511    0.5971 H         1 <0>         0.1070
     33 H5          1.7089    1.6857   -2.3758 H         1 <0>         0.1472
     34 H6          2.4806    0.2552   -4.2239 H         1 <0>         0.1455
     35 H7          1.5062   -3.2233   -1.9569 H         1 <0>         0.1512
     36 H8          0.2170   -3.6644    1.1548 H         1 <0>         0.1065
     37 H9         -0.0103   -3.7263   -0.6095 H         1 <0>         0.0604
     38 H10         1.6320   -3.7282    0.0768 H         1 <0>         0.0575
     39 H11         5.5525   -3.8090   -2.9719 H         1 <0>         0.0986
     40 H12         3.8519   -4.2980   -2.7792 H         1 <0>         0.0902
     41 H13         3.9717   -5.3988   -5.0406 H         1 <0>         0.1189
     42 H14         5.7090   -5.0147   -5.0909 H         1 <0>         0.1207
     43 H15         6.3867   -3.6519   -5.5077 H         1 <0>         0.0808
     44 H16         5.3759   -2.9168   -6.7786 H         1 <0>         0.0816
     45 H17         7.6744   -2.2546   -7.2148 H         1 <0>         0.0766
     46 H18         6.8267   -0.8245   -6.5715 H         1 <0>         0.0711
     47 H19         8.6545   -2.7328   -5.0559 H         1 <0>         0.0792
     48 H20         8.9437   -1.0140   -5.4032 H         1 <0>         0.0776
     49 H21         4.4590   -1.2098   -2.4185 H         1 <0>         0.1190
     50 H22         5.8421   -0.3929   -0.5591 H         1 <0>         0.1197
     51 H23         8.2848   -0.2026   -0.8373 H         1 <0>         0.1217
     52 H24         9.3250   -0.8352   -2.9695 H         1 <0>         0.1220
@<TRIPOS>BOND
     1    1    2 1
     2    1   30 1
     3    1   31 1
     4    1   32 1
     5    2    3 1
     6    3    8 ar
     7    3    4 ar
     8    4    5 ar
     9    4   33 1
    10    5    6 ar
    11    5   34 1
    12    6    7 ar
    13    6   11 1
    14    7    8 ar
    15    7   35 1
    16    8    9 1
    17    9   10 1
    18   10   36 1
    19   10   37 1
    20   10   38 1
    21   11   12 2
    22   11   13 2
    23   11   14 1
    24   14   15 1
    25   14   19 1
    26   15   16 1
    27   15   39 1
    28   15   40 1
    29   16   17 1
    30   16   41 1
    31   16   42 1
    32   17   18 3
    33   19   20 1
    34   19   25 1
    35   19   21 1
    36   21   22 1
    37   21   43 1
    38   21   44 1
    39   22   23 1
    40   22   45 1
    41   22   46 1
    42   23   24 1
    43   23   47 1
    44   23   48 1
    45   24   29 ar
    46   24   25 ar
    47   25   26 ar
    48   26   27 ar
    49   26   49 1
    50   27   28 ar
    51   27   50 1
    52   28   29 ar
    53   28   51 1
    54   29   52 1
@<TRIPOS>MOLECULE
ZINC04363864
   52    54     0     0     0
SMALL
USER_CHARGES

@<TRIPOS>ATOM
      1 C1          0.3145    1.6710    0.0570 C.3       1 <0>         0.0205
      2 O1          0.3262    0.2437    0.1262 O.3       1 <0>        -0.2984
      3 C2          0.8477   -0.4218   -0.9390 C.ar      1 <0>         0.1602
      4 C3          1.3424    0.2837   -2.0241 C.ar      1 <0>        -0.1953
      5 C4          1.8726   -0.3943   -3.1059 C.ar      1 <0>        -0.0099
      6 C5          1.9103   -1.7763   -3.1084 C.ar      1 <0>        -0.6784
      7 C6          1.4180   -2.4863   -2.0292 C.ar      1 <0>        -0.0789
      8 C7          0.8909   -1.8127   -0.9391 C.ar      1 <0>         0.0839
      9 O2          0.4117   -2.5095    0.1260 O.3       1 <0>        -0.3025
     10 C8          0.4886   -3.9347    0.0565 C.3       1 <0>         0.0194
     11 S1          2.5868   -2.6347   -4.4906 S.o2      1 <0>         2.6847
     12 O3          2.0089   -3.9328   -4.4850 O.2       1 <0>        -0.9479
     13 O4          2.4810   -1.7585   -5.6043 O.2       1 <0>        -0.9446
     14 N1          4.2044   -2.8354   -4.1983 N.pl3     1 <0>        -0.9890
     15 C9          4.6795   -4.0318   -3.4989 C.3       1 <0>         0.1277
     16 C10         5.0833   -5.0945   -4.5228 C.3       1 <0>        -0.0553
     17 C11         5.4330   -6.3418   -3.8236 C.1       1 <0>         0.2076
     18 N2          5.7028   -7.3043   -3.2839 N.1       1 <0>        -0.4270
     19 C12         5.1604   -1.8166   -4.6392 C.3       1 <0>         0.1912
     20 H1          4.6154   -0.9624   -5.0409 H         1 <0>         0.1135
     21 C13         5.9991   -1.3630   -3.4460 C.3       1 <0>        -0.1316
     22 C14         7.1301   -0.4661   -3.9629 C.3       1 <0>        -0.1183
     23 C15         8.1186   -1.3357   -4.7371 C.3       1 <0>        -0.0848
     24 C16         7.3985   -2.1705   -5.7635 C.ar      1 <0>        -0.0624
     25 C17         6.0412   -2.3947   -5.7158 C.ar      1 <0>        -0.0934
     26 C18         5.4401   -3.1805   -6.6903 C.ar      1 <0>        -0.1032
     27 C19         6.1917   -3.7349   -7.7060 C.ar      1 <0>        -0.1241
     28 C20         7.5540   -3.5066   -7.7550 C.ar      1 <0>        -0.1099
     29 C21         8.1522   -2.7274   -6.7883 C.ar      1 <0>        -0.1220
     30 H2          1.3355    2.0381   -0.0465 H         1 <0>         0.0608
     31 H3         -0.2746    1.9881   -0.8035 H         1 <0>         0.0610
     32 H4         -0.1265    2.0753    0.9681 H         1 <0>         0.1071
     33 H5          1.3134    1.3633   -2.0249 H         1 <0>         0.1476
     34 H6          2.2578    0.1568   -3.9510 H         1 <0>         0.1459
     35 H7          1.4483   -3.5659   -2.0339 H         1 <0>         0.1510
     36 H8          0.0735   -4.3658    0.9676 H         1 <0>         0.1068
     37 H9         -0.0796   -4.2877   -0.8041 H         1 <0>         0.0604
     38 H10         1.5305   -4.2378   -0.0469 H         1 <0>         0.0577
     39 H11         5.5413   -3.7745   -2.8831 H         1 <0>         0.0991
     40 H12         3.8834   -4.4221   -2.8648 H         1 <0>         0.0919
     41 H13         4.2510   -5.2797   -5.2018 H         1 <0>         0.1153
     42 H14         5.9445   -4.7429   -5.0910 H         1 <0>         0.1206
     43 H15         5.3747   -0.8024   -2.7504 H         1 <0>         0.0767
     44 H16         6.4212   -2.2326   -2.9423 H         1 <0>         0.0787
     45 H17         6.7198    0.2991   -4.6220 H         1 <0>         0.0708
     46 H18         7.6373    0.0066   -3.1218 H         1 <0>         0.0750
     47 H19         8.8440   -0.6956   -5.2391 H         1 <0>         0.0779
     48 H20         8.6407   -1.9928   -4.0415 H         1 <0>         0.0789
     49 H21         4.3757   -3.3594   -6.6527 H         1 <0>         0.1138
     50 H22         5.7170   -4.3448   -8.4604 H         1 <0>         0.1251
     51 H23         8.1473   -3.9365   -8.5484 H         1 <0>         0.1235
     52 H24         9.2168   -2.5499   -6.8274 H         1 <0>         0.1224
@<TRIPOS>BOND
     1    1    2 1
     2    1   30 1
     3    1   31 1
     4    1   32 1
     5    2    3 1
     6    3    8 ar
     7    3    4 ar
     8    4    5 ar
     9    4   33 1
    10    5    6 ar
    11    5   34 1
    12    6    7 ar
    13    6   11 1
    14    7    8 ar
    15    7   35 1
    16    8    9 1
    17    9   10 1
    18   10   36 1
    19   10   37 1
    20   10   38 1
    21   11   12 2
    22   11   13 2
    23   11   14 1
    24   14   15 1
    25   14   19 1
    26   15   16 1
    27   15   39 1
    28   15   40 1
    29   16   17 1
    30   16   41 1
    31   16   42 1
    32   17   18 3
    33   19   20 1
    34   19   25 1
    35   19   21 1
    36   21   22 1
    37   21   43 1
    38   21   44 1
    39   22   23 1
    40   22   45 1
    41   22   46 1
    42   23   24 1
    43   23   47 1
    44   23   48 1
    45   24   29 ar
    46   24   25 ar
    47   25   26 ar
    48   26   27 ar
    49   26   49 1
    50   27   28 ar
    51   27   50 1
    52   28   29 ar
    53   28   51 1
    54   29   52 1
@<TRIPOS>MOLECULE
ZINC13731353
   39    42     0     0     0
SMALL
USER_CHARGES
isopropyl-phenyl-BLAHone
@<TRIPOS>ATOM
      1 C1          0.7536   -4.1547    0.6567 C.3       1 <0>        -0.1625
      2 C2          0.7606   -2.8966    1.5274 C.3       1 <0>         0.1130
      3 C3          1.2728   -3.2470    2.9258 C.3       1 <0>        -0.1625
      4 N1          1.6377   -1.8901    0.9241 N.pl3     1 <0>        -0.4064
      5 C4          2.9564   -2.0236    0.6766 C.2       1 <0>         0.2419
      6 N2          3.4185   -0.9285    0.1333 N.2       1 <0>        -0.4784
      7 C5          2.4275   -0.0381    0.0034 C.2       1 <0>         0.1245
      8 C6          1.2687   -0.6304    0.5046 C.2       1 <0>        -0.0962
      9 C7          0.0554    0.0881    0.4936 C.2       1 <0>         0.5960
     10 O1         -0.9518   -0.4382    0.9338 O.2       1 <0>        -0.5180
     11 N3         -0.0162    1.3401    0.0094 N.am      1 <0>        -0.4695
     12 C8          1.0913    1.9881   -0.5023 C.ar      1 <0>         0.3716
     13 C9          2.3347    1.3326   -0.5239 C.ar      1 <0>        -0.1010
     14 C10         3.4500    1.9909   -1.0421 C.ar      1 <0>        -0.0093
     15 C11         3.2823    3.2792   -1.5199 C.ar      1 <0>        -0.1969
     16 C12         2.0283    3.8642   -1.4681 C.ar      1 <0>         0.1514
     17 N4          0.9892    3.2227   -0.9745 N.ar      1 <0>        -0.4967
     18 C13        -1.2490    2.0038    0.0188 C.ar      1 <0>         0.1348
     19 C14        -1.6182    2.7703    1.1163 C.ar      1 <0>        -0.0929
     20 C15        -2.8323    3.4288    1.1199 C.ar      1 <0>        -0.1103
     21 C16        -3.6849    3.3159    0.0371 C.ar      1 <0>        -0.1063
     22 C17        -3.3228    2.5483   -1.0547 C.ar      1 <0>        -0.1103
     23 C18        -2.1075    1.8924   -1.0670 C.ar      1 <0>        -0.0932
     24 H1          0.1010   -4.9035    1.1056 H         1 <0>         0.0849
     25 H2          0.3887   -3.9051   -0.3396 H         1 <0>         0.0656
     26 H3          1.7661   -4.5518    0.5839 H         1 <0>         0.0674
     27 H4         -0.2519   -2.4995    1.6002 H         1 <0>         0.1215
     28 H5          1.2778   -2.3507    3.5461 H         1 <0>         0.0656
     29 H6          0.6202   -3.9958    3.3747 H         1 <0>         0.0849
     30 H7          2.2853   -3.6441    2.8530 H         1 <0>         0.0674
     31 H8          3.5429   -2.9039    0.8944 H         1 <0>         0.2210
     32 H9          4.4162    1.5092   -1.0700 H         1 <0>         0.1520
     33 H10         4.1211    3.8225   -1.9293 H         1 <0>         0.1471
     34 H11         1.8992    4.8694   -1.8413 H         1 <0>         0.1685
     35 H12        -0.9547    2.8554    1.9642 H         1 <0>         0.1214
     36 H13        -3.1181    4.0287    1.9712 H         1 <0>         0.1299
     37 H14        -4.6355    3.8284    0.0440 H         1 <0>         0.1284
     38 H15        -3.9910    2.4621   -1.8989 H         1 <0>         0.1299
     39 H16        -1.8250    1.2937   -1.9203 H         1 <0>         0.1213
@<TRIPOS>BOND
     1    1    2 1
     2    1   24 1
     3    1   25 1
     4    1   26 1
     5    2    3 1
     6    2    4 1
     7    2   27 1
     8    3   28 1
     9    3   29 1
    10    3   30 1
    11    4    8 1
    12    4    5 1
    13    5    6 2
    14    5   31 1
    15    6    7 1
    16    7   13 1
    17    7    8 2
    18    8    9 1
    19    9   10 2
    20    9   11 am
    21   11   12 1
    22   11   18 1
    23   12   17 ar
    24   12   13 ar
    25   13   14 ar
    26   14   15 ar
    27   14   32 1
    28   15   16 ar
    29   15   33 1
    30   16   17 ar
    31   16   34 1
    32   18   23 ar
    33   18   19 ar
    34   19   20 ar
    35   19   35 1
    36   20   21 ar
    37   20   36 1
    38   21   22 ar
    39   21   37 1
    40   22   23 ar
    41   22   38 1
    42   23   39 1
@<TRIPOS>MOLECULE
ZINC13731353
   40    43     0     0     0
SMALL
USER_CHARGES
isopropyl-phenyl-BLAHone
@<TRIPOS>ATOM
      1 C1          0.7536   -4.1547    0.6567 C.3       1 <0>        -0.1718
      2 C2          0.7606   -2.8966    1.5274 C.3       1 <0>         0.1044
      3 C3          1.2728   -3.2470    2.9258 C.3       1 <0>        -0.1718
      4 N1          1.6377   -1.8901    0.9241 N.pl3     1 <0>        -0.3550
      5 C4          2.9564   -2.0236    0.6766 C.cat     1 <0>         0.3243
      6 C5          2.4275   -0.0381    0.0034 C.2       1 <0>         0.1601
      7 C6          1.2687   -0.6304    0.5046 C.2       1 <0>        -0.0231
      8 C7          0.0554    0.0881    0.4936 C.2       1 <0>         0.5860
      9 O1         -0.9518   -0.4382    0.9338 O.2       1 <0>        -0.4759
     10 N2         -0.0162    1.3401    0.0094 N.am      1 <0>        -0.4537
     11 C8          1.0913    1.9881   -0.5023 C.ar      1 <0>         0.4029
     12 C9          2.3347    1.3326   -0.5239 C.ar      1 <0>        -0.1526
     13 C10         3.4500    1.9909   -1.0421 C.ar      1 <0>        -0.0111
     14 C11         3.2823    3.2792   -1.5199 C.ar      1 <0>        -0.1824
     15 C12         2.0283    3.8642   -1.4681 C.ar      1 <0>         0.1905
     16 N3          0.9892    3.2227   -0.9745 N.ar      1 <0>        -0.4843
     17 C13        -1.2490    2.0038    0.0188 C.ar      1 <0>         0.1063
     18 C14        -1.6182    2.7703    1.1163 C.ar      1 <0>        -0.0878
     19 C15        -2.8323    3.4288    1.1199 C.ar      1 <0>        -0.1065
     20 C16        -3.6849    3.3159    0.0371 C.ar      1 <0>        -0.0926
     21 C17        -3.3228    2.5483   -1.0547 C.ar      1 <0>        -0.1065
     22 C18        -2.1075    1.8924   -1.0670 C.ar      1 <0>        -0.0882
     23 H1          0.1010   -4.9035    1.1056 H         1 <0>         0.1063
     24 H2          0.3887   -3.9051   -0.3396 H         1 <0>         0.0754
     25 H3          1.7661   -4.5518    0.5839 H         1 <0>         0.0748
     26 H4         -0.2519   -2.4995    1.6002 H         1 <0>         0.1456
     27 H5          1.2778   -2.3507    3.5461 H         1 <0>         0.0754
     28 H6          0.6202   -3.9958    3.3747 H         1 <0>         0.1063
     29 H7          2.2853   -3.6441    2.8530 H         1 <0>         0.0748
     30 H8          3.5429   -2.9039    0.8944 H         1 <0>         0.2727
     31 H9          4.4162    1.5092   -1.0700 H         1 <0>         0.1520
     32 H10         4.1211    3.8225   -1.9293 H         1 <0>         0.1624
     33 H11         1.8992    4.8694   -1.8413 H         1 <0>         0.1847
     34 H12        -0.9547    2.8554    1.9642 H         1 <0>         0.1236
     35 H13        -3.1181    4.0287    1.9712 H         1 <0>         0.1362
     36 H14        -4.6355    3.8284    0.0440 H         1 <0>         0.1353
     37 H15        -3.9910    2.4621   -1.8989 H         1 <0>         0.1362
     38 H16        -1.8250    1.2937   -1.9203 H         1 <0>         0.1235
     39 N4          3.4195   -0.9284    0.1330 N.pl3     1 <0>        -0.4802
     40 H17         4.3941   -0.7744   -0.1509 H         1 <0>         0.4840
@<TRIPOS>BOND
     1    1    2 1
     2    1   23 1
     3    1   24 1
     4    1   25 1
     5    2    3 1
     6    2    4 1
     7    2   26 1
     8    3   27 1
     9    3   28 1
    10    3   29 1
    11    4    7 1
    12    4    5 1
    13    5   30 1
    14    5   39 2
    15    6   12 1
    16    6    7 2
    17    6   39 1
    18    7    8 1
    19    8    9 2
    20    8   10 am
    21   10   11 1
    22   10   17 1
    23   11   16 ar
    24   11   12 ar
    25   12   13 ar
    26   13   14 ar
    27   13   31 1
    28   14   15 ar
    29   14   32 1
    30   15   16 ar
    31   15   33 1
    32   17   22 ar
    33   17   18 ar
    34   18   19 ar
    35   18   34 1
    36   19   20 ar
    37   19   35 1
    38   20   21 ar
    39   20   36 1
    40   21   22 ar
    41   21   37 1
    42   22   38 1
    43   39   40 1
