@<TRIPOS>MOLECULE
ZINC43206679
   38    40     0     0     0
SMALL
USER_CHARGES

@<TRIPOS>ATOM
      1 C1          0.0575    1.6813    0.0331 C.3       1 <0>        -0.1497
      2 C2          0.1730    0.1560    0.0005 C.3       1 <0>        -0.1129
      3 C3         -1.2268   -0.4611   -0.0221 C.3       1 <0>        -0.0381
      4 C4         -1.1130   -1.9635   -0.0543 C.2       1 <0>         0.2508
      5 N1         -1.0431   -2.6950   -1.1385 N.2       1 <0>        -0.4634
      6 C5         -0.9494   -3.9849   -0.8101 C.2       1 <0>         0.0841
      7 C6         -0.9614   -4.0646    0.5648 C.2       1 <0>        -0.0770
      8 N2         -1.0613   -2.7631    1.0259 N.pl3     1 <0>        -0.3727
      9 C7         -1.0896   -2.5399    2.3928 C.ar      1 <0>         0.3305
     10 C8         -1.0129   -3.6413    3.2624 C.ar      1 <0>         0.0219
     11 C9         -1.0414   -3.4175    4.6464 C.ar      1 <0>         0.0059
     12 C10        -1.1441   -2.1174    5.0975 C.ar      1 <0>        -0.1761
     13 C11        -1.2157   -1.0766    4.1759 C.ar      1 <0>         0.3580
     14 N3         -1.1867   -1.3112    2.8754 N.ar      1 <0>        -0.5431
     15 O1         -1.3172    0.2010    4.6204 O.3       1 <0>        -0.2954
     16 C12        -1.3872    1.2288    3.6300 C.3       1 <0>         0.0339
     17 N4         -0.9123   -4.9030    2.7714 N.2       1 <0>        -0.4748
     18 C13        -0.8925   -5.1315    1.4848 C.2       1 <0>         0.2429
     19 C14        -0.7784   -6.5467    0.9797 C.3       1 <0>        -0.1058
     20 C15        -0.8495   -5.1433   -1.7688 C.3       1 <0>        -0.0782
     21 H1          1.0547    2.1210    0.0493 H         1 <0>         0.0586
     22 H2         -0.4765    2.0243   -0.8530 H         1 <0>         0.0595
     23 H3         -0.4881    1.9853    0.9265 H         1 <0>         0.0545
     24 H4          0.7186   -0.1480   -0.8928 H         1 <0>         0.0683
     25 H5          0.7071   -0.1869    0.8867 H         1 <0>         0.0578
     26 H6         -1.7724   -0.1571    0.8712 H         1 <0>         0.0936
     27 H7         -1.7608   -0.1181   -0.9083 H         1 <0>         0.0970
     28 H8         -0.9847   -4.2419    5.3418 H         1 <0>         0.1661
     29 H9         -1.1690   -1.9091    6.1570 H         1 <0>         0.1606
     30 H10        -1.4656    2.1998    4.1189 H         1 <0>         0.1034
     31 H11        -0.4874    1.2030    3.0154 H         1 <0>         0.0638
     32 H12        -2.2621    1.0674    3.0002 H         1 <0>         0.0614
     33 H13         0.0831   -6.6275    0.3168 H         1 <0>         0.0905
     34 H14        -0.6522   -7.2247    1.8237 H         1 <0>         0.0895
     35 H15        -1.6835   -6.8115    0.4331 H         1 <0>         0.0914
     36 H16         0.1982   -5.4088   -1.9099 H         1 <0>         0.0811
     37 H17        -1.3895   -5.9986   -1.3627 H         1 <0>         0.0808
     38 H18        -1.2849   -4.8604   -2.7271 H         1 <0>         0.0813
@<TRIPOS>BOND
     1    1    2 1
     2    1   21 1
     3    1   22 1
     4    1   23 1
     5    2    3 1
     6    2   24 1
     7    2   25 1
     8    3    4 1
     9    3   26 1
    10    3   27 1
    11    4    8 1
    12    4    5 2
    13    5    6 1
    14    6    7 2
    15    6   20 1
    16    7   18 1
    17    7    8 1
    18    8    9 1
    19    9   14 ar
    20    9   10 ar
    21   10   11 ar
    22   10   17 1
    23   11   12 ar
    24   11   28 1
    25   12   13 ar
    26   12   29 1
    27   13   14 ar
    28   13   15 1
    29   15   16 1
    30   16   30 1
    31   16   31 1
    32   16   32 1
    33   17   18 2
    34   18   19 1
    35   19   33 1
    36   19   34 1
    37   19   35 1
    38   20   36 1
    39   20   37 1
    40   20   38 1
@<TRIPOS>MOLECULE
ZINC36025433
   41    44     0     0     0
SMALL
USER_CHARGES

@<TRIPOS>ATOM
      1 C1          0.6814    1.7688   -1.9524 C.3       1 <0>         0.0277
      2 O1          0.4492    0.3730   -2.1524 O.3       1 <0>        -0.3372
      3 C2          0.6604   -0.4364   -1.1026 C.2       1 <0>         0.4668
      4 O2          1.0302    0.0249   -0.0489 O.2       1 <0>        -0.4932
      5 C3          0.4364   -1.9204   -1.2384 C.3       1 <0>         0.0969
      6 H1         -0.5727   -2.1674   -0.9083 H         1 <0>         0.1386
      7 C4          1.4564   -2.6733   -0.3732 C.3       1 <0>        -0.0713
      8 C5          2.8113   -2.5295   -1.0194 C.2       1 <0>        -0.1681
      9 C6          4.1227   -2.7766   -0.4630 C.ar      1 <0>        -0.0933
     10 C7          4.5561   -3.2098    0.7940 C.ar      1 <0>        -0.0649
     11 C8          5.9112   -3.3360    0.9744 C.ar      1 <0>        -0.1478
     12 C9          6.8177   -3.0507   -0.0335 C.ar      1 <0>        -0.0970
     13 C10         6.4173   -2.6209   -1.2867 C.ar      1 <0>        -0.1312
     14 C11         5.0473   -2.4828   -1.4991 C.ar      1 <0>         0.1001
     15 N1          4.3255   -2.0894   -2.5898 N.pl3     1 <0>        -0.5697
     16 H2          4.7031   -1.8282   -3.4443 H         1 <0>         0.4133
     17 C12         2.9894   -2.1199   -2.2961 C.2       1 <0>         0.0385
     18 C13         1.8434   -1.7651   -3.2138 C.3       1 <0>         0.1719
     19 H3          1.7610   -0.6812   -3.2946 H         1 <0>         0.1364
     20 N2          0.6021   -2.3145   -2.6445 N.3       1 <0>        -0.6481
     21 C14         2.0852   -2.3576   -4.5781 C.ar      1 <0>        -0.0517
     22 C15         1.5747   -3.6036   -4.8910 C.ar      1 <0>        -0.0978
     23 C16         1.7959   -4.1470   -6.1425 C.ar      1 <0>        -0.0947
     24 C17         2.5279   -3.4446   -7.0820 C.ar      1 <0>        -0.1114
     25 C18         3.0386   -2.1990   -6.7701 C.ar      1 <0>        -0.0843
     26 C19         2.8129   -1.6525   -5.5193 C.ar      1 <0>        -0.0959
     27 Br1         3.5055    0.0551   -5.0943 Br        1 <0>        -0.0448
     28 H4          0.0265    2.1366   -1.1625 H         1 <0>         0.0626
     29 H5          1.7210    1.9267   -1.6653 H         1 <0>         0.0583
     30 H6          0.4739    2.3077   -2.8768 H         1 <0>         0.1034
     31 H7          1.4784   -2.2437    0.6283 H         1 <0>         0.0990
     32 H8          1.1850   -3.7274   -0.3168 H         1 <0>         0.0935
     33 H9          3.8572   -3.4344    1.5862 H         1 <0>         0.1294
     34 H10         6.2823   -3.6678    1.9328 H         1 <0>         0.1194
     35 H11         7.8727   -3.1681    0.1652 H         1 <0>         0.1220
     36 H12         7.1341   -2.4019   -2.0643 H         1 <0>         0.1273
     37 H13         0.5715   -3.3180   -2.7449 H         1 <0>         0.3563
     38 H14         1.0032   -4.1528   -4.1574 H         1 <0>         0.1340
     39 H15         1.3973   -5.1206   -6.3865 H         1 <0>         0.1346
     40 H16         2.7008   -3.8697   -8.0597 H         1 <0>         0.1357
     41 H17         3.6103   -1.6504   -7.5040 H         1 <0>         0.1369
@<TRIPOS>BOND
     1    1    2 1
     2    1   28 1
     3    1   29 1
     4    1   30 1
     5    2    3 1
     6    3    4 2
     7    3    5 1
     8    5    6 1
     9    5   20 1
    10    5    7 1
    11    7    8 1
    12    7   31 1
    13    7   32 1
    14    8   17 2
    15    8    9 1
    16    9   14 ar
    17    9   10 ar
    18   10   11 ar
    19   10   33 1
    20   11   12 ar
    21   11   34 1
    22   12   13 ar
    23   12   35 1
    24   13   14 ar
    25   13   36 1
    26   14   15 1
    27   15   16 1
    28   15   17 1
    29   17   18 1
    30   18   19 1
    31   18   20 1
    32   18   21 1
    33   20   37 1
    34   21   26 ar
    35   21   22 ar
    36   22   23 ar
    37   22   38 1
    38   23   24 ar
    39   23   39 1
    40   24   25 ar
    41   24   40 1
    42   25   26 ar
    43   25   41 1
    44   26   27 1
@<TRIPOS>MOLECULE
ZINC36025434
   41    44     0     0     0
SMALL
USER_CHARGES

@<TRIPOS>ATOM
      1 C1          0.1203    1.4313    0.1255 C.3       1 <0>         0.0335
      2 O1          0.0974    0.0032    0.0811 O.3       1 <0>        -0.3513
      3 C2          0.6878   -0.5833   -0.9721 C.2       1 <0>         0.4713
      4 O2          1.2067    0.0934   -1.8280 O.2       1 <0>        -0.4900
      5 C3          0.7033   -2.0858   -1.0870 C.3       1 <0>         0.0983
      6 H1          0.8832   -2.5236   -0.1051 H         1 <0>         0.1242
      7 C4         -0.6499   -2.5720   -1.6239 C.3       1 <0>        -0.0677
      8 C5         -0.5117   -4.0300   -1.9833 C.2       1 <0>        -0.1654
      9 C6         -1.5414   -5.0142   -2.2314 C.ar      1 <0>        -0.0944
     10 C7         -2.9384   -4.9514   -2.2237 C.ar      1 <0>        -0.0665
     11 C8         -3.6139   -6.1110   -2.5132 C.ar      1 <0>        -0.1469
     12 C9         -2.9545   -7.2947   -2.8013 C.ar      1 <0>        -0.0969
     13 C10        -1.5735   -7.3860   -2.8157 C.ar      1 <0>        -0.1300
     14 C11        -0.8608   -6.2245   -2.5257 C.ar      1 <0>         0.1012
     15 N1          0.4785   -5.9665   -2.4544 N.pl3     1 <0>        -0.5688
     16 H2          1.1811   -6.6168   -2.6107 H         1 <0>         0.4143
     17 C12         0.6801   -4.6526   -2.1299 C.2       1 <0>         0.0447
     18 C13         2.0040   -3.9479   -1.9513 C.3       1 <0>         0.1925
     19 H3          2.4319   -4.2118   -0.9842 H         1 <0>         0.1217
     20 N2          1.7714   -2.4957   -2.0095 N.3       1 <0>        -0.6494
     21 C14         2.9484   -4.3581   -3.0517 C.ar      1 <0>        -0.0566
     22 C15         3.0293   -3.6066   -4.2092 C.ar      1 <0>        -0.0950
     23 C16         3.8958   -3.9824   -5.2183 C.ar      1 <0>        -0.0947
     24 C17         4.6821   -5.1101   -5.0707 C.ar      1 <0>        -0.1095
     25 C18         4.6019   -5.8620   -3.9139 C.ar      1 <0>        -0.0850
     26 C19         3.7385   -5.4832   -2.9014 C.ar      1 <0>        -0.0954
     27 Br1         3.6335   -6.5076   -1.3154 Br        1 <0>        -0.0428
     28 H4          1.1536    1.7779    0.1384 H         1 <0>         0.0624
     29 H5         -0.3859    1.8303   -0.7536 H         1 <0>         0.0616
     30 H6         -0.3896    1.7751    1.0255 H         1 <0>         0.1043
     31 H7         -1.4151   -2.4525   -0.8569 H         1 <0>         0.0957
     32 H8         -0.9225   -1.9984   -2.5098 H         1 <0>         0.0812
     33 H9         -3.4615   -4.0334   -2.0001 H         1 <0>         0.1294
     34 H10        -4.6939   -6.1001   -2.5160 H         1 <0>         0.1195
     35 H11        -3.5379   -8.1764   -3.0219 H         1 <0>         0.1222
     36 H12        -1.0713   -8.3151   -3.0413 H         1 <0>         0.1278
     37 H13         1.5682   -2.1996   -2.9525 H         1 <0>         0.3579
     38 H14         2.4151   -2.7258   -4.3251 H         1 <0>         0.1343
     39 H15         3.9585   -3.3952   -6.1226 H         1 <0>         0.1348
     40 H16         5.3587   -5.4036   -5.8596 H         1 <0>         0.1360
     41 H17         5.2161   -6.7428   -3.7987 H         1 <0>         0.1374
@<TRIPOS>BOND
     1    1    2 1
     2    1   28 1
     3    1   29 1
     4    1   30 1
     5    2    3 1
     6    3    4 2
     7    3    5 1
     8    5    6 1
     9    5   20 1
    10    5    7 1
    11    7    8 1
    12    7   31 1
    13    7   32 1
    14    8   17 2
    15    8    9 1
    16    9   14 ar
    17    9   10 ar
    18   10   11 ar
    19   10   33 1
    20   11   12 ar
    21   11   34 1
    22   12   13 ar
    23   12   35 1
    24   13   14 ar
    25   13   36 1
    26   14   15 1
    27   15   16 1
    28   15   17 1
    29   17   18 1
    30   18   19 1
    31   18   20 1
    32   18   21 1
    33   20   37 1
    34   21   26 ar
    35   21   22 ar
    36   22   23 ar
    37   22   38 1
    38   23   24 ar
    39   23   39 1
    40   24   25 ar
    41   24   40 1
    42   25   26 ar
    43   25   41 1
    44   26   27 1
@<TRIPOS>MOLECULE
ZINC13743193
   37    39     0     0     0
SMALL
USER_CHARGES
2-phenyl-N-propyl-quinazolin-4-amine
@<TRIPOS>ATOM
      1 C1          3.8220   -4.8989   -0.0617 C.3       1 <0>        -0.1494
      2 C2          2.4551   -4.2117   -0.0450 C.3       1 <0>        -0.1387
      3 C3          2.6474   -2.6939   -0.0381 C.3       1 <0>         0.1243
      4 N1          1.3386   -2.0359   -0.0221 N.pl3     1 <0>        -0.6976
      5 C4          1.2591   -0.6595   -0.0135 C.ar      1 <0>         0.4783
      6 C5          0.0021   -0.0041    0.0020 C.ar      1 <0>        -0.2026
      7 C6         -1.2037   -0.7129    0.0102 C.ar      1 <0>        -0.0689
      8 C7         -2.3849   -0.0305    0.0256 C.ar      1 <0>        -0.1358
      9 C8         -2.4064    1.3614    0.0337 C.ar      1 <0>        -0.0732
     10 C9         -1.2491    2.0817    0.0310 C.ar      1 <0>        -0.1108
     11 C10        -0.0171    1.4124    0.0098 C.ar      1 <0>         0.1936
     12 N2          1.1481    2.0740    0.0022 N.ar      1 <0>        -0.5463
     13 C11         2.2911    1.4143   -0.0122 C.ar      1 <0>         0.4141
     14 N3          2.3549    0.0841   -0.0200 N.ar      1 <0>        -0.5876
     15 C12         3.5570    2.1864   -0.0206 C.ar      1 <0>        -0.0492
     16 C13         4.7820    1.5214   -0.0305 C.ar      1 <0>        -0.0690
     17 C14         5.9569    2.2452   -0.0441 C.ar      1 <0>        -0.1336
     18 C15         5.9206    3.6281   -0.0359 C.ar      1 <0>        -0.0990
     19 C16         4.7079    4.2934   -0.0203 C.ar      1 <0>        -0.1326
     20 C17         3.5265    3.5800   -0.0129 C.ar      1 <0>        -0.0682
     21 H1          3.6850   -5.9803   -0.0666 H         1 <0>         0.0616
     22 H2          4.3691   -4.5980   -0.9551 H         1 <0>         0.0592
     23 H3          4.3857   -4.6081    0.8247 H         1 <0>         0.0592
     24 H4          1.9080   -4.5127    0.8485 H         1 <0>         0.0690
     25 H5          1.8914   -4.5025   -0.9314 H         1 <0>         0.0690
     26 H6          3.1945   -2.3929   -0.9315 H         1 <0>         0.0721
     27 H7          3.2112   -2.4031    0.8483 H         1 <0>         0.0721
     28 H8          0.5280   -2.5685   -0.0175 H         1 <0>         0.4116
     29 H9         -1.1997   -1.7929    0.0047 H         1 <0>         0.1243
     30 H10        -3.3160   -0.5776    0.0319 H         1 <0>         0.1302
     31 H11        -3.3545    1.8784    0.0459 H         1 <0>         0.1335
     32 H12        -1.2810    3.1612    0.0375 H         1 <0>         0.1399
     33 H13         4.8116    0.4418   -0.0324 H         1 <0>         0.1347
     34 H14         6.9066    1.7311   -0.0566 H         1 <0>         0.1266
     35 H15         6.8426    4.1904   -0.0420 H         1 <0>         0.1246
     36 H16         4.6855    5.3731   -0.0143 H         1 <0>         0.1274
     37 H17         2.5803    4.1005   -0.0014 H         1 <0>         0.1369
@<TRIPOS>BOND
     1    1    2 1
     2    1   21 1
     3    1   22 1
     4    1   23 1
     5    2    3 1
     6    2   24 1
     7    2   25 1
     8    3    4 1
     9    3   26 1
    10    3   27 1
    11    4    5 1
    12    4   28 1
    13    5   14 ar
    14    5    6 ar
    15    6   11 ar
    16    6    7 ar
    17    7    8 ar
    18    7   29 1
    19    8    9 ar
    20    8   30 1
    21    9   10 ar
    22    9   31 1
    23   10   11 ar
    24   10   32 1
    25   11   12 ar
    26   12   13 ar
    27   13   14 ar
    28   13   15 1
    29   15   20 ar
    30   15   16 ar
    31   16   17 ar
    32   16   33 1
    33   17   18 ar
    34   17   34 1
    35   18   19 ar
    36   18   35 1
    37   19   20 ar
    38   19   36 1
    39   20   37 1
@<TRIPOS>MOLECULE
ZINC01745102
   44    47     0     0     0
SMALL
USER_CHARGES
methyl 3-(2-phenylquinazolin-4-yl)aminobenzoate
@<TRIPOS>ATOM
      1 C1         10.7237    4.0561    1.1825 C.3       1 <0>         0.0363
      2 O1          9.4948    4.6196    0.6528 O.3       1 <0>        -0.3532
      3 C2          8.3808    3.8704    0.7640 C.2       1 <0>         0.5099
      4 O2          8.4345    2.7764    1.2891 O.2       1 <0>        -0.5043
      5 C3          7.0936    4.3794    0.2473 C.ar      1 <0>        -0.1068
      6 C4          7.0291    5.6370   -0.3569 C.ar      1 <0>        -0.0734
      7 C5          5.8259    6.1100   -0.8386 C.ar      1 <0>        -0.1116
      8 C6          4.6810    5.3433   -0.7254 C.ar      1 <0>        -0.0764
      9 C7          4.7343    4.0903   -0.1262 C.ar      1 <0>         0.1431
     10 C8          5.9376    3.6076    0.3655 C.ar      1 <0>        -0.0824
     11 N1          3.5735    3.3190   -0.0142 N.pl3     1 <0>        -0.6380
     12 C9          2.3519    3.9336    0.1690 C.ar      1 <0>         0.4713
     13 C10         1.1514    3.1796    0.1675 C.ar      1 <0>        -0.1939
     14 C11         1.1469    1.7930   -0.0165 C.ar      1 <0>        -0.0726
     15 C12        -0.0384    1.1175   -0.0083 C.ar      1 <0>        -0.1284
     16 C13        -1.2433    1.7898    0.1753 C.ar      1 <0>        -0.0714
     17 C14        -1.2730    3.1397    0.3627 C.ar      1 <0>        -0.1077
     18 C15        -0.0732    3.8655    0.3600 C.ar      1 <0>         0.1938
     19 N2         -0.0487    5.1937    0.5350 N.ar      1 <0>        -0.5351
     20 C16         1.0978    5.8478    0.5277 C.ar      1 <0>         0.4102
     21 N3          2.2709    5.2430    0.3507 N.ar      1 <0>        -0.5741
     22 C17         1.0786    7.3173    0.7252 C.ar      1 <0>        -0.0512
     23 C18         2.2716    8.0383    0.7288 C.ar      1 <0>        -0.0698
     24 C19         2.2472    9.4065    0.9074 C.ar      1 <0>        -0.1323
     25 C20         1.0429   10.0609    1.0945 C.ar      1 <0>        -0.0970
     26 C21        -0.1436    9.3498    1.0975 C.ar      1 <0>        -0.1319
     27 C22        -0.1320    7.9821    0.9137 C.ar      1 <0>        -0.0672
     28 H1         10.6053    3.8640    2.2488 H         1 <0>         0.0650
     29 H2         10.9466    3.1217    0.6675 H         1 <0>         0.0650
     30 H3         11.5419    4.7598    1.0288 H         1 <0>         0.1053
     31 H4          7.9211    6.2394   -0.4467 H         1 <0>         0.1413
     32 H5          5.7781    7.0827   -1.3055 H         1 <0>         0.1383
     33 H6          3.7420    5.7192   -1.1041 H         1 <0>         0.1444
     34 H7          5.9803    2.6361    0.8354 H         1 <0>         0.1403
     35 H8          3.6271    2.3518   -0.0653 H         1 <0>         0.4238
     36 H9          2.0751    1.2609   -0.1637 H         1 <0>         0.1266
     37 H10        -0.0422    0.0469   -0.1507 H         1 <0>         0.1328
     38 H11        -2.1686    1.2328    0.1733 H         1 <0>         0.1358
     39 H12        -2.2150    3.6477    0.5077 H         1 <0>         0.1422
     40 H13         3.2127    7.5278    0.5873 H         1 <0>         0.1355
     41 H14         3.1705    9.9668    0.9056 H         1 <0>         0.1275
     42 H15         1.0290   11.1312    1.2383 H         1 <0>         0.1252
     43 H16        -1.0810    9.8660    1.2437 H         1 <0>         0.1279
     44 H17        -1.0590    7.4280    0.9156 H         1 <0>         0.1370
@<TRIPOS>BOND
     1    1    2 1
     2    1   28 1
     3    1   29 1
     4    1   30 1
     5    2    3 1
     6    3    4 2
     7    3    5 1
     8    5   10 ar
     9    5    6 ar
    10    6    7 ar
    11    6   31 1
    12    7    8 ar
    13    7   32 1
    14    8    9 ar
    15    8   33 1
    16    9   10 ar
    17    9   11 1
    18   10   34 1
    19   11   12 1
    20   11   35 1
    21   12   21 ar
    22   12   13 ar
    23   13   18 ar
    24   13   14 ar
    25   14   15 ar
    26   14   36 1
    27   15   16 ar
    28   15   37 1
    29   16   17 ar
    30   16   38 1
    31   17   18 ar
    32   17   39 1
    33   18   19 ar
    34   19   20 ar
    35   20   21 ar
    36   20   22 1
    37   22   27 ar
    38   22   23 ar
    39   23   24 ar
    40   23   40 1
    41   24   25 ar
    42   24   41 1
    43   25   26 ar
    44   25   42 1
    45   26   27 ar
    46   26   43 1
    47   27   44 1
@<TRIPOS>MOLECULE
ZINC03354760
   38    41     0     0     0
SMALL
USER_CHARGES

@<TRIPOS>ATOM
      1 C1         -0.0167    1.3791    0.0096 C.ar      1 <0>        -0.0987
      2 C2          1.1686    2.0923    0.0021 C.ar      1 <0>        -0.1325
      3 C3          2.3774    1.4267   -0.0134 C.ar      1 <0>        -0.0680
      4 C4          2.4025    0.0330   -0.0211 C.ar      1 <0>        -0.0495
      5 C5          1.2049   -0.6804   -0.0130 C.ar      1 <0>        -0.0689
      6 C6          0.0021   -0.0041    0.0020 C.ar      1 <0>        -0.1335
      7 C7          3.6981   -0.6880   -0.0382 C.ar      1 <0>         0.4150
      8 N1          4.8142    0.0169   -0.0405 N.ar      1 <0>        -0.5444
      9 C8          6.0045   -0.5975   -0.0554 C.ar      1 <0>         0.1945
     10 C9          7.2092    0.1202   -0.0577 C.ar      1 <0>        -0.1106
     11 C10         8.3940   -0.5537   -0.0728 C.ar      1 <0>        -0.0725
     12 C11         8.4277   -1.9453   -0.0863 C.ar      1 <0>        -0.1347
     13 C12         7.2746   -2.6742   -0.0849 C.ar      1 <0>        -0.0687
     14 C13         6.0416   -2.0139   -0.0687 C.ar      1 <0>        -0.2005
     15 C14         4.8119   -2.7187   -0.0654 C.ar      1 <0>         0.4804
     16 N2          3.6872   -2.0194   -0.0452 N.ar      1 <0>        -0.5879
     17 N3          4.7872   -4.0972   -0.0783 N.pl3     1 <0>        -0.6946
     18 C15         3.5056   -4.8068   -0.0747 C.3       1 <0>         0.2160
     19 C16         3.7544   -6.2931   -0.0907 C.2       1 <0>        -0.1824
     20 C17         3.8982   -7.1458    0.9531 C.2       1 <0>        -0.1266
     21 C18         4.1215   -8.4859    0.6981 C.2       1 <0>        -0.1649
     22 C19         4.1899   -8.9077   -0.5883 C.2       1 <0>        -0.1596
     23 S1          3.9282   -7.3889   -1.4894 S.3       1 <0>         0.0544
     24 H1         -0.9603    1.9042    0.0260 H         1 <0>         0.1245
     25 H2          1.1479    3.1721    0.0081 H         1 <0>         0.1274
     26 H3          3.3022    1.9845   -0.0199 H         1 <0>         0.1369
     27 H4          1.2184   -1.7603   -0.0192 H         1 <0>         0.1349
     28 H5         -0.9264   -0.5557    0.0082 H         1 <0>         0.1267
     29 H6          7.1984    1.2001   -0.0481 H         1 <0>         0.1402
     30 H7          9.3210    0.0006   -0.0745 H         1 <0>         0.1338
     31 H8          9.3799   -2.4548   -0.0984 H         1 <0>         0.1304
     32 H9          7.3134   -3.7534   -0.0962 H         1 <0>         0.1242
     33 H10         5.6184   -4.5971   -0.0897 H         1 <0>         0.4141
     34 H11         2.9460   -4.5418    0.8224 H         1 <0>         0.0953
     35 H12         2.9317   -4.5250   -0.9574 H         1 <0>         0.0878
     36 H13         3.8396   -6.7835    1.9688 H         1 <0>         0.1360
     37 H14         4.2399   -9.1863    1.5116 H         1 <0>         0.1374
     38 H15         4.3558   -9.9046   -0.9692 H         1 <0>         0.1887
@<TRIPOS>BOND
     1    1    6 ar
     2    1    2 ar
     3    1   24 1
     4    2    3 ar
     5    2   25 1
     6    3    4 ar
     7    3   26 1
     8    4    5 ar
     9    4    7 1
    10    5    6 ar
    11    5   27 1
    12    6   28 1
    13    7   16 ar
    14    7    8 ar
    15    8    9 ar
    16    9   14 ar
    17    9   10 ar
    18   10   11 ar
    19   10   29 1
    20   11   12 ar
    21   11   30 1
    22   12   13 ar
    23   12   31 1
    24   13   14 ar
    25   13   32 1
    26   14   15 ar
    27   15   16 ar
    28   15   17 1
    29   17   18 1
    30   17   33 1
    31   18   19 1
    32   18   34 1
    33   18   35 1
    34   19   23 1
    35   19   20 2
    36   20   21 1
    37   20   36 1
    38   21   22 2
    39   21   37 1
    40   22   23 1
    41   22   38 1
@<TRIPOS>MOLECULE
ZINC03453546
   38    41     0     0     0
SMALL
USER_CHARGES

@<TRIPOS>ATOM
      1 C1         -0.0167    1.3781    0.0096 C.ar      1 <0>        -0.1086
      2 C2          1.1709    2.0855    0.0021 C.ar      1 <0>        -0.1216
      3 C3          2.3773    1.4107   -0.0130 C.ar      1 <0>        -0.0987
      4 C4          2.3960    0.0285   -0.0201 C.ar      1 <0>        -0.1162
      5 C5          1.2084   -0.6789   -0.0117 C.ar      1 <0>        -0.0987
      6 C6          0.0021   -0.0041    0.0020 C.ar      1 <0>        -0.1216
      7 C7          3.7112   -0.7071   -0.0376 C.3       1 <0>         0.1688
      8 N1          4.1518   -0.9524    1.3379 N.pl3     1 <0>        -0.6910
      9 C8          5.3374   -1.6154    1.5741 C.ar      1 <0>         0.4824
     10 C9          5.7777   -1.8673    2.8986 C.ar      1 <0>        -0.1996
     11 C10         5.0395   -1.4605    4.0145 C.ar      1 <0>        -0.0682
     12 C11         5.5098   -1.7293    5.2668 C.ar      1 <0>        -0.1338
     13 C12         6.7142   -2.4029    5.4489 C.ar      1 <0>        -0.0722
     14 C13         7.4579   -2.8126    4.3823 C.ar      1 <0>        -0.1093
     15 C14         7.0038   -2.5532    3.0812 C.ar      1 <0>         0.1950
     16 N2          7.6973   -2.9358    2.0005 N.ar      1 <0>        -0.5380
     17 C15         7.2417   -2.6758    0.7861 C.ar      1 <0>         0.4543
     18 N3          6.0901   -2.0373    0.5705 N.ar      1 <0>        -0.5878
     19 C16         8.0362   -3.1140   -0.3765 C.2       1 <0>        -0.1181
     20 C17         9.2306   -3.7871   -0.4026 C.2       1 <0>        -0.0981
     21 C18         9.7908   -4.0927   -1.6208 C.2       1 <0>        -0.1675
     22 C19         9.1466   -3.7201   -2.7586 C.2       1 <0>        -0.1693
     23 S1          7.6895   -2.9131   -2.1164 S.3       1 <0>         0.1122
     24 H1         -0.9591    1.9053    0.0259 H         1 <0>         0.1248
     25 H2          1.1563    3.1654    0.0076 H         1 <0>         0.1255
     26 H3          3.3051    1.9634   -0.0196 H         1 <0>         0.1243
     27 H4          1.2231   -1.7588   -0.0176 H         1 <0>         0.1243
     28 H5         -0.9258   -0.5567    0.0082 H         1 <0>         0.1255
     29 H6          3.5884   -1.6586   -0.5549 H         1 <0>         0.0815
     30 H7          4.4573   -0.1052   -0.5563 H         1 <0>         0.0815
     31 H8          3.6095   -0.6484    2.0824 H         1 <0>         0.4134
     32 H9          4.1038   -0.9368    3.8859 H         1 <0>         0.1249
     33 H10         4.9399   -1.4149    6.1286 H         1 <0>         0.1308
     34 H11         7.0650   -2.6038    6.4504 H         1 <0>         0.1343
     35 H12         8.3909   -3.3336    4.5385 H         1 <0>         0.1407
     36 H13         9.7222   -4.0715    0.5160 H         1 <0>         0.1447
     37 H14        10.7309   -4.6218   -1.6730 H         1 <0>         0.1392
     38 H15         9.4392   -3.8758   -3.7865 H         1 <0>         0.1901
@<TRIPOS>BOND
     1    1    6 ar
     2    1    2 ar
     3    1   24 1
     4    2    3 ar
     5    2   25 1
     6    3    4 ar
     7    3   26 1
     8    4    5 ar
     9    4    7 1
    10    5    6 ar
    11    5   27 1
    12    6   28 1
    13    7    8 1
    14    7   29 1
    15    7   30 1
    16    8    9 1
    17    8   31 1
    18    9   18 ar
    19    9   10 ar
    20   10   15 ar
    21   10   11 ar
    22   11   12 ar
    23   11   32 1
    24   12   13 ar
    25   12   33 1
    26   13   14 ar
    27   13   34 1
    28   14   15 ar
    29   14   35 1
    30   15   16 ar
    31   16   17 ar
    32   17   18 ar
    33   17   19 1
    34   19   23 1
    35   19   20 2
    36   20   21 1
    37   20   36 1
    38   21   22 2
    39   21   37 1
    40   22   23 1
    41   22   38 1
@<TRIPOS>MOLECULE
ZINC00071704
   44    47     0     0     0
SMALL
USER_CHARGES
N-phenethyl-2-phenyl-quinazolin-4-amine
@<TRIPOS>ATOM
      1 C1         -6.1671    2.7561    0.0463 C.ar      1 <0>        -0.1194
      2 C2         -5.5696    2.4251   -1.1555 C.ar      1 <0>        -0.1176
      3 C3         -4.3630    1.7507   -1.1649 C.ar      1 <0>        -0.1131
      4 C4         -3.7541    1.4067    0.0275 C.ar      1 <0>        -0.0841
      5 C5         -4.3544    1.7327    1.2293 C.ar      1 <0>        -0.1131
      6 C6         -5.5584    2.4118    1.2387 C.ar      1 <0>        -0.1176
      7 C7         -2.4389    0.6711    0.0173 C.3       1 <0>        -0.0937
      8 C8         -1.2896    1.6810    0.0173 C.3       1 <0>         0.1323
      9 N1         -0.0111    0.9658    0.0074 N.pl3     1 <0>        -0.6980
     10 C9          1.1734    1.6714   -0.0002 C.ar      1 <0>         0.4791
     11 C10         2.4207    0.9977   -0.0157 C.ar      1 <0>        -0.2019
     12 C11         2.5095   -0.3982   -0.0246 C.ar      1 <0>        -0.0690
     13 C12         3.7367   -0.9939   -0.0399 C.ar      1 <0>        -0.1356
     14 C13         4.9015   -0.2316   -0.0469 C.ar      1 <0>        -0.0733
     15 C14         4.8495    1.1305   -0.0386 C.ar      1 <0>        -0.1106
     16 C15         3.6046    1.7757   -0.0228 C.ar      1 <0>         0.1936
     17 N2          3.4994    3.1115   -0.0145 N.ar      1 <0>        -0.5458
     18 C16         2.3125    3.6884   -0.0001 C.ar      1 <0>         0.4145
     19 N3          1.1750    2.9957    0.0014 N.ar      1 <0>        -0.5864
     20 C17         2.2424    5.1695    0.0080 C.ar      1 <0>        -0.0494
     21 C18         1.0051    5.8113    0.0174 C.ar      1 <0>        -0.0686
     22 C19         0.9460    7.1900    0.0303 C.ar      1 <0>        -0.1335
     23 C20         2.1116    7.9350    0.0228 C.ar      1 <0>        -0.0989
     24 C21         3.3423    7.3035    0.0077 C.ar      1 <0>        -0.1327
     25 C22         3.4136    5.9253    0.0005 C.ar      1 <0>        -0.0682
     26 H1         -7.1096    3.2833    0.0536 H         1 <0>         0.1226
     27 H2         -6.0453    2.6938   -2.0872 H         1 <0>         0.1232
     28 H3         -3.8962    1.4921   -2.1039 H         1 <0>         0.1218
     29 H4         -3.8809    1.4601    2.1609 H         1 <0>         0.1218
     30 H5         -6.0254    2.6700    2.1777 H         1 <0>         0.1232
     31 H6         -2.3769    0.0501   -0.8764 H         1 <0>         0.0801
     32 H7         -2.3685    0.0404    0.9035 H         1 <0>         0.0801
     33 H8         -1.3516    2.3020    0.9110 H         1 <0>         0.0742
     34 H9         -1.3601    2.3116   -0.8689 H         1 <0>         0.0742
     35 H10         0.0021   -0.0041    0.0020 H         1 <0>         0.4118
     36 H11         1.6129   -1.0002   -0.0189 H         1 <0>         0.1245
     37 H12         3.8056   -2.0717   -0.0464 H         1 <0>         0.1302
     38 H13         5.8611   -0.7270   -0.0587 H         1 <0>         0.1334
     39 H14         5.7614    1.7092   -0.0438 H         1 <0>         0.1398
     40 H15         0.0944    5.2307    0.0191 H         1 <0>         0.1346
     41 H16        -0.0121    7.6884    0.0421 H         1 <0>         0.1265
     42 H17         2.0606    9.0138    0.0291 H         1 <0>         0.1245
     43 H18         4.2490    7.8902    0.0019 H         1 <0>         0.1274
     44 H19         4.3750    5.4334   -0.0106 H         1 <0>         0.1369
@<TRIPOS>BOND
     1    1    6 ar
     2    1    2 ar
     3    1   26 1
     4    2    3 ar
     5    2   27 1
     6    3    4 ar
     7    3   28 1
     8    4    5 ar
     9    4    7 1
    10    5    6 ar
    11    5   29 1
    12    6   30 1
    13    7    8 1
    14    7   31 1
    15    7   32 1
    16    8    9 1
    17    8   33 1
    18    8   34 1
    19    9   10 1
    20    9   35 1
    21   10   19 ar
    22   10   11 ar
    23   11   16 ar
    24   11   12 ar
    25   12   13 ar
    26   12   36 1
    27   13   14 ar
    28   13   37 1
    29   14   15 ar
    30   14   38 1
    31   15   16 ar
    32   15   39 1
    33   16   17 ar
    34   17   18 ar
    35   18   19 ar
    36   18   20 1
    37   20   25 ar
    38   20   21 ar
    39   21   22 ar
    40   21   40 1
    41   22   23 ar
    42   22   41 1
    43   23   24 ar
    44   23   42 1
    45   24   25 ar
    46   24   43 1
    47   25   44 1
@<TRIPOS>MOLECULE
ZINC01826371
   31    33     0     0     0
SMALL
USER_CHARGES
N-benzyl-2-chloro-quinazolin-4-amine
@<TRIPOS>ATOM
      1 C1          8.3452   -2.1289   -0.0873 C.ar      1 <0>        -0.1079
      2 C2          7.7733   -1.7187   -1.2771 C.ar      1 <0>        -0.1216
      3 C3          6.6518   -0.9108   -1.2625 C.ar      1 <0>        -0.0984
      4 C4          6.1023   -0.5127   -0.0581 C.ar      1 <0>        -0.1178
      5 C5          6.6775   -0.9183    1.1316 C.ar      1 <0>        -0.0983
      6 C6          7.7957   -1.7308    1.1171 C.ar      1 <0>        -0.1216
      7 C7          4.8798    0.3684   -0.0422 C.3       1 <0>         0.1668
      8 N1          3.6761   -0.4665   -0.0352 N.pl3     1 <0>        -0.6860
      9 C8          2.4295    0.1215   -0.0205 C.ar      1 <0>         0.4920
     10 C9          1.2529   -0.6675   -0.0135 C.ar      1 <0>        -0.1988
     11 C10         1.2957   -2.0660   -0.0210 C.ar      1 <0>        -0.0678
     12 C11         0.1298   -2.7738   -0.0132 C.ar      1 <0>        -0.1297
     13 C12        -1.1009   -2.1236    0.0021 C.ar      1 <0>        -0.0694
     14 C13        -1.1764   -0.7625    0.0097 C.ar      1 <0>        -0.1067
     15 C14         0.0021   -0.0041    0.0020 C.ar      1 <0>         0.1990
     16 N2         -0.0161    1.3373    0.0094 N.ar      1 <0>        -0.5384
     17 C15         1.1066    2.0182    0.0023 C.ar      1 <0>         0.4196
     18 N3          2.2991    1.4410   -0.0122 N.ar      1 <0>        -0.5877
     19 Cl1         1.0248    3.7522    0.0124 Cl        1 <0>         0.0223
     20 H1          9.2210   -2.7607   -0.0987 H         1 <0>         0.1251
     21 H2          8.2026   -2.0297   -2.2181 H         1 <0>         0.1259
     22 H3          6.2050   -0.5903   -2.1921 H         1 <0>         0.1247
     23 H4          6.2508   -0.6037    2.0726 H         1 <0>         0.1247
     24 H5          8.2423   -2.0516    2.0466 H         1 <0>         0.1259
     25 H6          4.8772    1.0022   -0.9290 H         1 <0>         0.0837
     26 H7          4.8939    0.9932    0.8509 H         1 <0>         0.0837
     27 H8          3.7563   -1.4332   -0.0408 H         1 <0>         0.4153
     28 H9          2.2448   -2.5812   -0.0325 H         1 <0>         0.1273
     29 H10         0.1619   -3.8534   -0.0185 H         1 <0>         0.1333
     30 H11        -2.0101   -2.7065    0.0080 H         1 <0>         0.1369
     31 H12        -2.1384   -0.2717    0.0219 H         1 <0>         0.1437
@<TRIPOS>BOND
     1    1    6 ar
     2    1    2 ar
     3    1   20 1
     4    2    3 ar
     5    2   21 1
     6    3    4 ar
     7    3   22 1
     8    4    5 ar
     9    4    7 1
    10    5    6 ar
    11    5   23 1
    12    6   24 1
    13    7    8 1
    14    7   25 1
    15    7   26 1
    16    8    9 1
    17    8   27 1
    18    9   18 ar
    19    9   10 ar
    20   10   15 ar
    21   10   11 ar
    22   11   12 ar
    23   11   28 1
    24   12   13 ar
    25   12   29 1
    26   13   14 ar
    27   13   30 1
    28   14   15 ar
    29   14   31 1
    30   15   16 ar
    31   16   17 ar
    32   17   18 ar
    33   17   19 1
@<TRIPOS>MOLECULE
ZINC06773541
   38    41     0     0     0
SMALL
USER_CHARGES
N-benzyl-2-(2-furyl)quinazolin-4-amine
@<TRIPOS>ATOM
      1 C1         -2.1183    8.3425    0.0765 C.ar      1 <0>        -0.1087
      2 C2         -2.2231    7.6633   -1.1229 C.ar      1 <0>        -0.1215
      3 C3         -2.3981    6.2921   -1.1276 C.ar      1 <0>        -0.0988
      4 C4         -2.4687    5.6001    0.0670 C.ar      1 <0>        -0.1162
      5 C5         -2.3696    6.2801    1.2665 C.ar      1 <0>        -0.0987
      6 C6         -2.1889    7.6506    1.2712 C.ar      1 <0>        -0.1216
      7 C7         -2.6599    4.1053    0.0618 C.3       1 <0>         0.1689
      8 N1         -1.3520    3.4458    0.0396 N.pl3     1 <0>        -0.6903
      9 C8         -1.2741    2.0692    0.0312 C.ar      1 <0>         0.4806
     10 C9         -0.0171    1.4125    0.0098 C.ar      1 <0>        -0.1989
     11 C10         1.1885    2.1211    0.0021 C.ar      1 <0>        -0.0683
     12 C11         2.3699    1.4387   -0.0133 C.ar      1 <0>        -0.1329
     13 C12         2.3916    0.0470   -0.0206 C.ar      1 <0>        -0.0718
     14 C13         1.2343   -0.6735   -0.0134 C.ar      1 <0>        -0.1085
     15 C14         0.0021   -0.0041    0.0020 C.ar      1 <0>         0.1964
     16 N2         -1.1626   -0.6660    0.0100 N.ar      1 <0>        -0.5353
     17 C15        -2.3083   -0.0049    0.0250 C.ar      1 <0>         0.4488
     18 N3         -2.3706    1.3279    0.0328 N.ar      1 <0>        -0.5830
     19 C16        -3.5678   -0.7722    0.0339 C.2       1 <0>         0.0225
     20 C17        -3.6771   -2.1291    0.0282 C.2       1 <0>        -0.1328
     21 C18        -5.0528   -2.4248    0.0407 C.2       1 <0>        -0.2237
     22 C19        -5.7105   -1.2472    0.0533 C.2       1 <0>        -0.0141
     23 O1         -4.8109   -0.2521    0.0551 O.3       1 <0>        -0.1533
     24 H1         -1.9809    9.4137    0.0802 H         1 <0>         0.1248
     25 H2         -2.1680    8.2039   -2.0562 H         1 <0>         0.1256
     26 H3         -2.4800    5.7614   -2.0647 H         1 <0>         0.1244
     27 H4         -2.4292    5.7401    2.1999 H         1 <0>         0.1243
     28 H5         -2.1066    8.1812    2.2082 H         1 <0>         0.1256
     29 H6         -3.2284    3.8148   -0.8217 H         1 <0>         0.0818
     30 H7         -3.2029    3.8054    0.9581 H         1 <0>         0.0815
     31 H8         -0.5408    3.9775    0.0309 H         1 <0>         0.4134
     32 H9          1.1844    3.2011    0.0076 H         1 <0>         0.1254
     33 H10         3.3010    1.9859   -0.0197 H         1 <0>         0.1313
     34 H11         3.3397   -0.4700   -0.0324 H         1 <0>         0.1350
     35 H12         1.2662   -1.7530   -0.0198 H         1 <0>         0.1418
     36 H13        -2.8650   -2.8409    0.0164 H         1 <0>         0.1607
     37 H14        -5.4980   -3.4088    0.0397 H         1 <0>         0.1559
     38 H15        -6.7836   -1.1257    0.0642 H         1 <0>         0.2097
@<TRIPOS>BOND
     1    1    6 ar
     2    1    2 ar
     3    1   24 1
     4    2    3 ar
     5    2   25 1
     6    3    4 ar
     7    3   26 1
     8    4    5 ar
     9    4    7 1
    10    5    6 ar
    11    5   27 1
    12    6   28 1
    13    7    8 1
    14    7   29 1
    15    7   30 1
    16    8    9 1
    17    8   31 1
    18    9   18 ar
    19    9   10 ar
    20   10   15 ar
    21   10   11 ar
    22   11   12 ar
    23   11   32 1
    24   12   13 ar
    25   12   33 1
    26   13   14 ar
    27   13   34 1
    28   14   15 ar
    29   14   35 1
    30   15   16 ar
    31   16   17 ar
    32   17   18 ar
    33   17   19 1
    34   19   23 1
    35   19   20 2
    36   20   21 1
    37   20   36 1
    38   21   22 2
    39   21   37 1
    40   22   23 1
    41   22   38 1
@<TRIPOS>MOLECULE
ZINC06709925
   35    38     0     0     0
SMALL
USER_CHARGES
2-(2-furyl)-N-phenyl-quinazolin-4-amine
@<TRIPOS>ATOM
      1 C1          7.0353    5.6095   -0.3470 C.ar      1 <0>        -0.1327
      2 C2          7.0883    4.3634    0.2501 C.ar      1 <0>        -0.1009
      3 C3          5.9426    3.6004    0.3624 C.ar      1 <0>        -0.1461
      4 C4          4.7361    4.0861   -0.1254 C.ar      1 <0>         0.1462
      5 C5          4.6874    5.3358   -0.7298 C.ar      1 <0>        -0.1070
      6 C6          5.8357    6.0960   -0.8337 C.ar      1 <0>        -0.0986
      7 N1          3.5745    3.3165   -0.0133 N.pl3     1 <0>        -0.6364
      8 C7          2.3526    3.9331    0.1616 C.ar      1 <0>         0.4725
      9 C8          1.1514    3.1792    0.1602 C.ar      1 <0>        -0.1933
     10 C9          1.1479    1.7920   -0.0163 C.ar      1 <0>        -0.0718
     11 C10        -0.0372    1.1157   -0.0086 C.ar      1 <0>        -0.1275
     12 C11        -1.2431    1.7883    0.1673 C.ar      1 <0>        -0.0710
     13 C12        -1.2739    3.1393    0.3473 C.ar      1 <0>        -0.1057
     14 C13        -0.0743    3.8656    0.3449 C.ar      1 <0>         0.1961
     15 N2         -0.0516    5.1945    0.5129 N.ar      1 <0>        -0.5273
     16 C14         1.0971    5.8507    0.5060 C.ar      1 <0>         0.4439
     17 N3          2.2725    5.2429    0.3354 N.ar      1 <0>        -0.5669
     18 C15         1.0776    7.3132    0.6950 C.2       1 <0>         0.0203
     19 C16        -0.0315    8.0803    0.8812 C.2       1 <0>        -0.1307
     20 C17         0.4127    9.4087    1.0163 C.2       1 <0>        -0.2238
     21 C18         1.7570    9.3894    0.9073 C.2       1 <0>        -0.0117
     22 O1          2.1552    8.1223    0.7192 O.3       1 <0>        -0.1517
     23 H1          7.9327    6.2040   -0.4339 H         1 <0>         0.1236
     24 H2          8.0266    3.9865    0.6295 H         1 <0>         0.1265
     25 H3          5.9848    2.6271    0.8286 H         1 <0>         0.1239
     26 H4          3.7519    5.7143   -1.1144 H         1 <0>         0.1347
     27 H5          5.7978    7.0697   -1.2995 H         1 <0>         0.1255
     28 H6          3.6275    2.3490   -0.0586 H         1 <0>         0.4217
     29 H7          2.0768    1.2595   -0.1575 H         1 <0>         0.1271
     30 H8         -0.0400    0.0444   -0.1453 H         1 <0>         0.1335
     31 H9         -2.1681    1.2308    0.1654 H         1 <0>         0.1369
     32 H10        -2.2166    3.6476    0.4864 H         1 <0>         0.1436
     33 H11        -1.0544    7.7358    0.9187 H         1 <0>         0.1608
     34 H12        -0.2060   10.2792    1.1769 H         1 <0>         0.1563
     35 H13         2.4056   10.2509    0.9659 H         1 <0>         0.2100
@<TRIPOS>BOND
     1    1    6 ar
     2    1    2 ar
     3    1   23 1
     4    2    3 ar
     5    2   24 1
     6    3    4 ar
     7    3   25 1
     8    4    5 ar
     9    4    7 1
    10    5    6 ar
    11    5   26 1
    12    6   27 1
    13    7    8 1
    14    7   28 1
    15    8   17 ar
    16    8    9 ar
    17    9   14 ar
    18    9   10 ar
    19   10   11 ar
    20   10   29 1
    21   11   12 ar
    22   11   30 1
    23   12   13 ar
    24   12   31 1
    25   13   14 ar
    26   13   32 1
    27   14   15 ar
    28   15   16 ar
    29   16   17 ar
    30   16   18 1
    31   18   22 1
    32   18   19 2
    33   19   20 1
    34   19   33 1
    35   20   21 2
    36   20   34 1
    37   21   22 1
    38   21   35 1
@<TRIPOS>MOLECULE
ZINC06710049
   35    38     0     0     0
SMALL
USER_CHARGES
N-phenyl-2-(2-thienyl)quinazolin-4-amine
@<TRIPOS>ATOM
      1 C1         -0.0103    1.0762   -0.0272 C.ar      1 <0>        -0.1326
      2 C2         -0.9648    1.7630   -0.7550 C.ar      1 <0>        -0.0987
      3 C3         -0.9906    3.1436   -0.7333 C.ar      1 <0>        -0.1096
      4 C4         -0.0492    3.8426    0.0114 C.ar      1 <0>         0.1471
      5 C5          0.9118    3.1498    0.7367 C.ar      1 <0>        -0.1462
      6 C6          0.9283    1.7690    0.7152 C.ar      1 <0>        -0.1002
      7 N1         -0.0690    5.2402    0.0313 N.pl3     1 <0>        -0.6370
      8 C7         -1.2696    5.9144   -0.0577 C.ar      1 <0>         0.4741
      9 C8         -1.3031    7.3288   -0.1571 C.ar      1 <0>        -0.1941
     10 C9         -0.1353    8.0980   -0.1699 C.ar      1 <0>        -0.0717
     11 C10        -0.2252    9.4560   -0.2677 C.ar      1 <0>        -0.1284
     12 C11        -1.4632   10.0860   -0.3550 C.ar      1 <0>        -0.0715
     13 C12        -2.6204    9.3652   -0.3452 C.ar      1 <0>        -0.1065
     14 C13        -2.5646    7.9676   -0.2458 C.ar      1 <0>         0.1948
     15 N2         -3.6725    7.2144   -0.2325 N.ar      1 <0>        -0.5301
     16 C14        -3.5859    5.8976   -0.1380 C.ar      1 <0>         0.4498
     17 N3         -2.4184    5.2568   -0.0581 N.ar      1 <0>        -0.5718
     18 C15        -4.8299    5.1057   -0.1268 C.2       1 <0>        -0.1223
     19 C16        -6.1296    5.5373   -0.1969 C.2       1 <0>        -0.0957
     20 C17        -7.1386    4.6033   -0.1721 C.2       1 <0>        -0.1683
     21 C18        -6.8197    3.2857   -0.0692 C.2       1 <0>        -0.1683
     22 S1         -5.0361    3.3360   -0.0107 S.3       1 <0>         0.1176
     23 H1          0.0048   -0.0036   -0.0423 H         1 <0>         0.1237
     24 H2         -1.6937    1.2190   -1.3373 H         1 <0>         0.1261
     25 H3         -1.7388    3.6793   -1.2986 H         1 <0>         0.1349
     26 H4          1.6454    3.6902    1.3165 H         1 <0>         0.1237
     27 H5          1.6754    1.2297    1.2786 H         1 <0>         0.1263
     28 H6          0.7611    5.7360    0.1077 H         1 <0>         0.4217
     29 H7          0.8310    7.6205   -0.1024 H         1 <0>         0.1266
     30 H8          0.6766   10.0501   -0.2776 H         1 <0>         0.1330
     31 H9         -1.5079   11.1624   -0.4313 H         1 <0>         0.1362
     32 H10        -3.5740    9.8675   -0.4133 H         1 <0>         0.1425
     33 H11        -6.3564    6.5904   -0.2731 H         1 <0>         0.1447
     34 H12        -8.1717    4.9128   -0.2297 H         1 <0>         0.1396
     35 H13        -7.4763    2.4290   -0.0320 H         1 <0>         0.1905
@<TRIPOS>BOND
     1    1    6 ar
     2    1    2 ar
     3    1   23 1
     4    2    3 ar
     5    2   24 1
     6    3    4 ar
     7    3   25 1
     8    4    5 ar
     9    4    7 1
    10    5    6 ar
    11    5   26 1
    12    6   27 1
    13    7    8 1
    14    7   28 1
    15    8   17 ar
    16    8    9 ar
    17    9   14 ar
    18    9   10 ar
    19   10   11 ar
    20   10   29 1
    21   11   12 ar
    22   11   30 1
    23   12   13 ar
    24   12   31 1
    25   13   14 ar
    26   13   32 1
    27   14   15 ar
    28   15   16 ar
    29   16   17 ar
    30   16   18 1
    31   18   22 1
    32   18   19 2
    33   19   20 1
    34   19   33 1
    35   20   21 2
    36   20   34 1
    37   21   22 1
    38   21   35 1
@<TRIPOS>MOLECULE
ZINC00509842
   40    43     0     0     0
SMALL
USER_CHARGES
N-benzyl-2-(4-pyridyl)quinazolin-4-amine
@<TRIPOS>ATOM
      1 C1         -2.1273    8.3398    0.0767 C.ar      1 <0>        -0.1081
      2 C2         -2.2311    7.6605   -1.1227 C.ar      1 <0>        -0.1215
      3 C3         -2.4041    6.2890   -1.1275 C.ar      1 <0>        -0.0986
      4 C4         -2.4737    5.5969    0.0671 C.ar      1 <0>        -0.1174
      5 C5         -2.3756    6.2770    1.2666 C.ar      1 <0>        -0.0986
      6 C6         -2.1969    7.6477    1.2713 C.ar      1 <0>        -0.1215
      7 C7         -2.6628    4.1018    0.0619 C.3       1 <0>         0.1690
      8 N1         -1.3539    3.4442    0.0397 N.pl3     1 <0>        -0.6908
      9 C8         -1.2741    2.0677    0.0312 C.ar      1 <0>         0.4801
     10 C9         -0.0171    1.4126    0.0098 C.ar      1 <0>        -0.1965
     11 C10         1.1886    2.1215    0.0021 C.ar      1 <0>        -0.0699
     12 C11         2.3698    1.4391   -0.0133 C.ar      1 <0>        -0.1313
     13 C12         2.3914    0.0472   -0.0206 C.ar      1 <0>        -0.0726
     14 C13         1.2343   -0.6734   -0.0134 C.ar      1 <0>        -0.1084
     15 C14         0.0021   -0.0041    0.0020 C.ar      1 <0>         0.1914
     16 N2         -1.1630   -0.6654    0.0101 N.ar      1 <0>        -0.5382
     17 C15        -2.3055   -0.0060    0.0250 C.ar      1 <0>         0.4079
     18 N3         -2.3698    1.3238    0.0332 N.ar      1 <0>        -0.5851
     19 C16        -3.5722   -0.7789    0.0334 C.ar      1 <0>         0.0006
     20 C17        -4.8093   -0.1293    0.0551 C.ar      1 <0>        -0.1249
     21 C18        -5.9635   -0.8868    0.0566 C.ar      1 <0>         0.0902
     22 N4         -5.9084   -2.2044    0.0490 N.ar      1 <0>        -0.4746
     23 C19        -4.7620   -2.8561    0.0341 C.ar      1 <0>         0.0913
     24 C20        -3.5605   -2.1763    0.0258 C.ar      1 <0>        -0.1242
     25 H1         -1.9914    9.4112    0.0805 H         1 <0>         0.1250
     26 H2         -2.1767    8.2012   -2.0560 H         1 <0>         0.1257
     27 H3         -2.4852    5.7582   -2.0646 H         1 <0>         0.1243
     28 H4         -2.4344    5.7368    2.2000 H         1 <0>         0.1243
     29 H5         -2.1154    8.1784    2.2084 H         1 <0>         0.1257
     30 H6         -3.2308    3.8105   -0.8217 H         1 <0>         0.0815
     31 H7         -3.2054    3.8011    0.9581 H         1 <0>         0.0813
     32 H8         -0.5435    3.9771    0.0309 H         1 <0>         0.4135
     33 H9          1.1846    3.2014    0.0076 H         1 <0>         0.1254
     34 H10         3.3009    1.9862   -0.0200 H         1 <0>         0.1315
     35 H11         3.3396   -0.4698   -0.0324 H         1 <0>         0.1349
     36 H12         1.2663   -1.7529   -0.0198 H         1 <0>         0.1413
     37 H13        -4.8618    0.9494    0.0664 H         1 <0>         0.1467
     38 H14        -6.9243   -0.3938    0.0691 H         1 <0>         0.1605
     39 H15        -4.7632   -3.9361    0.0287 H         1 <0>         0.1613
     40 H16        -2.6254   -2.7165    0.0133 H         1 <0>         0.1487
@<TRIPOS>BOND
     1    1    6 ar
     2    1    2 ar
     3    1   25 1
     4    2    3 ar
     5    2   26 1
     6    3    4 ar
     7    3   27 1
     8    4    5 ar
     9    4    7 1
    10    5    6 ar
    11    5   28 1
    12    6   29 1
    13    7    8 1
    14    7   30 1
    15    7   31 1
    16    8    9 1
    17    8   32 1
    18    9   18 ar
    19    9   10 ar
    20   10   15 ar
    21   10   11 ar
    22   11   12 ar
    23   11   33 1
    24   12   13 ar
    25   12   34 1
    26   13   14 ar
    27   13   35 1
    28   14   15 ar
    29   14   36 1
    30   15   16 ar
    31   16   17 ar
    32   17   18 ar
    33   17   19 1
    34   19   24 ar
    35   19   20 ar
    36   20   21 ar
    37   20   37 1
    38   21   22 ar
    39   21   38 1
    40   22   23 ar
    41   23   24 ar
    42   23   39 1
    43   24   40 1
@<TRIPOS>MOLECULE
ZINC00521614
   37    40     0     0     0
SMALL
USER_CHARGES

@<TRIPOS>ATOM
      1 C1         -0.0153    1.3806    0.0312 C.ar      1 <0>        -0.1321
      2 C2          0.1378    0.2152    0.7598 C.ar      1 <0>        -0.1006
      3 C3          1.3420   -0.4606    0.7395 C.ar      1 <0>        -0.1135
      4 C4          2.4002    0.0316   -0.0140 C.ar      1 <0>         0.1479
      5 C5          2.2430    1.2024   -0.7447 C.ar      1 <0>        -0.1458
      6 C6          1.0361    1.8732   -0.7199 C.ar      1 <0>        -0.0991
      7 N1          3.6205   -0.6497   -0.0365 N.pl3     1 <0>        -0.6368
      8 C7          3.6443   -2.0259    0.0600 C.ar      1 <0>         0.4718
      9 C8          4.8726   -2.7267    0.1576 C.ar      1 <0>        -0.1907
     10 C9          6.1054   -2.0659    0.1614 C.ar      1 <0>        -0.0735
     11 C10         7.2568   -2.7911    0.2580 C.ar      1 <0>        -0.1257
     12 C11         7.2217   -4.1795    0.3528 C.ar      1 <0>        -0.0718
     13 C12         6.0370   -4.8538    0.3519 C.ar      1 <0>        -0.1055
     14 C13         4.8341   -4.1398    0.2540 C.ar      1 <0>         0.1910
     15 N2          3.6439   -4.7549    0.2493 N.ar      1 <0>        -0.5298
     16 C14         2.5299   -4.0541    0.1563 C.ar      1 <0>         0.4030
     17 N3          2.5197   -2.7257    0.0693 N.ar      1 <0>        -0.5688
     18 C15         1.2338   -4.7766    0.1544 C.ar      1 <0>        -0.0009
     19 C16         0.0252   -4.0824    0.0522 C.ar      1 <0>        -0.1252
     20 C17        -1.1579   -4.7938    0.0542 C.ar      1 <0>         0.0914
     21 N4         -1.1568   -6.1090    0.1508 N.ar      1 <0>        -0.4732
     22 C18        -0.0390   -6.8018    0.2490 C.ar      1 <0>         0.0919
     23 C19         1.1886   -6.1701    0.2488 C.ar      1 <0>        -0.1236
     24 H1         -0.9595    1.9047    0.0454 H         1 <0>         0.1244
     25 H2         -0.6852   -0.1667    1.3457 H         1 <0>         0.1268
     26 H3          1.4611   -1.3705    1.3090 H         1 <0>         0.1357
     27 H4          3.0638    1.5879   -1.3313 H         1 <0>         0.1241
     28 H5          0.9132    2.7836   -1.2878 H         1 <0>         0.1269
     29 H6          4.4507   -0.1549   -0.1200 H         1 <0>         0.4218
     30 H7          6.1454   -0.9891    0.0880 H         1 <0>         0.1271
     31 H8          8.2088   -2.2811    0.2606 H         1 <0>         0.1337
     32 H9          8.1473   -4.7309    0.4279 H         1 <0>         0.1369
     33 H10         6.0249   -5.9312    0.4257 H         1 <0>         0.1432
     34 H11         0.0169   -3.0053   -0.0268 H         1 <0>         0.1475
     35 H12        -2.0970   -4.2661   -0.0239 H         1 <0>         0.1609
     36 H13        -0.0843   -7.8781    0.3264 H         1 <0>         0.1618
     37 H14         2.1003   -6.7441    0.3245 H         1 <0>         0.1488
@<TRIPOS>BOND
     1    1    6 ar
     2    1    2 ar
     3    1   24 1
     4    2    3 ar
     5    2   25 1
     6    3    4 ar
     7    3   26 1
     8    4    5 ar
     9    4    7 1
    10    5    6 ar
    11    5   27 1
    12    6   28 1
    13    7    8 1
    14    7   29 1
    15    8   17 ar
    16    8    9 ar
    17    9   14 ar
    18    9   10 ar
    19   10   11 ar
    20   10   30 1
    21   11   12 ar
    22   11   31 1
    23   12   13 ar
    24   12   32 1
    25   13   14 ar
    26   13   33 1
    27   14   15 ar
    28   15   16 ar
    29   16   17 ar
    30   16   18 1
    31   18   23 ar
    32   18   19 ar
    33   19   20 ar
    34   19   34 1
    35   20   21 ar
    36   20   35 1
    37   21   22 ar
    38   22   23 ar
    39   22   36 1
    40   23   37 1
@<TRIPOS>MOLECULE
ZINC03336595
   41    44     0     0     0
SMALL
USER_CHARGES
N-[(3-chlorophenyl)methyl]-2-phenyl-quinazolin-4-amine
@<TRIPOS>ATOM
      1 C1         -5.9357   -2.2192    0.0466 C.ar      1 <0>        -0.0987
      2 C2         -4.7230   -2.8845    0.0315 C.ar      1 <0>        -0.1325
      3 C3         -3.5417   -2.1712    0.0241 C.ar      1 <0>        -0.0681
      4 C4         -3.5720   -0.7776    0.0319 C.ar      1 <0>        -0.0495
      5 C5         -4.7969   -0.1126    0.0529 C.ar      1 <0>        -0.0689
      6 C6         -5.9720   -0.8363    0.0544 C.ar      1 <0>        -0.1336
      7 C7         -2.3061   -0.0056    0.0240 C.ar      1 <0>         0.4146
      8 N1         -1.1629   -0.6655    0.0095 N.ar      1 <0>        -0.5449
      9 C8          0.0021   -0.0041    0.0020 C.ar      1 <0>         0.1942
     10 C9          1.2343   -0.6733   -0.0128 C.ar      1 <0>        -0.1107
     11 C10         2.3914    0.0472   -0.0195 C.ar      1 <0>        -0.0726
     12 C11         2.3699    1.4390   -0.0118 C.ar      1 <0>        -0.1349
     13 C12         1.1887    2.1215    0.0021 C.ar      1 <0>        -0.0688
     14 C13        -0.0171    1.4127    0.0098 C.ar      1 <0>        -0.2010
     15 C14        -1.2737    2.0679    0.0312 C.ar      1 <0>         0.4795
     16 N2         -2.3699    1.3244    0.0322 N.ar      1 <0>        -0.5872
     17 N3         -1.3532    3.4444    0.0396 N.pl3     1 <0>        -0.6939
     18 C15        -2.6619    4.1024    0.0618 C.3       1 <0>         0.1702
     19 C16        -2.4725    5.5974    0.0670 C.ar      1 <0>        -0.1031
     20 C17        -2.4027    6.2894   -1.1279 C.ar      1 <0>        -0.0941
     21 C18        -2.2298    7.6608   -1.1239 C.ar      1 <0>        -0.1071
     22 C19        -2.1262    8.3411    0.0749 C.ar      1 <0>        -0.0997
     23 C20        -2.1955    7.6493    1.2708 C.ar      1 <0>        -0.0372
     24 C21        -2.3743    6.2771    1.2662 C.ar      1 <0>        -0.0903
     25 Cl1        -2.0661    8.5031    2.7767 Cl        1 <0>        -0.0632
     26 H1         -6.8578   -2.7815    0.0520 H         1 <0>         0.1246
     27 H2         -4.7007   -3.9643    0.0251 H         1 <0>         0.1274
     28 H3         -2.5954   -2.6917    0.0120 H         1 <0>         0.1369
     29 H4         -4.8264    0.9669    0.0635 H         1 <0>         0.1348
     30 H5         -6.9217   -0.3221    0.0662 H         1 <0>         0.1267
     31 H6          1.2663   -1.7528   -0.0193 H         1 <0>         0.1401
     32 H7          3.3395   -0.4698   -0.0313 H         1 <0>         0.1336
     33 H8          3.3010    1.9861   -0.0174 H         1 <0>         0.1302
     34 H9          1.1848    3.2015    0.0076 H         1 <0>         0.1241
     35 H10        -0.5426    3.9770    0.0309 H         1 <0>         0.4132
     36 H11        -3.2300    3.8112   -0.8217 H         1 <0>         0.0851
     37 H12        -3.2046    3.8018    0.9580 H         1 <0>         0.0835
     38 H13        -2.4836    5.7583   -2.0648 H         1 <0>         0.1322
     39 H14        -2.1760    8.2009   -2.0576 H         1 <0>         0.1366
     40 H15        -1.9915    9.4127    0.0779 H         1 <0>         0.1366
     41 H16        -2.4330    5.7370    2.1996 H         1 <0>         0.1359
@<TRIPOS>BOND
     1    1    6 ar
     2    1    2 ar
     3    1   26 1
     4    2    3 ar
     5    2   27 1
     6    3    4 ar
     7    3   28 1
     8    4    5 ar
     9    4    7 1
    10    5    6 ar
    11    5   29 1
    12    6   30 1
    13    7   16 ar
    14    7    8 ar
    15    8    9 ar
    16    9   14 ar
    17    9   10 ar
    18   10   11 ar
    19   10   31 1
    20   11   12 ar
    21   11   32 1
    22   12   13 ar
    23   12   33 1
    24   13   14 ar
    25   13   34 1
    26   14   15 ar
    27   15   16 ar
    28   15   17 1
    29   17   18 1
    30   17   35 1
    31   18   19 1
    32   18   36 1
    33   18   37 1
    34   19   24 ar
    35   19   20 ar
    36   20   21 ar
    37   20   38 1
    38   21   22 ar
    39   21   39 1
    40   22   23 ar
    41   22   40 1
    42   23   24 ar
    43   23   25 1
    44   24   41 1
@<TRIPOS>MOLECULE
ZINC03339892
   41    44     0     0     0
SMALL
USER_CHARGES
N-[(4-chlorophenyl)methyl]-2-phenyl-quinazolin-4-amine
@<TRIPOS>ATOM
      1 C1          1.3429   -8.8807    2.3977 C.ar      1 <0>        -0.0988
      2 C2          1.3375   -9.3818    1.1084 C.ar      1 <0>        -0.1324
      3 C3          1.3147   -8.5203    0.0305 C.ar      1 <0>        -0.0681
      4 C4          1.2976   -7.1428    0.2430 C.ar      1 <0>        -0.0496
      5 C5          1.3090   -6.6435    1.5444 C.ar      1 <0>        -0.0689
      6 C6          1.3255   -7.5146    2.6147 C.ar      1 <0>        -0.1336
      7 C7          1.2737   -6.2120   -0.9110 C.ar      1 <0>         0.4146
      8 N1          1.2690   -6.7167   -2.1307 N.ar      1 <0>        -0.5450
      9 C8          1.2480   -5.9088   -3.1991 C.ar      1 <0>         0.1941
     10 C9          1.2429   -6.4112   -4.5083 C.ar      1 <0>        -0.1107
     11 C10         1.2218   -5.5456   -5.5612 C.ar      1 <0>        -0.0727
     12 C11         1.2051   -4.1686   -5.3576 C.ar      1 <0>        -0.1349
     13 C12         1.2094   -3.6465   -4.0973 C.ar      1 <0>        -0.0688
     14 C13         1.2310   -4.5068   -2.9946 C.ar      1 <0>        -0.2011
     15 C14         1.2370   -4.0215   -1.6630 C.ar      1 <0>         0.4793
     16 N2          1.2633   -4.9018   -0.6737 N.ar      1 <0>        -0.5872
     17 N3          1.2216   -2.6674   -1.4041 N.pl3     1 <0>        -0.6939
     18 C15         1.2281   -2.1860   -0.0204 C.3       1 <0>         0.1693
     19 C16         1.2083   -0.6792   -0.0127 C.ar      1 <0>        -0.1120
     20 C17         0.0021   -0.0041    0.0020 C.ar      1 <0>        -0.0852
     21 C18        -0.0167    1.3779    0.0096 C.ar      1 <0>        -0.1120
     22 C19         1.1721    2.0856    0.0021 C.ar      1 <0>        -0.0250
     23 C20         2.3790    1.4094   -0.0126 C.ar      1 <0>        -0.1120
     24 C21         2.3965    0.0274   -0.0198 C.ar      1 <0>        -0.0852
     25 Cl1         1.1494    3.8215    0.0110 Cl        1 <0>        -0.0634
     26 H1          1.3604   -9.5587    3.2383 H         1 <0>         0.1246
     27 H2          1.3507  -10.4493    0.9449 H         1 <0>         0.1274
     28 H3          1.3098   -8.9127   -0.9757 H         1 <0>         0.1369
     29 H4          1.3000   -5.5771    1.7149 H         1 <0>         0.1348
     30 H5          1.3295   -7.1290    3.6235 H         1 <0>         0.1267
     31 H6          1.2554   -7.4771   -4.6814 H         1 <0>         0.1401
     32 H7          1.2175   -5.9342   -6.5689 H         1 <0>         0.1336
     33 H8          1.1881   -3.5046   -6.2092 H         1 <0>         0.1302
     34 H9          1.1962   -2.5764   -3.9520 H         1 <0>         0.1241
     35 H10         1.2064   -2.0334   -2.1381 H         1 <0>         0.4131
     36 H11         2.1275   -2.5402    0.4832 H         1 <0>         0.0835
     37 H12         0.3478   -2.5636    0.4997 H         1 <0>         0.0834
     38 H13        -0.9258   -0.5566    0.0079 H         1 <0>         0.1351
     39 H14        -0.9591    1.9053    0.0170 H         1 <0>         0.1373
     40 H15         3.3073    1.9614   -0.0182 H         1 <0>         0.1373
     41 H16         3.3386   -0.5006   -0.0305 H         1 <0>         0.1351
@<TRIPOS>BOND
     1    1    6 ar
     2    1    2 ar
     3    1   26 1
     4    2    3 ar
     5    2   27 1
     6    3    4 ar
     7    3   28 1
     8    4    5 ar
     9    4    7 1
    10    5    6 ar
    11    5   29 1
    12    6   30 1
    13    7   16 ar
    14    7    8 ar
    15    8    9 ar
    16    9   14 ar
    17    9   10 ar
    18   10   11 ar
    19   10   31 1
    20   11   12 ar
    21   11   32 1
    22   12   13 ar
    23   12   33 1
    24   13   14 ar
    25   13   34 1
    26   14   15 ar
    27   15   16 ar
    28   15   17 1
    29   17   18 1
    30   17   35 1
    31   18   19 1
    32   18   36 1
    33   18   37 1
    34   19   24 ar
    35   19   20 ar
    36   20   21 ar
    37   20   38 1
    38   21   22 ar
    39   21   39 1
    40   22   23 ar
    41   22   25 1
    42   23   24 ar
    43   23   40 1
    44   24   41 1
@<TRIPOS>MOLECULE
ZINC00076963
   40    43     0     0     0
SMALL
USER_CHARGES
N-(3-nitrophenyl)-2-phenyl-quinazolin-4-amine
@<TRIPOS>ATOM
      1 C1          1.0413   10.0617    1.0858 C.ar      1 <0>        -0.0956
      2 C2         -0.1452    9.3505    1.0888 C.ar      1 <0>        -0.1306
      3 C3         -0.1332    7.9826    0.9062 C.ar      1 <0>        -0.0664
      4 C4          1.0775    7.3177    0.7189 C.ar      1 <0>        -0.0526
      5 C5          2.2704    8.0389    0.7226 C.ar      1 <0>        -0.0712
      6 C6          2.2458    9.4073    0.9000 C.ar      1 <0>        -0.1318
      7 C7          1.0970    5.8481    0.5227 C.ar      1 <0>         0.4102
      8 N1         -0.0496    5.1937    0.5300 N.ar      1 <0>        -0.5299
      9 C8         -0.0738    3.8656    0.3565 C.ar      1 <0>         0.1937
     10 C9         -1.2734    3.1395    0.3591 C.ar      1 <0>        -0.1061
     11 C10        -1.2433    1.7894    0.1734 C.ar      1 <0>        -0.0702
     12 C11        -0.0381    1.1171   -0.0085 C.ar      1 <0>        -0.1246
     13 C12         1.1471    1.7927   -0.0166 C.ar      1 <0>        -0.0746
     14 C13         1.1513    3.1795    0.1658 C.ar      1 <0>        -0.1911
     15 C14         2.3514    3.9335    0.1673 C.ar      1 <0>         0.4690
     16 N2          2.2700    5.2434    0.3470 N.ar      1 <0>        -0.5756
     17 N3          3.5733    3.3189   -0.0142 N.pl3     1 <0>        -0.6379
     18 C15         4.7337    4.0900   -0.1262 C.ar      1 <0>         0.1625
     19 C16         4.6822    5.3427   -0.7248 C.ar      1 <0>        -0.0650
     20 C17         5.8303    6.1021   -0.8334 C.ar      1 <0>        -0.0949
     21 C18         7.0306    5.6171   -0.3466 C.ar      1 <0>        -0.0686
     22 C19         7.0854    4.3710    0.2501 C.ar      1 <0>        -0.0216
     23 C20         5.9398    3.6081    0.3658 C.ar      1 <0>        -0.0891
     24 N4          8.3720    3.8565    0.7704 N.pl3     1 <0>         0.0273
     25 O1          9.3817    4.5307    0.6729 O.2       1 <0>        -0.1519
     26 O2          8.4210    2.7589    1.2962 O.3       1 <0>        -0.1588
     27 H1          1.0271   11.1321    1.2288 H         1 <0>         0.1262
     28 H2         -1.0827    9.8667    1.2340 H         1 <0>         0.1290
     29 H3         -1.0602    7.4284    0.9080 H         1 <0>         0.1376
     30 H4          3.2117    7.5284    0.5821 H         1 <0>         0.1332
     31 H5          3.1690    9.9677    0.8983 H         1 <0>         0.1280
     32 H6         -2.2156    3.6474    0.5032 H         1 <0>         0.1436
     33 H7         -2.1685    1.2323    0.1714 H         1 <0>         0.1374
     34 H8         -0.0417    0.0463   -0.1496 H         1 <0>         0.1344
     35 H9          2.0754    1.2605   -0.1624 H         1 <0>         0.1272
     36 H10         3.6270    2.3517   -0.0641 H         1 <0>         0.4270
     37 H11         3.7452    5.7220   -1.1051 H         1 <0>         0.1556
     38 H12         5.7909    7.0759   -1.2986 H         1 <0>         0.1538
     39 H13         7.9271    6.2132   -0.4325 H         1 <0>         0.1566
     40 H14         5.9825    2.6365    0.8354 H         1 <0>         0.1556
@<TRIPOS>BOND
     1    1    6 ar
     2    1    2 ar
     3    1   27 1
     4    2    3 ar
     5    2   28 1
     6    3    4 ar
     7    3   29 1
     8    4    5 ar
     9    4    7 1
    10    5    6 ar
    11    5   30 1
    12    6   31 1
    13    7   16 ar
    14    7    8 ar
    15    8    9 ar
    16    9   14 ar
    17    9   10 ar
    18   10   11 ar
    19   10   32 1
    20   11   12 ar
    21   11   33 1
    22   12   13 ar
    23   12   34 1
    24   13   14 ar
    25   13   35 1
    26   14   15 ar
    27   15   16 ar
    28   15   17 1
    29   17   18 1
    30   17   36 1
    31   18   23 ar
    32   18   19 ar
    33   19   20 ar
    34   19   37 1
    35   20   21 ar
    36   20   38 1
    37   21   22 ar
    38   21   39 1
    39   22   23 ar
    40   22   24 1
    41   23   40 1
    42   24   25 2
    43   24   26 1
@<TRIPOS>MOLECULE
ZINC00356481
   44    47     0     0     0
SMALL
USER_CHARGES
N-benzyl-2-morpholino-quinazolin-4-amine
@<TRIPOS>ATOM
      1 C1         -5.1153   -3.7290    0.0326 C.ar      1 <0>        -0.1085
      2 C2         -4.4823   -3.4739   -1.1695 C.ar      1 <0>        -0.1214
      3 C3         -3.1928   -2.9760   -1.1796 C.ar      1 <0>        -0.0986
      4 C4         -2.5361   -2.7336    0.0125 C.ar      1 <0>        -0.1168
      5 C5         -3.1670   -2.9941    1.2145 C.ar      1 <0>        -0.0989
      6 C6         -4.4586   -3.4867    1.2246 C.ar      1 <0>        -0.1217
      7 C7         -1.1301   -2.1912    0.0015 C.3       1 <0>         0.1702
      8 N1         -1.1716   -0.7268    0.0097 N.pl3     1 <0>        -0.6905
      9 C8          0.0021   -0.0041    0.0020 C.ar      1 <0>         0.4959
     10 C9         -0.0171    1.4134    0.0098 C.ar      1 <0>        -0.2165
     11 C10        -1.2130    2.1388    0.0309 C.ar      1 <0>        -0.0615
     12 C11        -1.1722    3.5024    0.0335 C.ar      1 <0>        -0.1442
     13 C12         0.0430    4.1810    0.0260 C.ar      1 <0>        -0.0674
     14 C13         1.2258    3.5031    0.0101 C.ar      1 <0>        -0.1191
     15 C14         1.2202    2.1016    0.0017 C.ar      1 <0>         0.2139
     16 N2          2.3561    1.3881   -0.0129 N.ar      1 <0>        -0.5874
     17 C15         2.3165    0.0696   -0.0196 C.ar      1 <0>         0.5447
     18 N3          1.1767   -0.6164   -0.0124 N.ar      1 <0>        -0.5992
     19 N4          3.5101   -0.6290   -0.0342 N.pl3     1 <0>        -0.4607
     20 C16         3.5914   -1.5570    1.1032 C.3       1 <0>         0.0328
     21 C17         4.8978   -2.3503    1.0153 C.3       1 <0>         0.0632
     22 O1          6.0006   -1.4404    0.9790 O.3       1 <0>        -0.3831
     23 C18         5.9538   -0.5224   -0.1167 C.3       1 <0>         0.0599
     24 C19         4.6581    0.2894   -0.0402 C.3       1 <0>         0.0362
     25 H1         -6.1230   -4.1174    0.0405 H         1 <0>         0.1248
     26 H2         -4.9953   -3.6632   -2.1008 H         1 <0>         0.1256
     27 H3         -2.6982   -2.7766   -2.1188 H         1 <0>         0.1244
     28 H4         -2.6524   -2.8089    2.1458 H         1 <0>         0.1240
     29 H5         -4.9533   -3.6857    2.1638 H         1 <0>         0.1255
     30 H6         -0.6150   -2.5350   -0.8955 H         1 <0>         0.0814
     31 H7         -0.5975   -2.5446    0.8843 H         1 <0>         0.0799
     32 H8         -2.0250   -0.2658    0.0206 H         1 <0>         0.4136
     33 H9         -2.1619    1.6231    0.0415 H         1 <0>         0.1230
     34 H10        -2.0953    4.0630    0.0458 H         1 <0>         0.1290
     35 H11         0.0490    5.2609    0.0324 H         1 <0>         0.1323
     36 H12         2.1612    4.0427    0.0044 H         1 <0>         0.1378
     37 H13         3.5702   -0.9927    2.0355 H         1 <0>         0.0527
     38 H14         2.7457   -2.2440    1.0736 H         1 <0>         0.1037
     39 H15         4.8956   -2.9559    0.1090 H         1 <0>         0.0646
     40 H16         4.9898   -2.9990    1.8864 H         1 <0>         0.1057
     41 H17         5.9823   -1.0749   -1.0558 H         1 <0>         0.0616
     42 H18         6.8090    0.1513   -0.0646 H         1 <0>         0.1063
     43 H19         4.5910    0.9501   -0.9045 H         1 <0>         0.0990
     44 H20         4.6539    0.8832    0.8738 H         1 <0>         0.0640
@<TRIPOS>BOND
     1    1    6 ar
     2    1    2 ar
     3    1   25 1
     4    2    3 ar
     5    2   26 1
     6    3    4 ar
     7    3   27 1
     8    4    5 ar
     9    4    7 1
    10    5    6 ar
    11    5   28 1
    12    6   29 1
    13    7    8 1
    14    7   30 1
    15    7   31 1
    16    8    9 1
    17    8   32 1
    18    9   18 ar
    19    9   10 ar
    20   10   15 ar
    21   10   11 ar
    22   11   12 ar
    23   11   33 1
    24   12   13 ar
    25   12   34 1
    26   13   14 ar
    27   13   35 1
    28   14   15 ar
    29   14   36 1
    30   15   16 ar
    31   16   17 ar
    32   17   18 ar
    33   17   19 1
    34   19   24 1
    35   19   20 1
    36   20   21 1
    37   20   37 1
    38   20   38 1
    39   21   22 1
    40   21   39 1
    41   21   40 1
    42   22   23 1
    43   23   24 1
    44   23   41 1
    45   23   42 1
    46   24   43 1
    47   24   44 1
@<TRIPOS>MOLECULE
ZINC00435268
   41    44     0     0     0
SMALL
USER_CHARGES

@<TRIPOS>ATOM
      1 C1         -0.0167    1.3791    0.0096 C.ar      1 <0>        -0.0992
      2 C2          1.1686    2.0923    0.0021 C.ar      1 <0>        -0.1325
      3 C3          2.3774    1.4267   -0.0134 C.ar      1 <0>        -0.0684
      4 C4          2.4025    0.0330   -0.0211 C.ar      1 <0>        -0.0487
      5 C5          1.2049   -0.6804   -0.0130 C.ar      1 <0>        -0.0690
      6 C6          0.0021   -0.0041    0.0020 C.ar      1 <0>        -0.1336
      7 C7          3.6981   -0.6880   -0.0382 C.ar      1 <0>         0.4139
      8 N1          4.8142    0.0169   -0.0405 N.ar      1 <0>        -0.5471
      9 C8          6.0045   -0.5975   -0.0554 C.ar      1 <0>         0.1944
     10 C9          7.2092    0.1202   -0.0577 C.ar      1 <0>        -0.1113
     11 C10         8.3940   -0.5537   -0.0728 C.ar      1 <0>        -0.0732
     12 C11         8.4277   -1.9453   -0.0863 C.ar      1 <0>        -0.1363
     13 C12         7.2746   -2.6742   -0.0849 C.ar      1 <0>        -0.0685
     14 C13         6.0416   -2.0139   -0.0687 C.ar      1 <0>        -0.2033
     15 C14         4.8119   -2.7187   -0.0654 C.ar      1 <0>         0.4800
     16 N2          3.6872   -2.0194   -0.0452 N.ar      1 <0>        -0.5861
     17 N3          4.7872   -4.0972   -0.0783 N.pl3     1 <0>        -0.6905
     18 C15         3.5056   -4.8068   -0.0747 C.3       1 <0>         0.1462
     19 C16         3.0284   -5.0286    1.3755 C.3       1 <0>        -0.1336
     20 C17         2.3696   -6.4301    1.3485 C.3       1 <0>        -0.1249
     21 C18         3.2936   -7.2237    0.3916 C.3       1 <0>        -0.1248
     22 C19         3.6742   -6.2026   -0.7002 C.3       1 <0>        -0.1336
     23 H1         -0.9603    1.9042    0.0260 H         1 <0>         0.1244
     24 H2          1.1479    3.1721    0.0081 H         1 <0>         0.1272
     25 H3          3.3022    1.9845   -0.0199 H         1 <0>         0.1367
     26 H4          1.2184   -1.7603   -0.0192 H         1 <0>         0.1343
     27 H5         -0.9264   -0.5557    0.0082 H         1 <0>         0.1264
     28 H6          7.1984    1.2001   -0.0481 H         1 <0>         0.1396
     29 H7          9.3210    0.0006   -0.0745 H         1 <0>         0.1332
     30 H8          9.3799   -2.4548   -0.0984 H         1 <0>         0.1298
     31 H9          7.3134   -3.7534   -0.0962 H         1 <0>         0.1238
     32 H10         5.6184   -4.5971   -0.0897 H         1 <0>         0.4099
     33 H11         2.7615   -4.2361   -0.6302 H         1 <0>         0.0985
     34 H12         3.8753   -5.0183    2.0616 H         1 <0>         0.0678
     35 H13         2.2987   -4.2694    1.6573 H         1 <0>         0.0735
     36 H14         2.3691   -6.8760    2.3431 H         1 <0>         0.0695
     37 H15         1.3571   -6.3734    0.9489 H         1 <0>         0.0710
     38 H16         4.1833   -7.5680    0.9188 H         1 <0>         0.0667
     39 H17         2.7574   -8.0666   -0.0446 H         1 <0>         0.0700
     40 H18         3.0113   -6.3095   -1.5588 H         1 <0>         0.0778
     41 H19         4.7096   -6.3519   -1.0065 H         1 <0>         0.0699
@<TRIPOS>BOND
     1    1    6 ar
     2    1    2 ar
     3    1   23 1
     4    2    3 ar
     5    2   24 1
     6    3    4 ar
     7    3   25 1
     8    4    5 ar
     9    4    7 1
    10    5    6 ar
    11    5   26 1
    12    6   27 1
    13    7   16 ar
    14    7    8 ar
    15    8    9 ar
    16    9   14 ar
    17    9   10 ar
    18   10   11 ar
    19   10   28 1
    20   11   12 ar
    21   11   29 1
    22   12   13 ar
    23   12   30 1
    24   13   14 ar
    25   13   31 1
    26   14   15 ar
    27   15   16 ar
    28   15   17 1
    29   17   18 1
    30   17   32 1
    31   18   22 1
    32   18   19 1
    33   18   33 1
    34   19   20 1
    35   19   34 1
    36   19   35 1
    37   20   21 1
    38   20   36 1
    39   20   37 1
    40   21   22 1
    41   21   38 1
    42   21   39 1
    43   22   40 1
    44   22   41 1
@<TRIPOS>MOLECULE
ZINC00005903
   40    43     0     0     0
SMALL
USER_CHARGES

@<TRIPOS>ATOM
      1 C1         -0.0167    1.3781    0.0096 C.ar      1 <0>        -0.1084
      2 C2          1.1709    2.0855    0.0021 C.ar      1 <0>        -0.1216
      3 C3          2.3773    1.4107   -0.0130 C.ar      1 <0>        -0.0986
      4 C4          2.3960    0.0285   -0.0201 C.ar      1 <0>        -0.1168
      5 C5          1.2084   -0.6789   -0.0117 C.ar      1 <0>        -0.0986
      6 C6          0.0021   -0.0041    0.0020 C.ar      1 <0>        -0.1216
      7 C7          3.7112   -0.7071   -0.0376 C.3       1 <0>         0.1683
      8 N1          4.1518   -0.9524    1.3379 N.pl3     1 <0>        -0.6909
      9 C8          5.3374   -1.6154    1.5741 C.ar      1 <0>         0.4818
     10 C9          5.7780   -1.8674    2.8978 C.ar      1 <0>        -0.1995
     11 C10         5.0405   -1.4615    4.0149 C.ar      1 <0>        -0.0684
     12 C11         5.5122   -1.7310    5.2662 C.ar      1 <0>        -0.1340
     13 C12         6.7174   -2.4039    5.4465 C.ar      1 <0>        -0.0721
     14 C13         7.4602   -2.8125    4.3791 C.ar      1 <0>        -0.1106
     15 C14         7.0046   -2.5529    3.0786 C.ar      1 <0>         0.1939
     16 N2          7.6967   -2.9343    1.9965 N.ar      1 <0>        -0.5455
     17 C15         7.2407   -2.6742    0.7856 C.ar      1 <0>         0.4179
     18 N3          6.0909   -2.0377    0.5703 N.ar      1 <0>        -0.5890
     19 C16         8.0392   -3.1140   -0.3839 C.ar      1 <0>        -0.0989
     20 C17         9.2470   -3.7952   -0.2040 C.ar      1 <0>        -0.0261
     21 C18         9.9548   -4.1843   -1.3279 C.ar      1 <0>        -0.1829
     22 C19         9.4494   -3.8896   -2.5814 C.ar      1 <0>         0.1150
     23 N4          8.3070   -3.2451   -2.7198 N.ar      1 <0>        -0.4910
     24 C20         7.5953   -2.8603   -1.6802 C.ar      1 <0>         0.1495
     25 H1         -0.9591    1.9053    0.0259 H         1 <0>         0.1248
     26 H2          1.1563    3.1654    0.0076 H         1 <0>         0.1255
     27 H3          3.3051    1.9634   -0.0196 H         1 <0>         0.1244
     28 H4          1.2231   -1.7588   -0.0176 H         1 <0>         0.1244
     29 H5         -0.9258   -0.5567    0.0082 H         1 <0>         0.1255
     30 H6          3.5884   -1.6586   -0.5549 H         1 <0>         0.0820
     31 H7          4.4573   -0.1052   -0.5563 H         1 <0>         0.0820
     32 H8          3.6095   -0.6484    2.0824 H         1 <0>         0.4133
     33 H9          4.1044   -0.9381    3.8876 H         1 <0>         0.1249
     34 H10         4.9430   -1.4177    6.1289 H         1 <0>         0.1308
     35 H11         7.0695   -2.6050    6.4475 H         1 <0>         0.1341
     36 H12         8.3937   -3.3330    4.5340 H         1 <0>         0.1402
     37 H13         9.6183   -4.0119    0.7867 H         1 <0>         0.1481
     38 H14        10.8917   -4.7119   -1.2274 H         1 <0>         0.1412
     39 H15         9.9991   -4.1917   -3.4606 H         1 <0>         0.1595
     40 H16         6.6620   -2.3390   -1.8339 H         1 <0>         0.1677
@<TRIPOS>BOND
     1    1    6 ar
     2    1    2 ar
     3    1   25 1
     4    2    3 ar
     5    2   26 1
     6    3    4 ar
     7    3   27 1
     8    4    5 ar
     9    4    7 1
    10    5    6 ar
    11    5   28 1
    12    6   29 1
    13    7    8 1
    14    7   30 1
    15    7   31 1
    16    8    9 1
    17    8   32 1
    18    9   18 ar
    19    9   10 ar
    20   10   15 ar
    21   10   11 ar
    22   11   12 ar
    23   11   33 1
    24   12   13 ar
    25   12   34 1
    26   13   14 ar
    27   13   35 1
    28   14   15 ar
    29   14   36 1
    30   15   16 ar
    31   16   17 ar
    32   17   18 ar
    33   17   19 1
    34   19   24 ar
    35   19   20 ar
    36   20   21 ar
    37   20   37 1
    38   21   22 ar
    39   21   38 1
    40   22   23 ar
    41   22   39 1
    42   23   24 ar
    43   24   40 1
@<TRIPOS>MOLECULE
ZINC00944284
   44    47     0     0     0
SMALL
USER_CHARGES
methyl 4-(2-phenylquinazolin-4-yl)aminobenzoate
@<TRIPOS>ATOM
      1 C1          9.4463    8.3884   -1.1271 C.3       1 <0>         0.0365
      2 O1          8.2028    7.6433   -1.0457 O.3       1 <0>        -0.3553
      3 C2          8.2543    6.4286   -0.4645 C.2       1 <0>         0.5101
      4 O2          9.3096    6.0038   -0.0373 O.2       1 <0>        -0.5075
      5 C3          7.0305    5.6152   -0.3468 C.ar      1 <0>        -0.1470
      6 C4          7.0822    4.3545    0.2561 C.ar      1 <0>        -0.0288
      7 C5          5.9379    3.5980    0.3647 C.ar      1 <0>        -0.1605
      8 C6          4.7297    4.0865   -0.1248 C.ar      1 <0>         0.1939
      9 C7          4.6757    5.3386   -0.7307 C.ar      1 <0>        -0.1304
     10 C8          5.8152    6.1027   -0.8374 C.ar      1 <0>        -0.0383
     11 N1          3.5740    3.3186   -0.0133 N.pl3     1 <0>        -0.6383
     12 C9          2.3518    3.9335    0.1705 C.ar      1 <0>         0.4678
     13 C10         1.1515    3.1797    0.1691 C.ar      1 <0>        -0.1925
     14 C11         1.1467    1.7933   -0.0163 C.ar      1 <0>        -0.0736
     15 C12        -0.0385    1.1178   -0.0080 C.ar      1 <0>        -0.1271
     16 C13        -1.2434    1.7901    0.1767 C.ar      1 <0>        -0.0717
     17 C14        -1.2729    3.1397    0.3658 C.ar      1 <0>        -0.1067
     18 C15        -0.0731    3.8655    0.3630 C.ar      1 <0>         0.1932
     19 N2         -0.0484    5.1934    0.5394 N.ar      1 <0>        -0.5328
     20 C16         1.0981    5.8474    0.5319 C.ar      1 <0>         0.4100
     21 N3          2.2710    5.2427    0.3531 N.ar      1 <0>        -0.5690
     22 C17         1.0793    7.3166    0.7313 C.ar      1 <0>        -0.0523
     23 C18         2.2724    8.0375    0.7349 C.ar      1 <0>        -0.0691
     24 C19         2.2484    9.4053    0.9162 C.ar      1 <0>        -0.1319
     25 C20         1.0443   10.0597    1.1047 C.ar      1 <0>        -0.0965
     26 C21        -0.1424    9.3488    1.1074 C.ar      1 <0>        -0.1321
     27 C22        -0.1310    7.9814    0.9218 C.ar      1 <0>        -0.0671
     28 H1          9.8331    8.5606   -0.1227 H         1 <0>         0.0645
     29 H2         10.1744    7.8183   -1.7041 H         1 <0>         0.0643
     30 H3          9.2649    9.3458   -1.6156 H         1 <0>         0.1040
     31 H4          8.0192    3.9752    0.6364 H         1 <0>         0.1428
     32 H5          5.9770    2.6245    0.8305 H         1 <0>         0.1364
     33 H6          3.7376    5.7127   -1.1133 H         1 <0>         0.1454
     34 H7          5.7717    7.0761   -1.3033 H         1 <0>         0.1427
     35 H8          3.6274    2.3515   -0.0647 H         1 <0>         0.4245
     36 H9          2.0748    1.2612   -0.1646 H         1 <0>         0.1267
     37 H10        -0.0425    0.0473   -0.1511 H         1 <0>         0.1332
     38 H11        -2.1688    1.2331    0.1747 H         1 <0>         0.1362
     39 H12        -2.2148    3.6475    0.5120 H         1 <0>         0.1426
     40 H13         3.2134    7.5270    0.5923 H         1 <0>         0.1359
     41 H14         3.1718    9.9654    0.9154 H         1 <0>         0.1278
     42 H15         1.0306   11.1298    1.2500 H         1 <0>         0.1253
     43 H16        -1.0795    9.8650    1.2547 H         1 <0>         0.1280
     44 H17        -1.0581    7.4274    0.9237 H         1 <0>         0.1368
@<TRIPOS>BOND
     1    1    2 1
     2    1   28 1
     3    1   29 1
     4    1   30 1
     5    2    3 1
     6    3    4 2
     7    3    5 1
     8    5   10 ar
     9    5    6 ar
    10    6    7 ar
    11    6   31 1
    12    7    8 ar
    13    7   32 1
    14    8    9 ar
    15    8   11 1
    16    9   10 ar
    17    9   33 1
    18   10   34 1
    19   11   12 1
    20   11   35 1
    21   12   21 ar
    22   12   13 ar
    23   13   18 ar
    24   13   14 ar
    25   14   15 ar
    26   14   36 1
    27   15   16 ar
    28   15   37 1
    29   16   17 ar
    30   16   38 1
    31   17   18 ar
    32   17   39 1
    33   18   19 ar
    34   19   20 ar
    35   20   21 ar
    36   20   22 1
    37   22   27 ar
    38   22   23 ar
    39   23   24 ar
    40   23   40 1
    41   24   25 ar
    42   24   41 1
    43   25   26 ar
    44   25   42 1
    45   26   27 ar
    46   26   43 1
    47   27   44 1
@<TRIPOS>MOLECULE
ZINC18324776
   66    69     0     0     0
SMALL
USER_CHARGES

@<TRIPOS>ATOM
      1 C1         -0.0187    1.5258    0.0104 C.3       1 <0>        -0.1515
      2 C2          0.0021   -0.0041    0.0020 C.3       1 <0>        -0.1161
      3 C3          0.7182   -0.4975   -1.2568 C.3       1 <0>        -0.0382
      4 C4          0.7386   -2.0043   -1.2651 C.2       1 <0>         0.2940
      5 N1          1.6787   -2.7529   -0.7375 N.2       1 <0>        -0.4766
      6 C5          1.3866   -4.0413   -0.9211 C.2       1 <0>         0.1350
      7 C6          0.1960   -4.0985   -1.6021 C.2       1 <0>        -0.1676
      8 N2         -0.2036   -2.7889   -1.8075 N.pl3     1 <0>        -0.2813
      9 N3         -1.4027   -2.5429   -2.4823 N.2       1 <0>        -0.2666
     10 C7         -2.1451   -3.5211   -2.9147 C.2       1 <0>         0.4182
     11 N4         -1.8014   -4.8460   -2.7370 N.am      1 <0>        -0.6707
     12 H1         -2.3837   -5.5441   -3.0753 H         1 <0>         0.4225
     13 C8         -0.6544   -5.1776   -2.1025 C.2       1 <0>         0.6004
     14 O1         -0.3442   -6.3438   -1.9407 O.2       1 <0>        -0.4846
     15 C9         -3.4025   -3.2011   -3.6216 C.ar      1 <0>        -0.1222
     16 C10        -4.2233   -4.2270   -4.0923 C.ar      1 <0>         0.0523
     17 C11        -5.3956   -3.9221   -4.7514 C.ar      1 <0>        -0.7181
     18 C12        -5.7625   -2.6016   -4.9484 C.ar      1 <0>         0.0502
     19 C13        -4.9584   -1.5773   -4.4871 C.ar      1 <0>        -0.2291
     20 C14        -3.7798   -1.8669   -3.8177 C.ar      1 <0>         0.2417
     21 O2         -2.9915   -0.8612   -3.3589 O.3       1 <0>        -0.2691
     22 C15        -3.4407    0.4746   -3.5956 C.3       1 <0>         0.0430
     23 C16        -2.4300    1.4636   -3.0113 C.3       1 <0>        -0.1534
     24 S1         -6.4307   -5.2183   -5.3457 S.o2      1 <0>         2.6925
     25 O3         -7.1994   -4.6697   -6.4075 O.2       1 <0>        -0.9459
     26 O4         -5.5978   -6.3568   -5.5173 O.2       1 <0>        -0.9478
     27 N5         -7.4957   -5.5895   -4.1331 N.pl3     1 <0>        -0.9969
     28 C17        -7.1670   -6.6094   -3.1256 C.3       1 <0>         0.1241
     29 C18        -7.3951   -6.0101   -1.7339 C.3       1 <0>         0.0390
     30 N6         -8.7605   -5.4743   -1.6528 N.3       1 <0>        -0.5346
     31 C19        -8.9594   -4.3757   -2.6075 C.3       1 <0>         0.0359
     32 C20        -8.7928   -4.9036   -4.0315 C.3       1 <0>         0.1244
     33 C21        -9.0775   -5.0460   -0.2838 C.3       1 <0>         0.0507
     34 C22       -10.5711   -4.7305   -0.1811 C.3       1 <0>        -0.1507
     35 C23         2.2115   -5.2172   -0.4653 C.3       1 <0>        -0.0791
     36 H2          1.0039    1.9031    0.0027 H         1 <0>         0.0592
     37 H3         -0.5459    1.8868   -0.8726 H         1 <0>         0.0568
     38 H4         -0.5289    1.8773    0.9072 H         1 <0>         0.0582
     39 H5          0.5293   -0.3651    0.8851 H         1 <0>         0.0698
     40 H6         -1.0205   -0.3814    0.0098 H         1 <0>         0.0616
     41 H7          0.1910   -0.1364   -2.1398 H         1 <0>         0.0903
     42 H8          1.7408   -0.1202   -1.2645 H         1 <0>         0.1010
     43 H9         -3.9405   -5.2583   -3.9410 H         1 <0>         0.1476
     44 H10        -6.6820   -2.3711   -5.4658 H         1 <0>         0.1528
     45 H11        -5.2508   -0.5496   -4.6443 H         1 <0>         0.1519
     46 H12        -3.5339    0.6418   -4.6687 H         1 <0>         0.0707
     47 H13        -4.4100    0.6217   -3.1194 H         1 <0>         0.0698
     48 H14        -2.3368    1.2964   -1.9383 H         1 <0>         0.0715
     49 H15        -1.4607    1.3165   -3.4876 H         1 <0>         0.0696
     50 H16        -2.7726    2.4825   -3.1919 H         1 <0>         0.0831
     51 H17        -7.8113   -7.4781   -3.2603 H         1 <0>         0.0891
     52 H18        -6.1229   -6.9045   -3.2305 H         1 <0>         0.0932
     53 H19        -7.2628   -6.7844   -0.9782 H         1 <0>         0.0906
     54 H20        -6.6785   -5.2070   -1.5617 H         1 <0>         0.0379
     55 H21        -9.9616   -3.9647   -2.4854 H         1 <0>         0.0938
     56 H22        -8.2210   -3.5954   -2.4231 H         1 <0>         0.0379
     57 H23        -8.8232   -4.0716   -4.7350 H         1 <0>         0.0943
     58 H24        -9.5965   -5.6053   -4.2549 H         1 <0>         0.0876
     59 H25        -8.8260   -5.8445    0.4142 H         1 <0>         0.0769
     60 H26        -8.5002   -4.1544   -0.0392 H         1 <0>         0.0325
     61 H27       -10.8226   -3.9319   -0.8791 H         1 <0>         0.0550
     62 H28       -11.1485   -5.6221   -0.4257 H         1 <0>         0.0654
     63 H29       -10.8063   -4.4127    0.8346 H         1 <0>         0.0603
     64 H30         1.9006   -5.5126    0.5368 H         1 <0>         0.0820
     65 H31         2.0655   -6.0513   -1.1517 H         1 <0>         0.0840
     66 H32         3.2651   -4.9383   -0.4514 H         1 <0>         0.0816
@<TRIPOS>BOND
     1    1    2 1
     2    1   36 1
     3    1   37 1
     4    1   38 1
     5    2    3 1
     6    2   39 1
     7    2   40 1
     8    3    4 1
     9    3   41 1
    10    3   42 1
    11    4    8 1
    12    4    5 2
    13    5    6 1
    14    6    7 2
    15    6   35 1
    16    7   13 1
    17    7    8 1
    18    8    9 1
    19    9   10 2
    20   10   11 1
    21   10   15 1
    22   11   12 1
    23   11   13 am
    24   13   14 2
    25   15   20 ar
    26   15   16 ar
    27   16   17 ar
    28   16   43 1
    29   17   18 ar
    30   17   24 1
    31   18   19 ar
    32   18   44 1
    33   19   20 ar
    34   19   45 1
    35   20   21 1
    36   21   22 1
    37   22   23 1
    38   22   46 1
    39   22   47 1
    40   23   48 1
    41   23   49 1
    42   23   50 1
    43   24   25 2
    44   24   26 2
    45   24   27 1
    46   27   32 1
    47   27   28 1
    48   28   29 1
    49   28   51 1
    50   28   52 1
    51   29   30 1
    52   29   53 1
    53   29   54 1
    54   30   31 1
    55   30   33 1
    56   31   32 1
    57   31   55 1
    58   31   56 1
    59   32   57 1
    60   32   58 1
    61   33   34 1
    62   33   59 1
    63   33   60 1
    64   34   61 1
    65   34   62 1
    66   34   63 1
    67   35   64 1
    68   35   65 1
    69   35   66 1
@<TRIPOS>MOLECULE
ZINC18324776
   65    68     0     0     0
SMALL
USER_CHARGES

@<TRIPOS>ATOM
      1 C1         -0.0187    1.5258    0.0104 C.3       1 <0>        -0.1472
      2 C2          0.0021   -0.0041    0.0020 C.3       1 <0>        -0.1154
      3 C3         -1.4333   -0.5336    0.0129 C.3       1 <0>        -0.0179
      4 C4         -1.4129   -2.0405    0.0046 C.2       1 <0>         0.2125
      5 N1         -1.4071   -2.7931   -1.0712 N.2       1 <0>        -0.4896
      6 C5         -1.3882   -4.0792   -0.7236 C.2       1 <0>         0.0659
      7 C6         -1.3817   -4.1334    0.6527 C.2       1 <0>        -0.1332
      8 N2         -1.3919   -2.8203    1.0938 N.pl3     1 <0>        -0.2435
      9 N3         -1.3825   -2.5794    2.4721 N.2       1 <0>        -0.3804
     10 C7         -1.3611   -3.5896    3.3115 C.2       1 <0>         0.3856
     11 N4         -1.3477   -4.8635    2.8932 N.2       1 <0>        -0.6634
     12 C8         -1.3637   -5.1706    1.6102 C.2       1 <0>         0.5160
     13 O1         -1.3482   -6.4650    1.2164 O.3       1 <0>        -0.6444
     14 C9         -1.3510   -3.3124    4.7674 C.ar      1 <0>        -0.0696
     15 C10        -1.3226   -4.3652    5.6804 C.ar      1 <0>         0.0723
     16 C11        -1.3133   -4.1018    7.0345 C.ar      1 <0>        -0.7301
     17 C12        -1.3321   -2.7951    7.4910 C.ar      1 <0>         0.0273
     18 C13        -1.3608   -1.7438    6.5951 C.ar      1 <0>        -0.2428
     19 C14        -1.3641   -1.9932    5.2316 C.ar      1 <0>         0.2183
     20 O2         -1.3862   -0.9606    4.3499 O.3       1 <0>        -0.2614
     21 C15        -1.3985    0.3595    4.8970 C.3       1 <0>         0.0448
     22 C16        -1.4229    1.3826    3.7597 C.3       1 <0>        -0.1490
     23 S1         -1.2780   -5.4337    8.1875 S.o2      1 <0>         2.6955
     24 O3         -1.8252   -4.9355    9.4005 O.2       1 <0>        -0.9613
     25 O4         -1.8158   -6.5654    7.5173 O.2       1 <0>        -0.9471
     26 N5          0.3135   -5.7760    8.4916 N.pl3     1 <0>        -0.9993
     27 C17         1.0454   -6.7536    7.6720 C.3       1 <0>         0.1257
     28 C18         2.3494   -6.1074    7.1922 C.3       1 <0>         0.0382
     29 N6          3.0902   -5.5890    8.3500 N.3       1 <0>        -0.5349
     30 C19         2.3371   -4.5289    9.0333 C.3       1 <0>         0.0355
     31 C20         1.0342   -5.1059    9.5847 C.3       1 <0>         0.1277
     32 C21         4.4231   -5.1157    7.9532 C.3       1 <0>         0.0491
     33 C22         5.2521   -4.8186    9.2044 C.3       1 <0>        -0.1481
     34 C23        -1.3761   -5.2575   -1.6630 C.3       1 <0>        -0.0570
     35 H1          1.0039    1.9031    0.0027 H         1 <0>         0.0513
     36 H2         -0.5459    1.8868   -0.8726 H         1 <0>         0.0538
     37 H3         -0.5289    1.8773    0.9072 H         1 <0>         0.0536
     38 H4          0.5123   -0.3556   -0.8948 H         1 <0>         0.0637
     39 H5          0.5293   -0.3651    0.8851 H         1 <0>         0.0604
     40 H6         -1.9435   -0.1821    0.9097 H         1 <0>         0.0786
     41 H7         -1.9605   -0.1726   -0.8702 H         1 <0>         0.0832
     42 H8         -1.3082   -5.3860    5.3281 H         1 <0>         0.1637
     43 H9         -1.3247   -2.5965    8.5525 H         1 <0>         0.1396
     44 H10        -1.3757   -0.7265    6.9575 H         1 <0>         0.1384
     45 H11        -2.2844    0.4866    5.5191 H         1 <0>         0.0614
     46 H12        -0.5047    0.5103    5.5023 H         1 <0>         0.0605
     47 H13        -1.4323    2.3896    4.1770 H         1 <0>         0.0741
     48 H14        -0.5370    1.2555    3.1375 H         1 <0>         0.0691
     49 H15        -2.3167    1.2318    3.1543 H         1 <0>         0.0679
     50 H16         1.2725   -7.6360    8.2702 H         1 <0>         0.0831
     51 H17         0.4391   -7.0371    6.8117 H         1 <0>         0.0995
     52 H18         2.9558   -6.8517    6.6760 H         1 <0>         0.0892
     53 H19         2.1202   -5.2882    6.5106 H         1 <0>         0.0436
     54 H20         2.9344   -4.1285    9.8524 H         1 <0>         0.0887
     55 H21         2.1080   -3.7317    8.3261 H         1 <0>         0.0397
     56 H22         0.4205   -4.3006    9.9884 H         1 <0>         0.0914
     57 H23         1.2602   -5.8269   10.3703 H         1 <0>         0.0814
     58 H24         4.9205   -5.8846    7.3620 H         1 <0>         0.0757
     59 H25         4.3241   -4.2075    7.3587 H         1 <0>         0.0329
     60 H26         6.2411   -4.4674    8.9100 H         1 <0>         0.0572
     61 H27         4.7547   -4.0497    9.7956 H         1 <0>         0.0540
     62 H28         5.3511   -5.7268    9.7988 H         1 <0>         0.0632
     63 H29        -0.3456   -5.5279   -1.8935 H         1 <0>         0.0620
     64 H30        -1.8769   -6.1032   -1.1917 H         1 <0>         0.0807
     65 H31        -1.8970   -4.9937   -2.5834 H         1 <0>         0.0597
@<TRIPOS>BOND
     1    1    2 1
     2    1   35 1
     3    1   36 1
     4    1   37 1
     5    2    3 1
     6    2   38 1
     7    2   39 1
     8    3    4 1
     9    3   40 1
    10    3   41 1
    11    4    8 1
    12    4    5 2
    13    5    6 1
    14    6    7 2
    15    6   34 1
    16    7   12 1
    17    7    8 1
    18    8    9 1
    19    9   10 2
    20   10   11 1
    21   10   14 1
    22   11   12 2
    23   12   13 1
    24   14   19 ar
    25   14   15 ar
    26   15   16 ar
    27   15   42 1
    28   16   17 ar
    29   16   23 1
    30   17   18 ar
    31   17   43 1
    32   18   19 ar
    33   18   44 1
    34   19   20 1
    35   20   21 1
    36   21   22 1
    37   21   45 1
    38   21   46 1
    39   22   47 1
    40   22   48 1
    41   22   49 1
    42   23   24 2
    43   23   25 2
    44   23   26 1
    45   26   31 1
    46   26   27 1
    47   27   28 1
    48   27   50 1
    49   27   51 1
    50   28   29 1
    51   28   52 1
    52   28   53 1
    53   29   30 1
    54   29   32 1
    55   30   31 1
    56   30   54 1
    57   30   55 1
    58   31   56 1
    59   31   57 1
    60   32   33 1
    61   32   58 1
    62   32   59 1
    63   33   60 1
    64   33   61 1
    65   33   62 1
    66   34   63 1
    67   34   64 1
    68   34   65 1
@<TRIPOS>MOLECULE
ZINC18324776
   67    70     0     0     0
SMALL
USER_CHARGES

@<TRIPOS>ATOM
      1 C1         -0.0187    1.5258    0.0104 C.3       1 <0>        -0.1527
      2 C2          0.0021   -0.0041    0.0020 C.3       1 <0>        -0.1146
      3 C3         -1.4333   -0.5336    0.0129 C.3       1 <0>        -0.0409
      4 C4         -1.4129   -2.0405    0.0046 C.2       1 <0>         0.3010
      5 N1         -1.4071   -2.7929   -1.0707 N.2       1 <0>        -0.4733
      6 C5         -1.3877   -4.0800   -0.7214 C.2       1 <0>         0.1428
      7 C6         -1.3810   -4.1322    0.6504 C.2       1 <0>        -0.1723
      8 N2         -1.3919   -2.8210    1.0945 N.pl3     1 <0>        -0.2854
      9 N3         -1.3832   -2.5699    2.4695 N.2       1 <0>        -0.2583
     10 C7         -1.3620   -3.5449    3.3321 C.2       1 <0>         0.4061
     11 N4         -1.3466   -4.8711    2.9502 N.am      1 <0>        -0.6726
     12 H1         -1.3310   -5.5667    3.6261 H         1 <0>         0.4190
     13 C8         -1.3621   -5.2077    1.6407 C.2       1 <0>         0.6010
     14 O1         -1.3478   -6.3752    1.2954 O.2       1 <0>        -0.4816
     15 C9         -1.3537   -3.2195    4.7733 C.ar      1 <0>        -0.1139
     16 C10        -1.3254   -4.2417    5.7231 C.ar      1 <0>         0.0469
     17 C11        -1.3178   -3.9318    7.0668 C.ar      1 <0>        -0.7277
     18 C12        -1.3382   -2.6100    7.4784 C.ar      1 <0>         0.0445
     19 C13        -1.3663   -1.5892    6.5478 C.ar      1 <0>        -0.2261
     20 C14        -1.3684   -1.8838    5.1935 C.ar      1 <0>         0.2477
     21 O2         -1.3904   -0.8814    4.2779 O.3       1 <0>        -0.2651
     22 C15        -1.4044    0.4562    4.7806 C.3       1 <0>         0.0428
     23 C16        -1.4284    1.4408    3.6097 C.3       1 <0>        -0.1560
     24 S1         -1.2826   -5.2233    8.2649 S.o2      1 <0>         2.6921
     25 O3         -1.8316   -4.6842    9.4596 O.2       1 <0>        -0.9290
     26 O4         -1.8188   -6.3779    7.6334 O.2       1 <0>        -0.9309
     27 N5          0.3088   -5.5535    8.5823 N.pl3     1 <0>        -1.0122
     28 C17         1.0439   -6.5580    7.7981 C.3       1 <0>         0.0949
     29 C18         2.3562   -5.9317    7.3149 C.3       1 <0>        -0.0239
     30 N6          3.0970   -5.4006    8.4661 N.4       1 <0>        -0.3828
     31 C19         2.3407   -4.3048    9.0851 C.3       1 <0>        -0.0284
     32 C20         1.0293   -4.8464    9.6524 C.3       1 <0>         0.0958
     33 C21         4.4028   -4.8994    8.0169 C.3       1 <0>        -0.0114
     34 C22         5.2254   -4.4605    9.2299 C.3       1 <0>        -0.1896
     35 C23        -1.3758   -5.2593   -1.6596 C.3       1 <0>        -0.0821
     36 H2          1.0039    1.9031    0.0027 H         1 <0>         0.0592
     37 H3         -0.5459    1.8868   -0.8726 H         1 <0>         0.0614
     38 H4         -0.5289    1.8773    0.9072 H         1 <0>         0.0565
     39 H5          0.5123   -0.3556   -0.8948 H         1 <0>         0.0710
     40 H6          0.5293   -0.3651    0.8851 H         1 <0>         0.0594
     41 H7         -1.9435   -0.1821    0.9097 H         1 <0>         0.0906
     42 H8         -1.9605   -0.1726   -0.8702 H         1 <0>         0.1040
     43 H9         -1.3098   -5.2740    5.4062 H         1 <0>         0.1484
     44 H10        -1.3324   -2.3756    8.5327 H         1 <0>         0.1534
     45 H11        -1.3821   -0.5605    6.8761 H         1 <0>         0.1551
     46 H12        -2.2911    0.6033    5.3972 H         1 <0>         0.0735
     47 H13        -0.5114    0.6279    5.3815 H         1 <0>         0.0708
     48 H14        -0.5417    1.2936    2.9931 H         1 <0>         0.0726
     49 H15        -2.3214    1.2691    3.0088 H         1 <0>         0.0719
     50 H16        -1.4391    2.4610    3.9931 H         1 <0>         0.0865
     51 H17         1.2599   -7.4244    8.4233 H         1 <0>         0.1083
     52 H18         0.4453   -6.8622    6.9395 H         1 <0>         0.1351
     53 H19         2.9579   -6.6900    6.8139 H         1 <0>         0.1474
     54 H20         2.1378   -5.1222    6.6184 H         1 <0>         0.1335
     55 H21         2.9311   -3.8642    9.8885 H         1 <0>         0.1485
     56 H22         2.1228   -3.5445    8.3351 H         1 <0>         0.1342
     57 H23         0.4209   -4.0196   10.0191 H         1 <0>         0.1362
     58 H24         1.2438   -5.5370   10.4679 H         1 <0>         0.1066
     59 H25         4.9323   -5.6903    7.4857 H         1 <0>         0.1333
     60 H26         4.2560   -4.0494    7.3505 H         1 <0>         0.1286
     61 H27         4.6958   -3.6696    9.7611 H         1 <0>         0.0809
     62 H28         5.3721   -5.3105    9.8963 H         1 <0>         0.0825
     63 H29         6.1943   -4.0886    8.8966 H         1 <0>         0.1077
     64 H30        -0.3454   -5.5297   -1.8903 H         1 <0>         0.0839
     65 H31        -1.8762   -6.1045   -1.1871 H         1 <0>         0.0849
     66 H32        -1.8973   -4.9966   -2.5800 H         1 <0>         0.0846
     67 H33         3.2364   -6.1358    9.1430 H         1 <0>         0.4258
@<TRIPOS>BOND
     1    1    2 1
     2    1   36 1
     3    1   37 1
     4    1   38 1
     5    2    3 1
     6    2   39 1
     7    2   40 1
     8    3    4 1
     9    3   41 1
    10    3   42 1
    11    4    8 1
    12    4    5 2
    13    5    6 1
    14    6    7 2
    15    6   35 1
    16    7   13 1
    17    7    8 1
    18    8    9 1
    19    9   10 2
    20   10   11 1
    21   10   15 1
    22   11   12 1
    23   11   13 am
    24   13   14 2
    25   15   20 ar
    26   15   16 ar
    27   16   17 ar
    28   16   43 1
    29   17   18 ar
    30   17   24 1
    31   18   19 ar
    32   18   44 1
    33   19   20 ar
    34   19   45 1
    35   20   21 1
    36   21   22 1
    37   22   23 1
    38   22   46 1
    39   22   47 1
    40   23   48 1
    41   23   49 1
    42   23   50 1
    43   24   25 2
    44   24   26 2
    45   24   27 1
    46   27   32 1
    47   27   28 1
    48   28   29 1
    49   28   51 1
    50   28   52 1
    51   29   30 1
    52   29   53 1
    53   29   54 1
    54   30   31 1
    55   30   33 1
    56   30   67 1
    57   31   32 1
    58   31   55 1
    59   31   56 1
    60   32   57 1
    61   32   58 1
    62   33   34 1
    63   33   59 1
    64   33   60 1
    65   34   61 1
    66   34   62 1
    67   34   63 1
    68   35   64 1
    69   35   65 1
    70   35   66 1
@<TRIPOS>MOLECULE
ZINC02496392
   50    54     0     0     0
SMALL
USER_CHARGES
butyl-(3-pyridyl)BLAHdione
@<TRIPOS>ATOM
      1 C1         11.5353   -5.2885   -0.8072 C.3       1 <0>        -0.1524
      2 C2         10.6417   -4.3929   -1.6675 C.3       1 <0>        -0.1204
      3 C3          9.3891   -4.0113   -0.8761 C.3       1 <0>        -0.1356
      4 C4          8.4954   -3.1156   -1.7363 C.3       1 <0>         0.1179
      5 N1          7.2961   -2.7502   -0.9785 N.am      1 <0>        -0.5758
      6 C5          7.2006   -1.6588   -0.1919 C.2       1 <0>         0.5274
      7 O1          8.0544   -0.8202    0.0014 O.2       1 <0>        -0.4569
      8 C6          5.8064   -1.6964    0.4003 C.3       1 <0>         0.0934
      9 H1          5.8320   -1.7870    1.4863 H         1 <0>         0.1409
     10 C7          5.0157   -0.4679   -0.0649 C.3       1 <0>        -0.0399
     11 C8          3.5410   -0.7825   -0.0381 C.2       1 <0>        -0.1477
     12 C9          2.4381    0.1609   -0.0204 C.ar      1 <0>        -0.1009
     13 C10         2.3903    1.5581   -0.0117 C.ar      1 <0>        -0.0639
     14 C11         1.1445    2.1354    0.0026 C.ar      1 <0>        -0.1466
     15 C12        -0.0167    1.3799    0.0096 C.ar      1 <0>        -0.0937
     16 C13         0.0021   -0.0041    0.0020 C.ar      1 <0>        -0.1306
     17 C14         1.2531   -0.6177   -0.0132 C.ar      1 <0>         0.1076
     18 N2          1.6297   -1.9296   -0.0238 N.pl3     1 <0>        -0.5726
     19 H2          1.0215   -2.6853   -0.0231 H         1 <0>         0.4176
     20 C15         2.9962   -2.0174   -0.0355 C.2       1 <0>         0.0564
     21 C16         3.8120   -3.2952   -0.0355 C.3       1 <0>         0.3047
     22 H3          3.7038   -3.8084    0.9200 H         1 <0>         0.1106
     23 N3          5.2092   -2.8914   -0.2356 N.am      1 <0>        -0.6185
     24 C17         6.1584   -3.4596   -0.9815 C.2       1 <0>         0.7065
     25 O2          6.0092   -4.4997   -1.5924 O.2       1 <0>        -0.5230
     26 C18         3.3649   -4.1947   -1.1589 C.ar      1 <0>        -0.1626
     27 C19         2.5102   -5.2578   -0.9094 C.ar      1 <0>        -0.0597
     28 C20         2.1253   -6.0588   -1.9734 C.ar      1 <0>        -0.1776
     29 C21         2.6029   -5.7731   -3.2387 C.ar      1 <0>         0.1130
     30 N4          3.4145   -4.7535   -3.4389 N.ar      1 <0>        -0.4825
     31 C22         3.7969   -3.9671   -2.4516 C.ar      1 <0>         0.1706
     32 H4         11.8257   -4.7519    0.0960 H         1 <0>         0.0545
     33 H5         10.9893   -6.1914   -0.5337 H         1 <0>         0.0543
     34 H6         12.4277   -5.5604   -1.3711 H         1 <0>         0.0574
     35 H7         10.3513   -4.9295   -2.5707 H         1 <0>         0.0665
     36 H8         11.1877   -3.4901   -1.9410 H         1 <0>         0.0663
     37 H9          9.6795   -3.4746    0.0271 H         1 <0>         0.0679
     38 H10         8.8430   -4.9141   -0.6025 H         1 <0>         0.0702
     39 H11         8.2050   -3.6523   -2.6395 H         1 <0>         0.0979
     40 H12         9.0415   -2.2128   -2.0099 H         1 <0>         0.0969
     41 H13         5.3134   -0.2070   -1.0805 H         1 <0>         0.0841
     42 H14         5.2208    0.3702    0.6011 H         1 <0>         0.1025
     43 H15         3.2904    2.1550   -0.0160 H         1 <0>         0.1316
     44 H16         1.0674    3.2127    0.0083 H         1 <0>         0.1208
     45 H17        -0.9695    1.8884    0.0169 H         1 <0>         0.1232
     46 H18        -0.9105   -0.5816    0.0073 H         1 <0>         0.1293
     47 H19         2.1532   -5.4573    0.0902 H         1 <0>         0.1355
     48 H20         1.4610   -6.8956   -1.8157 H         1 <0>         0.1388
     49 H21         2.3080   -6.3925   -4.0729 H         1 <0>         0.1575
     50 H22         4.4588   -3.1384   -2.6550 H         1 <0>         0.1395
@<TRIPOS>BOND
     1    1    2 1
     2    1   32 1
     3    1   33 1
     4    1   34 1
     5    2    3 1
     6    2   35 1
     7    2   36 1
     8    3    4 1
     9    3   37 1
    10    3   38 1
    11    4    5 1
    12    4   39 1
    13    4   40 1
    14    5   24 am
    15    5    6 am
    16    6    7 2
    17    6    8 1
    18    8    9 1
    19    8   23 1
    20    8   10 1
    21   10   11 1
    22   10   41 1
    23   10   42 1
    24   11   20 2
    25   11   12 1
    26   12   17 ar
    27   12   13 ar
    28   13   14 ar
    29   13   43 1
    30   14   15 ar
    31   14   44 1
    32   15   16 ar
    33   15   45 1
    34   16   17 ar
    35   16   46 1
    36   17   18 1
    37   18   19 1
    38   18   20 1
    39   20   21 1
    40   21   22 1
    41   21   23 1
    42   21   26 1
    43   23   24 am
    44   24   25 2
    45   26   31 ar
    46   26   27 ar
    47   27   28 ar
    48   27   47 1
    49   28   29 ar
    50   28   48 1
    51   29   30 ar
    52   29   49 1
    53   30   31 ar
    54   31   50 1
@<TRIPOS>MOLECULE
ZINC35183161
   41    44     0     0     0
SMALL
USER_CHARGES

@<TRIPOS>ATOM
      1 C1         -0.1722    1.4275    0.0663 C.3       1 <0>         0.0335
      2 O1         -0.1045    0.0003    0.0416 O.3       1 <0>        -0.3512
      3 C2          0.5209   -0.5979    1.0676 C.2       1 <0>         0.4711
      4 O2          0.9952    0.0681    1.9572 O.2       1 <0>        -0.4898
      5 C3          0.6315   -2.1002    1.1100 C.3       1 <0>         0.0987
      6 H1         -0.3036   -2.5433    0.7676 H         1 <0>         0.1248
      7 C4          1.7780   -2.5549    0.1965 C.3       1 <0>        -0.0684
      8 C5          2.0387   -4.0152    0.4681 C.2       1 <0>        -0.1624
      9 C6          2.7798   -4.9754   -0.3187 C.ar      1 <0>        -0.0949
     10 C7          3.4694   -4.8810   -1.5317 C.ar      1 <0>        -0.0661
     11 C8          4.0718   -6.0246   -1.9944 C.ar      1 <0>        -0.1465
     12 C9          4.0073   -7.2226   -1.3017 C.ar      1 <0>        -0.0960
     13 C10         3.3318   -7.3451   -0.0999 C.ar      1 <0>        -0.1300
     14 C11         2.7104   -6.2004    0.3948 C.ar      1 <0>         0.1020
     15 N1          1.9771   -5.9729    1.5244 N.pl3     1 <0>        -0.5701
     16 H2          1.7702   -6.6387    2.1988 H         1 <0>         0.4144
     17 C12         1.5789   -4.6644    1.5619 C.2       1 <0>         0.0407
     18 C13         0.7548   -3.9900    2.6331 C.3       1 <0>         0.1980
     19 H3         -0.2935   -4.2649    2.5160 H         1 <0>         0.1218
     20 N2          0.9031   -2.5329    2.4881 N.3       1 <0>        -0.6499
     21 C14         1.2422   -4.4199    3.9927 C.ar      1 <0>        -0.0712
     22 C15         2.1925   -3.6665    4.6562 C.ar      1 <0>        -0.0753
     23 C16         2.6400   -4.0601    5.9031 C.ar      1 <0>        -0.0960
     24 C17         2.1367   -5.2086    6.4884 C.ar      1 <0>        -0.0214
     25 C18         1.1856   -5.9626    5.8252 C.ar      1 <0>        -0.0968
     26 C19         0.7344   -5.5654    4.5791 C.ar      1 <0>        -0.0273
     27 Cl1        -0.4638   -6.5079    3.7485 Cl        1 <0>        -0.0491
     28 Cl2         2.6993   -5.7032    8.0544 Cl        1 <0>        -0.0489
     29 H4          0.8371    1.8390    0.0741 H         1 <0>         0.0618
     30 H5         -0.7021    1.7814   -0.8181 H         1 <0>         0.1045
     31 H6         -0.7034    1.7506    0.9616 H         1 <0>         0.0626
     32 H7          1.4937   -2.4192   -0.8470 H         1 <0>         0.0963
     33 H8          2.6745   -1.9740    0.4134 H         1 <0>         0.0820
     34 H9          3.5252   -3.9518   -2.0792 H         1 <0>         0.1298
     35 H10         4.6130   -5.9893   -2.9284 H         1 <0>         0.1199
     36 H11         4.5005   -8.0906   -1.7137 H         1 <0>         0.1226
     37 H12         3.2884   -8.2850    0.4302 H         1 <0>         0.1282
     38 H13         1.8178   -2.2310    2.7883 H         1 <0>         0.3580
     39 H14         2.5857   -2.7701    4.1998 H         1 <0>         0.1451
     40 H15         3.3830   -3.4714    6.4207 H         1 <0>         0.1461
     41 H16         0.7924   -6.8590    6.2816 H         1 <0>         0.1493
@<TRIPOS>BOND
     1    1    2 1
     2    1   29 1
     3    1   30 1
     4    1   31 1
     5    2    3 1
     6    3    4 2
     7    3    5 1
     8    5    6 1
     9    5   20 1
    10    5    7 1
    11    7    8 1
    12    7   32 1
    13    7   33 1
    14    8   17 2
    15    8    9 1
    16    9   14 ar
    17    9   10 ar
    18   10   11 ar
    19   10   34 1
    20   11   12 ar
    21   11   35 1
    22   12   13 ar
    23   12   36 1
    24   13   14 ar
    25   13   37 1
    26   14   15 1
    27   15   16 1
    28   15   17 1
    29   17   18 1
    30   18   19 1
    31   18   20 1
    32   18   21 1
    33   20   38 1
    34   21   26 ar
    35   21   22 ar
    36   22   23 ar
    37   22   39 1
    38   23   24 ar
    39   23   40 1
    40   24   25 ar
    41   24   28 1
    42   25   26 ar
    43   25   41 1
    44   26   27 1
@<TRIPOS>MOLECULE
ZINC35183160
   41    44     0     0     0
SMALL
USER_CHARGES

@<TRIPOS>ATOM
      1 C1          1.3325    1.7553    1.5949 C.3       1 <0>         0.0275
      2 O1          1.6406    0.3656    1.4689 O.3       1 <0>        -0.3382
      3 C2          0.6364   -0.4514    1.1141 C.2       1 <0>         0.4666
      4 O2         -0.4675   -0.0015    0.9170 O.2       1 <0>        -0.4925
      5 C3          0.8859   -1.9297    0.9615 C.3       1 <0>         0.0976
      6 H1          1.1063   -2.1553   -0.0819 H         1 <0>         0.1396
      7 C4         -0.3623   -2.7074    1.4006 C.3       1 <0>        -0.0720
      8 C5         -0.4798   -2.5916    2.8996 C.2       1 <0>        -0.1652
      9 C6         -1.6125   -2.8692    3.7541 C.ar      1 <0>        -0.0937
     10 C7         -2.9122   -3.3156    3.4950 C.ar      1 <0>        -0.0644
     11 C8         -3.7426   -3.4721    4.5770 C.ar      1 <0>        -0.1474
     12 C9         -3.3248   -3.2039    5.8703 C.ar      1 <0>        -0.0962
     13 C10        -2.0448   -2.7616    6.1560 C.ar      1 <0>        -0.1312
     14 C11        -1.1796   -2.5927    5.0772 C.ar      1 <0>         0.1009
     15 N1          0.1204   -2.1803    5.0027 N.pl3     1 <0>        -0.5709
     16 H2          0.6691   -1.9249    5.7607 H         1 <0>         0.4133
     17 C12         0.5324   -2.1822    3.6979 C.2       1 <0>         0.0345
     18 C13         1.8943   -1.7995    3.1688 C.3       1 <0>         0.1780
     19 H3          1.9908   -0.7139    3.1568 H         1 <0>         0.1348
     20 N2          2.0274   -2.3231    1.7996 N.3       1 <0>        -0.6483
     21 C14         2.9644   -2.3932    4.0484 C.ar      1 <0>        -0.0662
     22 C15         3.5097   -3.6249    3.7377 C.ar      1 <0>        -0.0780
     23 C16         4.4910   -4.1699    4.5439 C.ar      1 <0>        -0.0960
     24 C17         4.9287   -3.4827    5.6624 C.ar      1 <0>        -0.0230
     25 C18         4.3837   -2.2501    5.9735 C.ar      1 <0>        -0.0961
     26 C19         3.4048   -1.7028    5.1634 C.ar      1 <0>        -0.0282
     27 Cl1         2.7245   -0.1530    5.5497 Cl        1 <0>        -0.0505
     28 Cl2         6.1609   -4.1677    6.6752 Cl        1 <0>        -0.0495
     29 H4          0.5632    1.8895    2.3554 H         1 <0>         0.0584
     30 H5          2.2299    2.3015    1.8857 H         1 <0>         0.1036
     31 H6          0.9695    2.1351    0.6399 H         1 <0>         0.0630
     32 H7         -1.2472   -2.2814    0.9277 H         1 <0>         0.0996
     33 H8         -0.2616   -3.7555    1.1188 H         1 <0>         0.0944
     34 H9         -3.2473   -3.5271    2.4903 H         1 <0>         0.1298
     35 H10        -4.7538   -3.8149    4.4148 H         1 <0>         0.1198
     36 H11        -4.0215   -3.3451    6.6834 H         1 <0>         0.1224
     37 H12        -1.7313   -2.5561    7.1689 H         1 <0>         0.1276
     38 H13         2.1432   -3.3254    1.8054 H         1 <0>         0.3566
     39 H14         3.1685   -4.1616    2.8648 H         1 <0>         0.1449
     40 H15         4.9162   -5.1325    4.3010 H         1 <0>         0.1459
     41 H16         4.7250   -1.7134    6.8464 H         1 <0>         0.1488
@<TRIPOS>BOND
     1    1    2 1
     2    1   29 1
     3    1   30 1
     4    1   31 1
     5    2    3 1
     6    3    4 2
     7    3    5 1
     8    5    6 1
     9    5   20 1
    10    5    7 1
    11    7    8 1
    12    7   32 1
    13    7   33 1
    14    8   17 2
    15    8    9 1
    16    9   14 ar
    17    9   10 ar
    18   10   11 ar
    19   10   34 1
    20   11   12 ar
    21   11   35 1
    22   12   13 ar
    23   12   36 1
    24   13   14 ar
    25   13   37 1
    26   14   15 1
    27   15   16 1
    28   15   17 1
    29   17   18 1
    30   18   19 1
    31   18   20 1
    32   18   21 1
    33   20   38 1
    34   21   26 ar
    35   21   22 ar
    36   22   23 ar
    37   22   39 1
    38   23   24 ar
    39   23   40 1
    40   24   25 ar
    41   24   28 1
    42   25   26 ar
    43   25   41 1
    44   26   27 1
@<TRIPOS>MOLECULE
ZINC28357928
   67    70     0     0     0
SMALL
USER_CHARGES

@<TRIPOS>ATOM
      1 C1         -0.0187    1.5258    0.0104 C.3       1 <0>        -0.1515
      2 C2          0.0021   -0.0041    0.0020 C.3       1 <0>        -0.1161
      3 C3          0.7421   -0.5109    1.2415 C.3       1 <0>        -0.0382
      4 C4          0.7625   -2.0177    1.2333 C.2       1 <0>         0.2939
      5 N1         -0.1525   -2.7915    1.7685 N.2       1 <0>        -0.4766
      6 C5          0.1725   -4.0715    1.5815 C.2       1 <0>         0.1349
      7 C6          1.3582   -4.0964    0.8901 C.2       1 <0>        -0.1673
      8 N2          1.7153   -2.7766    0.6729 N.pl3     1 <0>        -0.2814
      9 N3          2.8951   -2.4981   -0.0230 N.2       1 <0>        -0.2668
     10 C7          3.6559   -3.4559   -0.4691 C.2       1 <0>         0.4183
     11 N4          3.3508   -4.7896   -0.2869 N.am      1 <0>        -0.6707
     12 H1          3.9457   -5.4717   -0.6359 H         1 <0>         0.4226
     13 C8          2.2333   -5.1521    0.3824 C.2       1 <0>         0.6004
     14 O1          1.9564   -6.3262    0.5467 O.2       1 <0>        -0.4843
     15 C9          4.8914   -3.1020   -1.1980 C.ar      1 <0>        -0.1222
     16 C10         5.7253   -4.1053   -1.6938 C.ar      1 <0>         0.0524
     17 C11         6.8771   -3.7688   -2.3733 C.ar      1 <0>        -0.7180
     18 C12         7.2105   -2.4388   -2.5660 C.ar      1 <0>         0.0501
     19 C13         6.3932   -1.4366   -2.0800 C.ar      1 <0>        -0.2292
     20 C14         5.2290   -1.7581   -1.4000 C.ar      1 <0>         0.2415
     21 O2          4.4221   -0.7740   -0.9267 O.3       1 <0>        -0.2692
     22 C15         4.8308    0.5735   -1.1706 C.3       1 <0>         0.0431
     23 C16         3.8043    1.5347   -0.5679 C.3       1 <0>        -0.1535
     24 S1          7.9293   -5.0365   -2.9982 S.o2      1 <0>         2.6925
     25 O3          9.2244   -4.4650   -3.1219 O.2       1 <0>        -0.9461
     26 O4          7.6794   -6.1949   -2.2141 O.2       1 <0>        -0.9477
     27 N5          7.4171   -5.3850   -4.5340 N.pl3     1 <0>        -0.9966
     28 C17         6.3962   -6.4163   -4.7735 C.3       1 <0>         0.1246
     29 C18         5.2955   -5.8164   -5.6548 C.3       1 <0>         0.0399
     30 N6          5.8993   -5.2468   -6.8669 N.3       1 <0>        -0.5240
     31 C19         6.8084   -4.1402   -6.5398 C.3       1 <0>         0.0359
     32 C20         7.9666   -4.6672   -5.6942 C.3       1 <0>         0.1258
     33 C21         4.8654   -4.8154   -7.8172 C.3       1 <0>         0.0541
     34 C22         5.5180   -4.4629   -9.1554 C.3       1 <0>         0.0791
     35 O5          6.0924   -5.6386   -9.7296 O.3       1 <0>        -0.5585
     36 C23        -0.6161   -5.2693    2.0444 C.3       1 <0>        -0.0791
     37 H2          1.0039    1.9031    0.0027 H         1 <0>         0.0568
     38 H3         -0.5459    1.8868   -0.8726 H         1 <0>         0.0582
     39 H4         -0.5289    1.8773    0.9072 H         1 <0>         0.0592
     40 H5         -1.0205   -0.3814    0.0098 H         1 <0>         0.0698
     41 H6          0.5123   -0.3556   -0.8948 H         1 <0>         0.0616
     42 H7          1.7647   -0.1336    1.2338 H         1 <0>         0.0903
     43 H8          0.2319   -0.1594    2.1383 H         1 <0>         0.1010
     44 H9          5.4690   -5.1439   -1.5453 H         1 <0>         0.1477
     45 H10         8.1145   -2.1835   -3.0989 H         1 <0>         0.1527
     46 H11         6.6594   -0.4013   -2.2340 H         1 <0>         0.1518
     47 H12         5.8041    0.7467   -0.7115 H         1 <0>         0.0707
     48 H13         4.9004    0.7432   -2.2450 H         1 <0>         0.0696
     49 H14         2.8310    1.3615   -1.0270 H         1 <0>         0.0715
     50 H15         3.7346    1.3649    0.5066 H         1 <0>         0.0697
     51 H16         4.1160    2.5625   -0.7539 H         1 <0>         0.0830
     52 H17         6.8484   -7.2682   -5.2814 H         1 <0>         0.0900
     53 H18         5.9699   -6.7372   -3.8230 H         1 <0>         0.0932
     54 H19         4.5871   -6.5965   -5.9335 H         1 <0>         0.0912
     55 H20         4.7758   -5.0322   -5.1044 H         1 <0>         0.0373
     56 H21         7.1971   -3.7046   -7.4603 H         1 <0>         0.0909
     57 H22         6.2675   -3.3794   -5.9770 H         1 <0>         0.0373
     58 H23         8.5781   -3.8322   -5.3521 H         1 <0>         0.0939
     59 H24         8.5726   -5.3477   -6.2923 H         1 <0>         0.0883
     60 H25         4.1477   -5.6225   -7.9644 H         1 <0>         0.0857
     61 H26         4.3512   -3.9395   -7.4218 H         1 <0>         0.0477
     62 H27         4.7646   -4.0591   -9.8318 H         1 <0>         0.0488
     63 H28         6.2980   -3.7188   -8.9944 H         1 <0>         0.0459
     64 H29         6.5246   -5.4894  -10.5817 H         1 <0>         0.3765
     65 H30        -1.3240   -5.5603    1.2683 H         1 <0>         0.0820
     66 H31         0.0643   -6.0971    2.2445 H         1 <0>         0.0840
     67 H32        -1.1590   -5.0170    2.9553 H         1 <0>         0.0816
@<TRIPOS>BOND
     1    1    2 1
     2    1   37 1
     3    1   38 1
     4    1   39 1
     5    2    3 1
     6    2   40 1
     7    2   41 1
     8    3    4 1
     9    3   42 1
    10    3   43 1
    11    4    8 1
    12    4    5 2
    13    5    6 1
    14    6    7 2
    15    6   36 1
    16    7   13 1
    17    7    8 1
    18    8    9 1
    19    9   10 2
    20   10   11 1
    21   10   15 1
    22   11   12 1
    23   11   13 am
    24   13   14 2
    25   15   20 ar
    26   15   16 ar
    27   16   17 ar
    28   16   44 1
    29   17   18 ar
    30   17   24 1
    31   18   19 ar
    32   18   45 1
    33   19   20 ar
    34   19   46 1
    35   20   21 1
    36   21   22 1
    37   22   23 1
    38   22   47 1
    39   22   48 1
    40   23   49 1
    41   23   50 1
    42   23   51 1
    43   24   25 2
    44   24   26 2
    45   24   27 1
    46   27   32 1
    47   27   28 1
    48   28   29 1
    49   28   52 1
    50   28   53 1
    51   29   30 1
    52   29   54 1
    53   29   55 1
    54   30   31 1
    55   30   33 1
    56   31   32 1
    57   31   56 1
    58   31   57 1
    59   32   58 1
    60   32   59 1
    61   33   34 1
    62   33   60 1
    63   33   61 1
    64   34   35 1
    65   34   62 1
    66   34   63 1
    67   35   64 1
    68   36   65 1
    69   36   66 1
    70   36   67 1
@<TRIPOS>MOLECULE
ZINC28357928
   66    69     0     0     0
SMALL
USER_CHARGES

@<TRIPOS>ATOM
      1 C1         -0.0187    1.5258    0.0104 C.3       1 <0>        -0.1472
      2 C2          0.0021   -0.0041    0.0020 C.3       1 <0>        -0.1154
      3 C3         -1.4333   -0.5336    0.0129 C.3       1 <0>        -0.0178
      4 C4         -1.4129   -2.0405    0.0046 C.2       1 <0>         0.2124
      5 N1         -1.4071   -2.7931   -1.0712 N.2       1 <0>        -0.4897
      6 C5         -1.3882   -4.0792   -0.7236 C.2       1 <0>         0.0658
      7 C6         -1.3817   -4.1334    0.6527 C.2       1 <0>        -0.1330
      8 N2         -1.3919   -2.8203    1.0938 N.pl3     1 <0>        -0.2436
      9 N3         -1.3825   -2.5794    2.4721 N.2       1 <0>        -0.3806
     10 C7         -1.3611   -3.5896    3.3115 C.2       1 <0>         0.3856
     11 N4         -1.3477   -4.8635    2.8932 N.2       1 <0>        -0.6633
     12 C8         -1.3637   -5.1706    1.6102 C.2       1 <0>         0.5160
     13 O1         -1.3482   -6.4650    1.2164 O.3       1 <0>        -0.6441
     14 C9         -1.3510   -3.3124    4.7674 C.ar      1 <0>        -0.0695
     15 C10        -1.3226   -4.3652    5.6804 C.ar      1 <0>         0.0724
     16 C11        -1.3133   -4.1018    7.0345 C.ar      1 <0>        -0.7300
     17 C12        -1.3321   -2.7951    7.4910 C.ar      1 <0>         0.0272
     18 C13        -1.3608   -1.7438    6.5951 C.ar      1 <0>        -0.2429
     19 C14        -1.3641   -1.9932    5.2316 C.ar      1 <0>         0.2181
     20 O2         -1.3862   -0.9606    4.3499 O.3       1 <0>        -0.2614
     21 C15        -1.3985    0.3595    4.8970 C.3       1 <0>         0.0449
     22 C16        -1.4229    1.3826    3.7597 C.3       1 <0>        -0.1490
     23 S1         -1.2780   -5.4337    8.1875 S.o2      1 <0>         2.6954
     24 O3         -1.8252   -4.9355    9.4005 O.2       1 <0>        -0.9615
     25 O4         -1.8158   -6.5654    7.5173 O.2       1 <0>        -0.9470
     26 N5          0.3135   -5.7760    8.4916 N.pl3     1 <0>        -0.9990
     27 C17         1.0454   -6.7536    7.6720 C.3       1 <0>         0.1262
     28 C18         2.3494   -6.1074    7.1922 C.3       1 <0>         0.0391
     29 N6          3.0902   -5.5890    8.3500 N.3       1 <0>        -0.5244
     30 C19         2.3371   -4.5289    9.0333 C.3       1 <0>         0.0354
     31 C20         1.0342   -5.1059    9.5847 C.3       1 <0>         0.1290
     32 C21         4.4231   -5.1157    7.9532 C.3       1 <0>         0.0527
     33 C22         5.2521   -4.8186    9.2044 C.3       1 <0>         0.0805
     34 O5          5.4804   -6.0320    9.9238 O.3       1 <0>        -0.5575
     35 C23        -1.3761   -5.2575   -1.6630 C.3       1 <0>        -0.0571
     36 H1          1.0039    1.9031    0.0027 H         1 <0>         0.0513
     37 H2         -0.5459    1.8868   -0.8726 H         1 <0>         0.0538
     38 H3         -0.5289    1.8773    0.9072 H         1 <0>         0.0536
     39 H4          0.5123   -0.3556   -0.8948 H         1 <0>         0.0637
     40 H5          0.5293   -0.3651    0.8851 H         1 <0>         0.0604
     41 H6         -1.9435   -0.1821    0.9097 H         1 <0>         0.0786
     42 H7         -1.9605   -0.1726   -0.8702 H         1 <0>         0.0831
     43 H8         -1.3082   -5.3860    5.3281 H         1 <0>         0.1638
     44 H9         -1.3247   -2.5965    8.5525 H         1 <0>         0.1395
     45 H10        -1.3757   -0.7265    6.9575 H         1 <0>         0.1383
     46 H11        -2.2844    0.4866    5.5191 H         1 <0>         0.0614
     47 H12        -0.5047    0.5103    5.5023 H         1 <0>         0.0603
     48 H13        -0.5370    1.2555    3.1375 H         1 <0>         0.0691
     49 H14        -2.3167    1.2318    3.1543 H         1 <0>         0.0680
     50 H15        -1.4323    2.3896    4.1770 H         1 <0>         0.0740
     51 H16         1.2725   -7.6360    8.2702 H         1 <0>         0.0840
     52 H17         0.4391   -7.0371    6.8117 H         1 <0>         0.0995
     53 H18         2.9558   -6.8517    6.6760 H         1 <0>         0.0897
     54 H19         2.1202   -5.2882    6.5106 H         1 <0>         0.0430
     55 H20         2.9344   -4.1285    9.8524 H         1 <0>         0.0859
     56 H21         2.1080   -3.7317    8.3261 H         1 <0>         0.0391
     57 H22         0.4205   -4.3006    9.9884 H         1 <0>         0.0909
     58 H23         1.2602   -5.8269   10.3703 H         1 <0>         0.0822
     59 H24         4.9205   -5.8846    7.3620 H         1 <0>         0.0846
     60 H25         4.3241   -4.2075    7.3587 H         1 <0>         0.0483
     61 H26         6.2081   -4.3841    8.9121 H         1 <0>         0.0464
     62 H27         4.7125   -4.1158    9.8392 H         1 <0>         0.0455
     63 H28         6.0010   -5.9187   10.7308 H         1 <0>         0.3726
     64 H29        -0.3456   -5.5279   -1.8935 H         1 <0>         0.0620
     65 H30        -1.8769   -6.1032   -1.1917 H         1 <0>         0.0807
     66 H31        -1.8970   -4.9937   -2.5834 H         1 <0>         0.0597
@<TRIPOS>BOND
     1    1    2 1
     2    1   36 1
     3    1   37 1
     4    1   38 1
     5    2    3 1
     6    2   39 1
     7    2   40 1
     8    3    4 1
     9    3   41 1
    10    3   42 1
    11    4    8 1
    12    4    5 2
    13    5    6 1
    14    6    7 2
    15    6   35 1
    16    7   12 1
    17    7    8 1
    18    8    9 1
    19    9   10 2
    20   10   11 1
    21   10   14 1
    22   11   12 2
    23   12   13 1
    24   14   19 ar
    25   14   15 ar
    26   15   16 ar
    27   15   43 1
    28   16   17 ar
    29   16   23 1
    30   17   18 ar
    31   17   44 1
    32   18   19 ar
    33   18   45 1
    34   19   20 1
    35   20   21 1
    36   21   22 1
    37   21   46 1
    38   21   47 1
    39   22   48 1
    40   22   49 1
    41   22   50 1
    42   23   24 2
    43   23   25 2
    44   23   26 1
    45   26   31 1
    46   26   27 1
    47   27   28 1
    48   27   51 1
    49   27   52 1
    50   28   29 1
    51   28   53 1
    52   28   54 1
    53   29   30 1
    54   29   32 1
    55   30   31 1
    56   30   55 1
    57   30   56 1
    58   31   57 1
    59   31   58 1
    60   32   33 1
    61   32   59 1
    62   32   60 1
    63   33   34 1
    64   33   61 1
    65   33   62 1
    66   34   63 1
    67   35   64 1
    68   35   65 1
    69   35   66 1
@<TRIPOS>MOLECULE
ZINC08379230
   44    47     0     0     0
SMALL
USER_CHARGES
4-(chloro-oxo-BLAHyl)benzoic acid
@<TRIPOS>ATOM
      1 C1          4.5946    5.7153    0.0151 C.ar      1 <0>        -0.1215
      2 C2          5.7109    6.5200    0.0077 C.ar      1 <0>        -0.0769
      3 C3          5.5695    7.9107    0.0196 C.ar      1 <0>        -0.1006
      4 C4          4.2938    8.4823    0.0330 C.ar      1 <0>        -0.0853
      5 C5          3.1790    7.6756    0.0346 C.ar      1 <0>        -0.1209
      6 C6          3.3215    6.2872    0.0228 C.ar      1 <0>        -0.0649
      7 C7          2.1202    5.4197    0.0246 C.ar      1 <0>        -0.0297
      8 C8          2.2595    4.0298    0.0122 C.ar      1 <0>        -0.0582
      9 C9          1.1407    3.2346    0.0131 C.ar      1 <0>        -0.1113
     10 C10        -0.1336    3.7983    0.0271 C.ar      1 <0>         0.1716
     11 C11        -0.2728    5.1820    0.0392 C.ar      1 <0>        -0.0704
     12 C12         0.8466    5.9881    0.0380 C.ar      1 <0>        -0.0689
     13 Cl1        -1.8556    5.8950    0.0552 Cl        1 <0>        -0.0606
     14 N1         -1.2557    2.9709    0.0300 N.am      1 <0>        -0.6597
     15 C13        -1.1803    1.6340    0.0164 C.2       1 <0>         0.7101
     16 O1         -2.2143    0.9944    0.0174 O.2       1 <0>        -0.5819
     17 N2         -0.0111    0.9658    0.0074 N.am      1 <0>        -0.7102
     18 C14         1.2446    1.7295   -0.0005 C.3       1 <0>         0.2134
     19 C15         2.0262    1.3264   -1.2470 C.3       1 <0>        -0.1279
     20 C16         2.2018   -0.1931   -1.2785 C.3       1 <0>        -0.1215
     21 C17         2.9877   -0.6398   -0.0436 C.3       1 <0>        -0.1240
     22 C18         2.2334   -0.2153    1.2184 C.3       1 <0>        -0.1216
     23 C19         2.0565    1.3045    1.2186 C.3       1 <0>        -0.1275
     24 C20         6.7656    8.7745    0.0183 C.2       1 <0>         0.4856
     25 O2          6.6420    9.9831    0.0290 O.co2     1 <0>        -0.6288
     26 H1          4.7037    4.6408    0.0105 H         1 <0>         0.1192
     27 H2          6.6959    6.0772   -0.0027 H         1 <0>         0.1342
     28 H3          4.1832    9.5566    0.0425 H         1 <0>         0.1304
     29 H4          2.1933    8.1169    0.0454 H         1 <0>         0.1198
     30 H5          3.2427    3.5830    0.0017 H         1 <0>         0.1435
     31 H6          0.7365    7.0624    0.0471 H         1 <0>         0.1457
     32 H7         -2.1335    3.3836    0.0386 H         1 <0>         0.4233
     33 H8          0.0021   -0.0041    0.0020 H         1 <0>         0.4277
     34 H9          1.4820    1.6469   -2.1355 H         1 <0>         0.0694
     35 H10         3.0057    1.8043   -1.2310 H         1 <0>         0.0822
     36 H11         2.7467   -0.4775   -2.1787 H         1 <0>         0.0703
     37 H12         1.2228   -0.6723   -1.2793 H         1 <0>         0.0611
     38 H13         3.9734   -0.1746   -0.0519 H         1 <0>         0.0686
     39 H14         3.0969   -1.7242   -0.0546 H         1 <0>         0.0650
     40 H15         2.8009   -0.5152    2.0993 H         1 <0>         0.0704
     41 H16         1.2548   -0.6951    1.2357 H         1 <0>         0.0611
     42 H17         3.0352    1.7833    1.1872 H         1 <0>         0.0823
     43 H18         1.5337    1.6075    2.1258 H         1 <0>         0.0696
     44 O3          7.9949    8.2230    0.0053 O.co2     1 <0>        -0.7520
@<TRIPOS>BOND
     1    1    6 ar
     2    1    2 ar
     3    1   26 1
     4    2    3 ar
     5    2   27 1
     6    3    4 ar
     7    3   24 1
     8    4    5 ar
     9    4   28 1
    10    5    6 ar
    11    5   29 1
    12    6    7 1
    13    7   12 ar
    14    7    8 ar
    15    8    9 ar
    16    8   30 1
    17    9   18 1
    18    9   10 ar
    19   10   11 ar
    20   10   14 1
    21   11   12 ar
    22   11   13 1
    23   12   31 1
    24   14   15 am
    25   14   32 1
    26   15   16 2
    27   15   17 am
    28   17   18 1
    29   17   33 1
    30   18   23 1
    31   18   19 1
    32   19   20 1
    33   19   34 1
    34   19   35 1
    35   20   21 1
    36   20   36 1
    37   20   37 1
    38   21   22 1
    39   21   38 1
    40   21   39 1
    41   22   23 1
    42   22   40 1
    43   22   41 1
    44   23   42 1
    45   23   43 1
    46   24   25 2
    47   24   44 1
@<TRIPOS>MOLECULE
ZINC19796168
   63    66     0     0     0
SMALL
USER_CHARGES

@<TRIPOS>ATOM
      1 C1         -0.0187    1.5258    0.0104 C.3       1 <0>        -0.1516
      2 C2          0.0021   -0.0041    0.0020 C.3       1 <0>        -0.1160
      3 C3          0.7182   -0.4975   -1.2568 C.3       1 <0>        -0.0368
      4 C4          0.7386   -2.0043   -1.2651 C.2       1 <0>         0.1083
      5 C5          1.7436   -2.8145   -0.7017 C.2       1 <0>         0.0436
      6 C6          1.3716   -4.1454   -0.9309 C.2       1 <0>        -0.0357
      7 C7          2.2155   -5.1793   -0.4631 C.2       1 <0>         0.5719
      8 O1          1.9272   -6.3498   -0.6430 O.2       1 <0>        -0.5217
      9 N1          3.3497   -4.8379    0.1877 N.am      1 <0>        -0.6330
     10 H1          3.9439   -5.5300    0.5176 H         1 <0>         0.4219
     11 C8          3.6639   -3.5203    0.3833 C.2       1 <0>         0.3994
     12 N2          2.8908   -2.5515   -0.0437 N.2       1 <0>        -0.4298
     13 C9          4.9101   -3.1798    1.0980 C.ar      1 <0>        -0.1126
     14 C10         5.7536   -4.1922    1.5597 C.ar      1 <0>         0.0399
     15 C11         6.9158   -3.8678    2.2265 C.ar      1 <0>        -0.7185
     16 C12         7.2508   -2.5412    2.4411 C.ar      1 <0>         0.0430
     17 C13         6.4250   -1.5305    1.9894 C.ar      1 <0>        -0.2315
     18 C14         5.2556   -1.8391    1.3116 C.ar      1 <0>         0.2415
     19 O2          4.4461   -0.8467    0.8623 O.3       1 <0>        -0.2578
     20 C15         4.8632    0.4961    1.1168 C.3       1 <0>         0.0414
     21 C16         3.8319    1.4685    0.5407 C.3       1 <0>        -0.1519
     22 S1          7.9793   -5.1464    2.8085 S.o2      1 <0>         2.6926
     23 O3          8.7312   -4.5930    3.8798 O.2       1 <0>        -0.9482
     24 O4          7.1730   -6.3063    2.9631 O.2       1 <0>        -0.9501
     25 N3          9.0568   -5.4772    1.5953 N.pl3     1 <0>        -0.9979
     26 C17         8.7556   -6.4921    0.5742 C.3       1 <0>         0.1239
     27 C18         8.9742   -5.8704   -0.8093 C.3       1 <0>         0.0382
     28 N4         10.3268   -5.3015   -0.8788 N.3       1 <0>        -0.5395
     29 C19        10.4964   -4.2104    0.0900 C.3       1 <0>         0.0386
     30 C20        10.3376   -4.7598    1.5068 C.3       1 <0>         0.1243
     31 C21        10.6381   -4.8489   -2.2412 C.3       1 <0>         0.0245
     32 N5          0.1842   -4.1164   -1.6082 N.pl3     1 <0>        -0.3299
     33 N6         -0.1751   -2.7746   -1.7907 N.2       1 <0>        -0.2328
     34 C22        -0.5794   -5.2824   -2.0596 C.3       1 <0>         0.0994
     35 H2          1.0039    1.9031    0.0027 H         1 <0>         0.0577
     36 H3         -0.5459    1.8868   -0.8726 H         1 <0>         0.0559
     37 H4         -0.5289    1.8773    0.9072 H         1 <0>         0.0565
     38 H5          0.5293   -0.3651    0.8851 H         1 <0>         0.0665
     39 H6         -1.0205   -0.3814    0.0098 H         1 <0>         0.0628
     40 H7          0.1910   -0.1364   -2.1398 H         1 <0>         0.0831
     41 H8          1.7408   -0.1202   -1.2645 H         1 <0>         0.0935
     42 H9          5.4957   -5.2279    1.3950 H         1 <0>         0.1438
     43 H10         8.1628   -2.2958    2.9650 H         1 <0>         0.1492
     44 H11         6.6926   -0.4983    2.1608 H         1 <0>         0.1488
     45 H12         4.9489    0.6524    2.1922 H         1 <0>         0.0678
     46 H13         5.8306    0.6715    0.6460 H         1 <0>         0.0666
     47 H14         3.7463    1.3123   -0.5346 H         1 <0>         0.0692
     48 H15         2.8646    1.2931    1.0115 H         1 <0>         0.0720
     49 H16         4.1502    2.4927    0.7349 H         1 <0>         0.0796
     50 H17         9.4199   -7.3470    0.7005 H         1 <0>         0.0879
     51 H18         7.7185   -6.8131    0.6717 H         1 <0>         0.0935
     52 H19         8.8627   -6.6382   -1.5748 H         1 <0>         0.0901
     53 H20         8.2393   -5.0824   -0.9741 H         1 <0>         0.0394
     54 H21        11.4890   -3.7744   -0.0233 H         1 <0>         0.0905
     55 H22         9.7403   -3.4456   -0.0874 H         1 <0>         0.0393
     56 H23        10.3460   -3.9360    2.2206 H         1 <0>         0.0948
     57 H24        11.1569   -5.4449    1.7245 H         1 <0>         0.0867
     58 H25         9.9216   -4.0848   -2.5429 H         1 <0>         0.0257
     59 H26        11.6450   -4.4322   -2.2645 H         1 <0>         0.0713
     60 H27        10.5786   -5.6939   -2.9273 H         1 <0>         0.0713
     61 H28        -1.2781   -5.5834   -1.2791 H         1 <0>         0.0824
     62 H29        -1.1323   -5.0268   -2.9634 H         1 <0>         0.0965
     63 H30         0.1042   -6.1043   -2.2721 H         1 <0>         0.1003
@<TRIPOS>BOND
     1    1    2 1
     2    1   35 1
     3    1   36 1
     4    1   37 1
     5    2    3 1
     6    2   38 1
     7    2   39 1
     8    3    4 1
     9    3   40 1
    10    3   41 1
    11    4   33 2
    12    4    5 1
    13    5   12 1
    14    5    6 2
    15    6    7 1
    16    6   32 1
    17    7    8 2
    18    7    9 am
    19    9   10 1
    20    9   11 1
    21   11   12 2
    22   11   13 1
    23   13   18 ar
    24   13   14 ar
    25   14   15 ar
    26   14   42 1
    27   15   16 ar
    28   15   22 1
    29   16   17 ar
    30   16   43 1
    31   17   18 ar
    32   17   44 1
    33   18   19 1
    34   19   20 1
    35   20   21 1
    36   20   45 1
    37   20   46 1
    38   21   47 1
    39   21   48 1
    40   21   49 1
    41   22   23 2
    42   22   24 2
    43   22   25 1
    44   25   30 1
    45   25   26 1
    46   26   27 1
    47   26   50 1
    48   26   51 1
    49   27   28 1
    50   27   52 1
    51   27   53 1
    52   28   29 1
    53   28   31 1
    54   29   30 1
    55   29   54 1
    56   29   55 1
    57   30   56 1
    58   30   57 1
    59   31   58 1
    60   31   59 1
    61   31   60 1
    62   32   33 1
    63   32   34 1
    64   34   61 1
    65   34   62 1
    66   34   63 1
@<TRIPOS>MOLECULE
ZINC19796168
   63    66     0     0     0
SMALL
USER_CHARGES

@<TRIPOS>ATOM
      1 C1         -0.0187    1.5258    0.0104 C.3       1 <0>        -0.1539
      2 C2          0.0021   -0.0041    0.0020 C.3       1 <0>        -0.1188
      3 C3          0.7182   -0.4975   -1.2568 C.3       1 <0>        -0.0455
      4 C4          0.7386   -2.0043   -1.2651 C.2       1 <0>         0.0795
      5 C5          1.7371   -2.8090   -0.7054 C.2       1 <0>         0.0226
      6 C6          1.3740   -4.1350   -0.9304 C.2       1 <0>        -0.0270
      7 C7          2.2608   -5.1909   -0.4384 C.2       1 <0>         0.5560
      8 O1          1.9844   -6.3672   -0.6123 O.2       1 <0>        -0.4907
      9 N1          3.3842   -4.8398    0.2075 N.2       1 <0>        -0.5489
     10 C8          3.6977   -3.5767    0.4033 C.2       1 <0>         0.4949
     11 N2          2.9154   -2.5523   -0.0295 N.pl3     1 <0>        -0.5912
     12 C9          4.9471   -3.2598    1.1207 C.ar      1 <0>        -0.1387
     13 C10         5.3072   -1.9297    1.3507 C.ar      1 <0>         0.0502
     14 C11         6.4754   -1.6404    2.0219 C.ar      1 <0>        -0.7241
     15 C12         7.2958   -2.6630    2.4697 C.ar      1 <0>         0.0516
     16 C13         6.9520   -3.9820    2.2486 C.ar      1 <0>        -0.2347
     17 C14         5.7769   -4.2915    1.5805 C.ar      1 <0>         0.2542
     18 O2          5.4349   -5.5872    1.3679 O.3       1 <0>        -0.2513
     19 C15         6.3296   -6.5843    1.8652 C.3       1 <0>         0.0415
     20 C16         5.7806   -7.9733    1.5332 C.3       1 <0>        -0.1498
     21 S1          6.9282    0.0377    2.3112 S.o2      1 <0>         2.6935
     22 O3          8.3389    0.0542    2.4813 O.2       1 <0>        -0.9470
     23 O4          6.2716    0.8126    1.3174 O.2       1 <0>        -0.9501
     24 N3          6.2708    0.4783    3.7659 N.pl3     1 <0>        -0.9978
     25 C17         4.9211    1.0580    3.8397 C.3       1 <0>         0.1243
     26 C18         4.1139    0.2804    4.8848 C.3       1 <0>         0.0380
     27 N4          4.8523    0.2619    6.1546 N.3       1 <0>        -0.5392
     28 C19         6.1314   -0.4472    6.0169 C.3       1 <0>         0.0382
     29 C20         7.0189    0.2948    5.0189 C.3       1 <0>         0.1242
     30 C21         4.0386   -0.3238    7.2283 C.3       1 <0>         0.0243
     31 N5          0.1890   -4.1166   -1.6070 N.pl3     1 <0>        -0.3265
     32 N6         -0.1769   -2.7759   -1.7917 N.2       1 <0>        -0.2363
     33 C22        -0.5677   -5.2881   -2.0556 C.3       1 <0>         0.1018
     34 H1          1.0039    1.9031    0.0027 H         1 <0>         0.0587
     35 H2         -0.5459    1.8868   -0.8726 H         1 <0>         0.0584
     36 H3         -0.5289    1.8773    0.9072 H         1 <0>         0.0590
     37 H4          0.5293   -0.3651    0.8851 H         1 <0>         0.0617
     38 H5         -1.0205   -0.3814    0.0098 H         1 <0>         0.0685
     39 H6          0.1910   -0.1364   -2.1398 H         1 <0>         0.0924
     40 H7          1.7408   -0.1202   -1.2645 H         1 <0>         0.0851
     41 H8          4.6710   -1.1293    1.0027 H         1 <0>         0.1448
     42 H9          8.2097   -2.4272    2.9946 H         1 <0>         0.1511
     43 H10         7.5970   -4.7736    2.6002 H         1 <0>         0.1511
     44 H11         7.3075   -6.4595    1.4002 H         1 <0>         0.0690
     45 H12         6.4252   -6.4802    2.9460 H         1 <0>         0.0679
     46 H13         6.4630   -8.7339    1.9125 H         1 <0>         0.0796
     47 H14         4.8027   -8.0982    1.9981 H         1 <0>         0.0699
     48 H15         5.6850   -8.0774    0.4524 H         1 <0>         0.0705
     49 H16         4.9880    2.1054    4.1338 H         1 <0>         0.0882
     50 H17         4.4346    0.9780    2.8676 H         1 <0>         0.0929
     51 H18         3.1485    0.7644    5.0325 H         1 <0>         0.0901
     52 H19         3.9598   -0.7416    4.5387 H         1 <0>         0.0392
     53 H20         6.6291   -0.4910    6.9857 H         1 <0>         0.0908
     54 H21         5.9492   -1.4591    5.6551 H         1 <0>         0.0394
     55 H22         7.9186   -0.2894    4.8260 H         1 <0>         0.0949
     56 H23         7.2913    1.2675    5.4285 H         1 <0>         0.0873
     57 H24         3.7712   -1.3470    6.9645 H         1 <0>         0.0259
     58 H25         4.6091   -0.3253    8.1570 H         1 <0>         0.0715
     59 H26         3.1316    0.2663    7.3599 H         1 <0>         0.0715
     60 H27        -1.2651   -5.5910   -1.2745 H         1 <0>         0.0826
     61 H28        -1.1218   -5.0381   -2.9604 H         1 <0>         0.0959
     62 H29         0.1207   -6.1067   -2.2656 H         1 <0>         0.1018
     63 H30         3.1857   -1.6357    0.1370 H         1 <0>         0.4171
@<TRIPOS>BOND
     1    1    2 1
     2    1   34 1
     3    1   35 1
     4    1   36 1
     5    2    3 1
     6    2   37 1
     7    2   38 1
     8    3    4 1
     9    3   39 1
    10    3   40 1
    11    4   32 2
    12    4    5 1
    13    5   11 1
    14    5    6 2
    15    6    7 1
    16    6   31 1
    17    7    8 2
    18    7    9 1
    19    9   10 2
    20   10   11 1
    21   10   12 1
    22   11   63 1
    23   12   17 ar
    24   12   13 ar
    25   13   14 ar
    26   13   41 1
    27   14   15 ar
    28   14   21 1
    29   15   16 ar
    30   15   42 1
    31   16   17 ar
    32   16   43 1
    33   17   18 1
    34   18   19 1
    35   19   20 1
    36   19   44 1
    37   19   45 1
    38   20   46 1
    39   20   47 1
    40   20   48 1
    41   21   22 2
    42   21   23 2
    43   21   24 1
    44   24   29 1
    45   24   25 1
    46   25   26 1
    47   25   49 1
    48   25   50 1
    49   26   27 1
    50   26   51 1
    51   26   52 1
    52   27   28 1
    53   27   30 1
    54   28   29 1
    55   28   53 1
    56   28   54 1
    57   29   55 1
    58   29   56 1
    59   30   57 1
    60   30   58 1
    61   30   59 1
    62   31   32 1
    63   31   33 1
    64   33   60 1
    65   33   61 1
    66   33   62 1
@<TRIPOS>MOLECULE
ZINC19796168
   62    65     0     0     0
SMALL
USER_CHARGES

@<TRIPOS>ATOM
      1 C1         -0.0187    1.5258    0.0104 C.3       1 <0>        -0.1485
      2 C2          0.0021   -0.0041    0.0020 C.3       1 <0>        -0.1148
      3 C3         -1.4333   -0.5336    0.0129 C.3       1 <0>        -0.0265
      4 C4         -1.4129   -2.0405    0.0046 C.2       1 <0>         0.0755
      5 C5         -1.4070   -2.8569   -1.1475 C.ar      1 <0>         0.0668
      6 C6         -1.3869   -4.1920   -0.7014 C.ar      1 <0>        -0.0515
      7 C7         -1.3777   -5.2165   -1.6565 C.ar      1 <0>         0.4648
      8 O1         -1.3588   -6.5164   -1.2751 O.3       1 <0>        -0.6909
      9 N1         -1.3884   -4.8893   -2.9402 N.ar      1 <0>        -0.5725
     10 C8         -1.4074   -3.6162   -3.3266 C.ar      1 <0>         0.3612
     11 N2         -1.4163   -2.6161   -2.4630 N.ar      1 <0>        -0.5554
     12 C9         -1.4186   -3.3091   -4.7764 C.ar      1 <0>        -0.0636
     13 C10        -1.4328   -1.9850   -5.2116 C.ar      1 <0>         0.0543
     14 C11        -1.4432   -1.7045   -6.5622 C.ar      1 <0>        -0.7317
     15 C12        -1.4396   -2.7334   -7.4883 C.ar      1 <0>         0.0205
     16 C13        -1.4256   -4.0494   -7.0685 C.ar      1 <0>        -0.2451
     17 C14        -1.4092   -4.3463   -5.7145 C.ar      1 <0>         0.2216
     18 O2         -1.3897   -5.6394   -5.3005 O.3       1 <0>        -0.2427
     19 C15        -1.3811   -6.6454   -6.3153 C.3       1 <0>         0.0442
     20 C16        -1.3591   -8.0288   -5.6620 C.3       1 <0>        -0.1464
     21 S1         -1.4617   -0.0302   -7.1108 S.o2      1 <0>         2.6962
     22 O3         -2.0201   -0.0370   -8.4174 O.2       1 <0>        -0.9629
     23 O4         -2.0135    0.7385   -6.0505 O.2       1 <0>        -0.9522
     24 N3          0.1150    0.4496   -7.2724 N.pl3     1 <0>        -1.0004
     25 C17         0.8390    1.0557   -6.1447 C.3       1 <0>         0.1268
     26 C18         2.1670    0.3130   -5.9632 C.3       1 <0>         0.0372
     27 N4          2.8976    0.3041   -7.2376 N.3       1 <0>        -0.5398
     28 C19         2.1569   -0.4314   -8.2713 C.3       1 <0>         0.0376
     29 C20         0.8304    0.2753   -8.5456 C.3       1 <0>         0.1276
     30 C21         4.2487   -0.2463   -7.0660 C.3       1 <0>         0.0248
     31 N5         -1.3812   -4.1504    0.6672 N.pl3     1 <0>        -0.3678
     32 N6         -1.3920   -2.8055    1.0596 N.2       1 <0>        -0.2631
     33 C22        -1.3618   -5.3088    1.5638 C.3       1 <0>         0.1224
     34 H1          1.0039    1.9031    0.0027 H         1 <0>         0.0507
     35 H2         -0.5459    1.8868   -0.8726 H         1 <0>         0.0575
     36 H3         -0.5289    1.8773    0.9072 H         1 <0>         0.0512
     37 H4          0.5123   -0.3556   -0.8948 H         1 <0>         0.0656
     38 H5          0.5293   -0.3651    0.8851 H         1 <0>         0.0578
     39 H6         -1.9435   -0.1821    0.9097 H         1 <0>         0.0708
     40 H7         -1.9605   -0.1726   -0.8702 H         1 <0>         0.0861
     41 H8         -1.4360   -1.1795   -4.4922 H         1 <0>         0.1566
     42 H9         -1.4482   -2.5062   -8.5441 H         1 <0>         0.1359
     43 H10        -1.4233   -4.8477   -7.7959 H         1 <0>         0.1361
     44 H11        -2.2755   -6.5484   -6.9307 H         1 <0>         0.0581
     45 H12        -0.4957   -6.5243   -6.9395 H         1 <0>         0.0570
     46 H13        -1.3526   -8.7961   -6.4360 H         1 <0>         0.0694
     47 H14        -0.4647   -8.1258   -5.0466 H         1 <0>         0.0690
     48 H15        -2.2445   -8.1499   -5.0378 H         1 <0>         0.0696
     49 H16         1.0335    2.1070   -6.3571 H         1 <0>         0.0814
     50 H17         0.2427    0.9670   -5.2366 H         1 <0>         0.0979
     51 H18         2.7652    0.8176   -5.2045 H         1 <0>         0.0879
     52 H19         1.9704   -0.7122   -5.6495 H         1 <0>         0.0449
     53 H20         2.7478   -0.4666   -9.1865 H         1 <0>         0.0858
     54 H21         1.9605   -1.4462   -7.9254 H         1 <0>         0.0417
     55 H22         0.2284   -0.3292   -9.2240 H         1 <0>         0.0922
     56 H23         1.0240    1.2501   -8.9932 H         1 <0>         0.0807
     57 H24         4.1801   -1.2690   -6.6954 H         1 <0>         0.0264
     58 H25         4.7675   -0.2413   -8.0246 H         1 <0>         0.0675
     59 H26         4.8011    0.3631   -6.3508 H         1 <0>         0.0692
     60 H27        -0.3294   -5.5825    1.7815 H         1 <0>         0.0592
     61 H28        -1.8748   -5.0582    2.4923 H         1 <0>         0.0722
     62 H29        -1.8667   -6.1476    1.0847 H         1 <0>         0.0961
@<TRIPOS>BOND
     1    1    2 1
     2    1   34 1
     3    1   35 1
     4    1   36 1
     5    2    3 1
     6    2   37 1
     7    2   38 1
     8    3    4 1
     9    3   39 1
    10    3   40 1
    11    4   32 2
    12    4    5 1
    13    5   11 ar
    14    5    6 ar
    15    6    7 ar
    16    6   31 1
    17    7    8 1
    18    7    9 ar
    19    9   10 ar
    20   10   11 ar
    21   10   12 1
    22   12   17 ar
    23   12   13 ar
    24   13   14 ar
    25   13   41 1
    26   14   15 ar
    27   14   21 1
    28   15   16 ar
    29   15   42 1
    30   16   17 ar
    31   16   43 1
    32   17   18 1
    33   18   19 1
    34   19   20 1
    35   19   44 1
    36   19   45 1
    37   20   46 1
    38   20   47 1
    39   20   48 1
    40   21   22 2
    41   21   23 2
    42   21   24 1
    43   24   29 1
    44   24   25 1
    45   25   26 1
    46   25   49 1
    47   25   50 1
    48   26   27 1
    49   26   51 1
    50   26   52 1
    51   27   28 1
    52   27   30 1
    53   28   29 1
    54   28   53 1
    55   28   54 1
    56   29   55 1
    57   29   56 1
    58   30   57 1
    59   30   58 1
    60   30   59 1
    61   31   32 1
    62   31   33 1
    63   33   60 1
    64   33   61 1
    65   33   62 1
@<TRIPOS>MOLECULE
ZINC19796168
   64    67     0     0     0
SMALL
USER_CHARGES

@<TRIPOS>ATOM
      1 C1         -0.0187    1.5258    0.0104 C.3       1 <0>        -0.1524
      2 C2          0.0021   -0.0041    0.0020 C.3       1 <0>        -0.1163
      3 C3         -1.4333   -0.5336    0.0129 C.3       1 <0>        -0.0382
      4 C4         -1.4129   -2.0405    0.0046 C.2       1 <0>         0.1125
      5 C5         -1.4070   -2.8548   -1.1446 C.2       1 <0>         0.0358
      6 C6         -1.3861   -4.1841   -0.7032 C.2       1 <0>        -0.0303
      7 C7         -1.3769   -5.2214   -1.6643 C.2       1 <0>         0.5721
      8 O1         -1.3591   -6.3907   -1.3206 O.2       1 <0>        -0.5177
      9 N1         -1.3887   -4.8848   -2.9731 N.am      1 <0>        -0.6346
     10 H1         -1.3827   -5.5793   -3.6502 H         1 <0>         0.4185
     11 C8         -1.4095   -3.5686   -3.3476 C.2       1 <0>         0.3827
     12 N2         -1.4171   -2.5966   -2.4679 N.2       1 <0>        -0.4195
     13 C9         -1.4219   -3.2333   -4.7854 C.ar      1 <0>        -0.1025
     14 C10        -1.4183   -4.2493   -5.7432 C.ar      1 <0>         0.0333
     15 C11        -1.4299   -3.9298   -7.0842 C.ar      1 <0>        -0.7276
     16 C12        -1.4448   -2.6046   -7.4863 C.ar      1 <0>         0.0370
     17 C13        -1.4485   -1.5903   -6.5488 C.ar      1 <0>        -0.2285
     18 C14        -1.4433   -1.8942   -5.1961 C.ar      1 <0>         0.2470
     19 O2         -1.4527   -0.8984   -4.2738 O.3       1 <0>        -0.2539
     20 C15        -1.4745    0.4426   -4.7671 C.3       1 <0>         0.0414
     21 C16        -1.4823    1.4191   -3.5893 C.3       1 <0>        -0.1545
     22 S1         -1.4253   -5.2129   -8.2917 S.o2      1 <0>         2.6914
     23 O3         -0.8874   -4.6500   -9.4805 O.2       1 <0>        -0.9316
     24 O4         -0.8594   -6.3568   -7.6667 O.2       1 <0>        -0.9334
     25 N3         -3.0059   -5.5847   -8.6172 N.pl3     1 <0>        -1.0127
     26 C17        -3.7155   -6.6148   -7.8430 C.3       1 <0>         0.0947
     27 C18        -5.0462   -6.0287   -7.3599 C.3       1 <0>        -0.0248
     28 N4         -5.7976   -5.5098   -8.5098 N.4       1 <0>        -0.3832
     29 C19        -5.0699   -4.3889   -9.1182 C.3       1 <0>        -0.0235
     30 C20        -3.7420   -4.8899   -9.6846 C.3       1 <0>         0.0949
     31 C21        -7.1182   -5.0483   -8.0616 C.3       1 <0>        -0.0476
     32 N5         -1.3799   -4.1501    0.6637 N.pl3     1 <0>        -0.3251
     33 N6         -1.3920   -2.8068    1.0614 N.2       1 <0>        -0.2289
     34 C22        -1.3598   -5.3128    1.5547 C.3       1 <0>         0.0963
     35 H2          1.0039    1.9031    0.0027 H         1 <0>         0.0582
     36 H3         -0.5459    1.8868   -0.8726 H         1 <0>         0.0570
     37 H4         -0.5289    1.8773    0.9072 H         1 <0>         0.0575
     38 H5          0.5123   -0.3556   -0.8948 H         1 <0>         0.0655
     39 H6          0.5293   -0.3651    0.8851 H         1 <0>         0.0644
     40 H7         -1.9435   -0.1821    0.9097 H         1 <0>         0.0854
     41 H8         -1.9605   -0.1726   -0.8702 H         1 <0>         0.0931
     42 H9         -1.4060   -5.2840   -5.4339 H         1 <0>         0.1444
     43 H10        -1.4531   -2.3629   -8.5389 H         1 <0>         0.1495
     44 H11        -1.4598   -0.5592   -6.8698 H         1 <0>         0.1518
     45 H12        -0.5902    0.6189   -5.3794 H         1 <0>         0.0706
     46 H13        -2.3699    0.5934   -5.3701 H         1 <0>         0.0677
     47 H14        -1.4990    2.4420   -3.9655 H         1 <0>         0.0830
     48 H15        -2.3667    1.2428   -2.9770 H         1 <0>         0.0703
     49 H16        -0.5869    1.2683   -2.9863 H         1 <0>         0.0743
     50 H17        -3.9053   -7.4822   -8.4752 H         1 <0>         0.1071
     51 H18        -3.1115   -6.9087   -6.9845 H         1 <0>         0.1349
     52 H19        -5.6284   -6.8070   -6.8666 H         1 <0>         0.1469
     53 H20        -4.8527   -5.2186   -6.6568 H         1 <0>         0.1345
     54 H21        -5.6695   -3.9589   -9.9204 H         1 <0>         0.1472
     55 H22        -4.8756   -3.6285   -8.3618 H         1 <0>         0.1345
     56 H23        -3.1556   -4.0439  -10.0432 H         1 <0>         0.1362
     57 H24        -3.9345   -5.5801  -10.5059 H         1 <0>         0.1058
     58 H25        -6.9949   -4.2582   -7.3209 H         1 <0>         0.1220
     59 H26        -7.6771   -4.6629   -8.9144 H         1 <0>         0.1268
     60 H27        -7.6626   -5.8814   -7.6170 H         1 <0>         0.1264
     61 H28        -0.3273   -5.5873    1.7707 H         1 <0>         0.0857
     62 H29        -1.8725   -5.0668    2.4846 H         1 <0>         0.0997
     63 H30        -1.8648   -6.1494    1.0718 H         1 <0>         0.1010
     64 H31        -5.9143   -6.2436   -9.1925 H         1 <0>         0.4277
@<TRIPOS>BOND
     1    1    2 1
     2    1   35 1
     3    1   36 1
     4    1   37 1
     5    2    3 1
     6    2   38 1
     7    2   39 1
     8    3    4 1
     9    3   40 1
    10    3   41 1
    11    4   33 2
    12    4    5 1
    13    5   12 1
    14    5    6 2
    15    6    7 1
    16    6   32 1
    17    7    8 2
    18    7    9 am
    19    9   10 1
    20    9   11 1
    21   11   12 2
    22   11   13 1
    23   13   18 ar
    24   13   14 ar
    25   14   15 ar
    26   14   42 1
    27   15   16 ar
    28   15   22 1
    29   16   17 ar
    30   16   43 1
    31   17   18 ar
    32   17   44 1
    33   18   19 1
    34   19   20 1
    35   20   21 1
    36   20   45 1
    37   20   46 1
    38   21   47 1
    39   21   48 1
    40   21   49 1
    41   22   23 2
    42   22   24 2
    43   22   25 1
    44   25   30 1
    45   25   26 1
    46   26   27 1
    47   26   50 1
    48   26   51 1
    49   27   28 1
    50   27   52 1
    51   27   53 1
    52   28   29 1
    53   28   31 1
    54   28   64 1
    55   29   30 1
    56   29   54 1
    57   29   55 1
    58   30   56 1
    59   30   57 1
    60   31   58 1
    61   31   59 1
    62   31   60 1
    63   32   33 1
    64   32   34 1
    65   34   61 1
    66   34   62 1
    67   34   63 1
@<TRIPOS>MOLECULE
ZINC03918592
   45    47     0     0     0
SMALL
USER_CHARGES
2-(3,4-dihydroxyphenyl)-3,5,7-trihydroxy-8-(3-methylbut-2-enyl)chromen-4-one
@<TRIPOS>ATOM
      1 C1         -0.0655   -6.5252    6.4398 C.3       1 <0>        -0.1240
      2 C2         -1.1803   -6.0924    5.5227 C.2       1 <0>        -0.1238
      3 C3         -0.9300   -5.8379    4.2623 C.2       1 <0>        -0.1663
      4 C4          0.4431   -6.0993    3.6990 C.3       1 <0>        -0.0465
      5 C5          0.3358   -7.0499    2.5346 C.ar      1 <0>        -0.1324
      6 C6          0.4155   -8.4175    2.7473 C.ar      1 <0>         0.1955
      7 C7          0.3187   -9.3073    1.6831 C.ar      1 <0>        -0.2006
      8 C8          0.1405   -8.8345    0.3962 C.ar      1 <0>         0.2158
      9 C9          0.0581   -7.4538    0.1737 C.ar      1 <0>        -0.2580
     10 C10         0.1568   -6.5563    1.2515 C.ar      1 <0>         0.1797
     11 O1          0.0822   -5.2275    1.0278 O.3       1 <0>        -0.2010
     12 C11        -0.0961   -4.7147   -0.2018 C.2       1 <0>         0.1695
     13 C12        -0.2033   -5.4977   -1.3117 C.2       1 <0>        -0.0690
     14 C13        -0.1315   -6.9088   -1.1800 C.2       1 <0>         0.4084
     15 O2         -0.2231   -7.6418   -2.1518 O.2       1 <0>        -0.4360
     16 O3         -0.3773   -4.9311   -2.5367 O.3       1 <0>        -0.4560
     17 C14        -0.1727   -3.2503   -0.3560 C.ar      1 <0>        -0.0667
     18 C15         0.7856   -2.4312    0.2475 C.ar      1 <0>        -0.0691
     19 C16         0.7152   -1.0628    0.0977 C.ar      1 <0>        -0.1370
     20 C17        -0.3122   -0.4943   -0.6423 C.ar      1 <0>         0.1111
     21 C18        -1.2715   -1.3048   -1.2465 C.ar      1 <0>         0.0782
     22 C19        -1.2042   -2.6777   -1.1056 C.ar      1 <0>        -0.0713
     23 O4         -2.2738   -0.7444   -1.9752 O.3       1 <0>        -0.4875
     24 O5         -0.3796    0.8555   -0.7828 O.3       1 <0>        -0.4904
     25 O6          0.0457   -9.7014   -0.6437 O.3       1 <0>        -0.4728
     26 O7          0.5904   -8.8927    4.0069 O.3       1 <0>        -0.4829
     27 C20        -2.5830   -5.9525    6.0556 C.3       1 <0>        -0.1201
     28 H1          0.7393   -5.7909    6.4051 H         1 <0>         0.0671
     29 H2         -0.4431   -6.6025    7.4594 H         1 <0>         0.0614
     30 H3          0.3136   -7.4953    6.1183 H         1 <0>         0.0729
     31 H4         -1.7077   -5.4406    3.6268 H         1 <0>         0.1085
     32 H5          1.0745   -6.5398    4.4706 H         1 <0>         0.0952
     33 H6          0.8825   -5.1604    3.3622 H         1 <0>         0.0856
     34 H7          0.3831  -10.3704    1.8622 H         1 <0>         0.1510
     35 H8          0.4485   -4.7332   -2.9994 H         1 <0>         0.3868
     36 H9          1.5838   -2.8707    0.8273 H         1 <0>         0.1387
     37 H10         1.4591   -0.4312    0.5605 H         1 <0>         0.1434
     38 H11        -1.9471   -3.3069   -1.5733 H         1 <0>         0.1473
     39 H12        -2.0636   -0.6327   -2.9124 H         1 <0>         0.3970
     40 H13        -0.8993    1.2968   -0.0971 H         1 <0>         0.3994
     41 H14         0.8942   -9.9178   -1.0539 H         1 <0>         0.4032
     42 H15        -0.2350   -9.0645    4.4805 H         1 <0>         0.4017
     43 H16        -3.2467   -5.6331    5.2521 H         1 <0>         0.0602
     44 H17        -2.9208   -6.9125    6.4459 H         1 <0>         0.0680
     45 H18        -2.5960   -5.2107    6.8541 H         1 <0>         0.0659
@<TRIPOS>BOND
     1    1    2 1
     2    1   28 1
     3    1   29 1
     4    1   30 1
     5    2    3 2
     6    2   27 1
     7    3    4 1
     8    3   31 1
     9    4    5 1
    10    4   32 1
    11    4   33 1
    12    5   10 ar
    13    5    6 ar
    14    6    7 ar
    15    6   26 1
    16    7    8 ar
    17    7   34 1
    18    8    9 ar
    19    8   25 1
    20    9   14 1
    21    9   10 ar
    22   10   11 1
    23   11   12 1
    24   12   13 2
    25   12   17 1
    26   13   14 1
    27   13   16 1
    28   14   15 2
    29   16   35 1
    30   17   22 ar
    31   17   18 ar
    32   18   19 ar
    33   18   36 1
    34   19   20 ar
    35   19   37 1
    36   20   21 ar
    37   20   24 1
    38   21   22 ar
    39   21   23 1
    40   22   38 1
    41   23   39 1
    42   24   40 1
    43   25   41 1
    44   26   42 1
    45   27   43 1
    46   27   44 1
    47   27   45 1
@<TRIPOS>MOLECULE
ZINC04116964
   35    37     0     0     0
SMALL
USER_CHARGES

@<TRIPOS>ATOM
      1 C1         -0.8487    1.5063   -0.0599 C.3       1 <0>        -0.0858
      2 C2         -0.8485   -0.0007   -0.0670 C.2       1 <0>         0.1450
      3 C3         -0.6405   -0.6839   -1.2336 C.2       1 <0>        -0.1753
      4 S1         -0.7459   -2.3713   -0.6508 S.3       1 <0>         0.0100
      5 C4         -1.0530   -1.9915    1.0689 C.2       1 <0>         0.3828
      6 N1         -1.0431   -0.6686    1.0503 N.2       1 <0>        -0.5754
      7 N2         -1.2447   -2.8529    2.1373 N.pl3     1 <0>        -0.7925
      8 C5         -0.3965   -0.1696   -2.5987 C.2       1 <0>         0.2027
      9 C6         -0.2158   -1.0354   -3.6419 C.2       1 <0>        -0.2483
     10 S2          0.0282    0.1127   -4.9905 S.3       1 <0>         0.0205
     11 C7         -0.1332    1.6169   -4.0390 C.2       1 <0>         0.3724
     12 N3         -0.3556    1.1415   -2.8270 N.2       1 <0>        -0.5508
     13 N4         -0.0523    2.9340   -4.4622 N.pl3     1 <0>        -0.6003
     14 C8          0.0408    3.2260   -5.8283 C.ar      1 <0>         0.1318
     15 C9         -0.5485    2.3847   -6.7611 C.ar      1 <0>        -0.1240
     16 C10        -0.4552    2.6750   -8.1091 C.ar      1 <0>        -0.1170
     17 C11         0.2248    3.8024   -8.5315 C.ar      1 <0>        -0.0957
     18 C12         0.8150    4.6452   -7.6078 C.ar      1 <0>        -0.1774
     19 C13         0.7205    4.3651   -6.2545 C.ar      1 <0>         0.1049
     20 O1          1.2953    5.1964   -5.3445 O.3       1 <0>        -0.3177
     21 C14         1.9756    6.3451   -5.8541 C.3       1 <0>         0.0280
     22 H1          0.1637    1.8689    0.1182 H         1 <0>         0.0719
     23 H2         -1.2022    1.8741   -1.0232 H         1 <0>         0.0989
     24 H3         -1.5077    1.8659    0.7304 H         1 <0>         0.0650
     25 H4         -1.2204   -3.8124    1.9971 H         1 <0>         0.4221
     26 H5         -1.4031   -2.4963    3.0253 H         1 <0>         0.4189
     27 H6         -0.2192   -2.1154   -3.6491 H         1 <0>         0.1933
     28 H7         -0.0600    3.6537   -3.8119 H         1 <0>         0.4306
     29 H8         -1.0796    1.5030   -6.4340 H         1 <0>         0.1394
     30 H9         -0.9142    2.0195   -8.8344 H         1 <0>         0.1339
     31 H10         0.2955    4.0251   -9.5860 H         1 <0>         0.1317
     32 H11         1.3460    5.5246   -7.9412 H         1 <0>         0.1368
     33 H12         2.7844    6.0264   -6.5116 H         1 <0>         0.0582
     34 H13         1.2745    6.9639   -6.4141 H         1 <0>         0.0582
     35 H14         2.3867    6.9212   -5.0252 H         1 <0>         0.1033
@<TRIPOS>BOND
     1    1    2 1
     2    1   22 1
     3    1   23 1
     4    1   24 1
     5    2    6 1
     6    2    3 2
     7    3    4 1
     8    3    8 1
     9    4    5 1
    10    5    6 2
    11    5    7 1
    12    7   25 1
    13    7   26 1
    14    8   12 1
    15    8    9 2
    16    9   10 1
    17    9   27 1
    18   10   11 1
    19   11   12 2
    20   11   13 1
    21   13   14 1
    22   13   28 1
    23   14   19 ar
    24   14   15 ar
    25   15   16 ar
    26   15   29 1
    27   16   17 ar
    28   16   30 1
    29   17   18 ar
    30   17   31 1
    31   18   19 ar
    32   18   32 1
    33   19   20 1
    34   20   21 1
    35   21   33 1
    36   21   34 1
    37   21   35 1
@<TRIPOS>MOLECULE
ZINC19851562
   43    45     0     0     0
SMALL
USER_CHARGES
2-[(6-amino-3,5-dicyano-4-phenyl-2-pyridyl)sulfanyl]-N-(4-fluorophenyl)acetamide
@<TRIPOS>ATOM
      1 C1         -3.6884    3.5423    0.0158 C.ar      1 <0>        -0.1000
      2 C2         -2.8291    3.6350    1.0962 C.ar      1 <0>        -0.1170
      3 C3         -1.6354    2.9433    1.0933 C.ar      1 <0>        -0.0872
      4 C4         -1.2955    2.1489   -0.0025 C.ar      1 <0>        -0.0883
      5 C5         -2.1641    2.0639   -1.0913 C.ar      1 <0>        -0.0865
      6 C6         -3.3575    2.7561   -1.0735 C.ar      1 <0>        -0.1163
      7 C7         -0.0166    1.4048   -0.0125 C.ar      1 <0>         0.1610
      8 C8          1.2177    2.0846   -0.0295 C.ar      1 <0>        -0.1603
      9 C9          2.4085    1.3351   -0.0439 C.ar      1 <0>         0.5026
     10 N1          2.3797    0.0119   -0.0421 N.ar      1 <0>        -0.5548
     11 C10         1.2434   -0.6684   -0.0268 C.ar      1 <0>         0.2251
     12 C11         0.0024   -0.0035   -0.0112 C.ar      1 <0>        -0.1208
     13 C12        -1.2211   -0.7474    0.0063 C.1       1 <0>         0.2544
     14 N2         -2.1917   -1.3375    0.0201 N.1       1 <0>        -0.3893
     15 S1          1.2854   -2.4299   -0.0253 S.3       1 <0>         0.0694
     16 C13         3.0748   -2.7017   -0.0486 C.3       1 <0>        -0.1545
     17 C14         3.3581   -4.1818   -0.0507 C.2       1 <0>         0.5313
     18 O1          2.4405   -4.9749   -0.0377 O.2       1 <0>        -0.5060
     19 N3          4.6310   -4.6243   -0.0670 N.am      1 <0>        -0.6778
     20 C15         4.8969   -5.9957    0.0288 C.ar      1 <0>         0.1359
     21 C16         6.0241   -6.4397    0.7072 C.ar      1 <0>        -0.1137
     22 C17         6.2814   -7.7931    0.8055 C.ar      1 <0>        -0.1349
     23 C18         5.4223   -8.7066    0.2182 C.ar      1 <0>         0.0856
     24 C19         4.3006   -8.2657   -0.4637 C.ar      1 <0>        -0.1339
     25 C20         4.0366   -6.9134   -0.5593 C.ar      1 <0>        -0.0935
     26 F1          5.6785  -10.0298    0.3111 F         1 <0>        -0.1384
     27 N4          3.6241    1.9892   -0.0602 N.pl3     1 <0>        -0.8446
     28 C21         1.2595    3.5160   -0.0322 C.1       1 <0>         0.2584
     29 N5          1.2926    4.6515   -0.0342 N.1       1 <0>        -0.4038
     30 H1         -4.6217    4.0857    0.0229 H         1 <0>         0.1284
     31 H2         -3.0932    4.2504    1.9435 H         1 <0>         0.1301
     32 H3         -0.9656    3.0162    1.9374 H         1 <0>         0.1267
     33 H4         -1.9049    1.4540   -1.9441 H         1 <0>         0.1280
     34 H5         -4.0327    2.6876   -1.9137 H         1 <0>         0.1307
     35 H6          3.5033   -2.2451   -0.9530 H         1 <0>         0.1346
     36 H7          3.5270   -2.2431    0.8431 H         1 <0>         0.1347
     37 H8          5.4612   -3.9081   -0.1556 H         1 <0>         0.4406
     38 H9          6.6968   -5.7273    1.1616 H         1 <0>         0.1374
     39 H10         7.1555   -8.1390    1.3372 H         1 <0>         0.1406
     40 H11         3.6316   -8.9797   -0.9207 H         1 <0>         0.1401
     41 H12         3.1615   -6.5699   -1.0910 H         1 <0>         0.1489
     42 H13         4.5597    1.4109   -0.0715 H         1 <0>         0.4387
     43 H14         3.6571    3.0887   -0.0619 H         1 <0>         0.4387
@<TRIPOS>BOND
     1    1    6 ar
     2    1    2 ar
     3    1   30 1
     4    2    3 ar
     5    2   31 1
     6    3    4 ar
     7    3   32 1
     8    4    5 ar
     9    4    7 1
    10    5    6 ar
    11    5   33 1
    12    6   34 1
    13    7   12 ar
    14    7    8 ar
    15    8    9 ar
    16    8   28 1
    17    9   10 ar
    18    9   27 1
    19   10   11 ar
    20   11   12 ar
    21   11   15 1
    22   12   13 1
    23   13   14 3
    24   15   16 1
    25   16   17 1
    26   16   35 1
    27   16   36 1
    28   17   18 2
    29   17   19 am
    30   19   20 1
    31   19   37 1
    32   20   25 ar
    33   20   21 ar
    34   21   22 ar
    35   21   38 1
    36   22   23 ar
    37   22   39 1
    38   23   24 ar
    39   23   26 1
    40   24   25 ar
    41   24   40 1
    42   25   41 1
    43   27   42 1
    44   27   43 1
    45   28   29 3
@<TRIPOS>MOLECULE
ZINC08448503
   38    40     0     0     0
SMALL
USER_CHARGES
4-[[3-cyano-6-(2-thienyl)-4-(trifluoromethyl)-2-pyridyl]sulfanylmethyl]benzoic acid
@<TRIPOS>ATOM
      1 C1         -4.8945    4.6801    0.0725 C.2       1 <0>        -0.1664
      2 C2         -3.8022    3.8446    0.0576 C.2       1 <0>        -0.0864
      3 C3         -2.5478    4.3996    0.0486 C.2       1 <0>        -0.1479
      4 S1         -2.9185    6.1460    0.0688 S.3       1 <0>         0.0858
      5 C4         -4.6997    6.0256    0.0779 C.2       1 <0>        -0.1506
      6 C5         -1.2351    3.7287    0.0330 C.ar      1 <0>         0.2759
      7 C6         -0.0678    4.4987    0.0260 C.ar      1 <0>        -0.1354
      8 C7          1.1513    3.8763    0.0114 C.ar      1 <0>        -0.0667
      9 C8          1.1897    2.4743    0.0040 C.ar      1 <0>        -0.0277
     10 C9         -0.0218    1.7577    0.0117 C.ar      1 <0>         0.1726
     11 N1         -1.1784    2.4000    0.0207 N.ar      1 <0>        -0.4573
     12 S2          0.0021   -0.0041    0.0020 S.3       1 <0>        -0.0041
     13 C10        -1.7759   -0.3426    0.0172 C.3       1 <0>        -0.0525
     14 C11        -2.0037   -1.8323    0.0114 C.ar      1 <0>        -0.1047
     15 C12        -2.1250   -2.5057   -1.1913 C.ar      1 <0>        -0.1154
     16 C13        -2.3287   -3.8700   -1.2040 C.ar      1 <0>        -0.0787
     17 C14        -2.4232   -4.5697    0.0007 C.ar      1 <0>        -0.0981
     18 C15        -2.3052   -3.8830    1.2107 C.ar      1 <0>        -0.0877
     19 C16        -2.0963   -2.5195    1.2087 C.ar      1 <0>        -0.1145
     20 C17        -2.6465   -6.0299   -0.0051 C.2       1 <0>         0.4864
     21 O1         -2.7279   -6.6360    1.0445 O.co2     1 <0>        -0.6286
     22 C18         2.4432    1.7820   -0.0108 C.1       1 <0>         0.2325
     23 N2          3.4375    1.2328   -0.0224 N.1       1 <0>        -0.3554
     24 C19         2.4256    4.6807    0.0031 C.3       1 <0>         0.5093
     25 F1          2.1160    6.0450    0.0129 F         1 <0>        -0.1651
     26 F2          3.1831    4.3662    1.1364 F         1 <0>        -0.1639
     27 F3          3.1609    4.3777   -1.1480 F         1 <0>        -0.1640
     28 H1         -5.8945    4.2724    0.0801 H         1 <0>         0.1433
     29 H2         -3.9296    2.7722    0.0527 H         1 <0>         0.1478
     30 H3         -5.4336    6.8178    0.0894 H         1 <0>         0.1930
     31 H4         -0.1277    5.5770    0.0323 H         1 <0>         0.1616
     32 H5         -2.2204    0.0894    0.9138 H         1 <0>         0.1052
     33 H6         -2.2374    0.0990   -0.8661 H         1 <0>         0.1056
     34 H7         -2.0558   -1.9626   -2.1222 H         1 <0>         0.1195
     35 H8         -2.4187   -4.3951   -2.1434 H         1 <0>         0.1342
     36 H9         -2.3770   -4.4182    2.1460 H         1 <0>         0.1303
     37 H10        -2.0045   -1.9871    2.1439 H         1 <0>         0.1192
     38 O2         -2.7599   -6.6894   -1.1742 O.co2     1 <0>        -0.7513
@<TRIPOS>BOND
     1    1    5 2
     2    1    2 1
     3    1   28 1
     4    2    3 2
     5    2   29 1
     6    3    4 1
     7    3    6 1
     8    4    5 1
     9    5   30 1
    10    6   11 ar
    11    6    7 ar
    12    7    8 ar
    13    7   31 1
    14    8    9 ar
    15    8   24 1
    16    9   10 ar
    17    9   22 1
    18   10   11 ar
    19   10   12 1
    20   12   13 1
    21   13   14 1
    22   13   32 1
    23   13   33 1
    24   14   19 ar
    25   14   15 ar
    26   15   16 ar
    27   15   34 1
    28   16   17 ar
    29   16   35 1
    30   17   18 ar
    31   17   20 1
    32   18   19 ar
    33   18   36 1
    34   19   37 1
    35   20   21 2
    36   20   38 1
    37   22   23 3
    38   24   25 1
    39   24   26 1
    40   24   27 1
@<TRIPOS>MOLECULE
ZINC01268606
   44    47     0     0     0
SMALL
USER_CHARGES

@<TRIPOS>ATOM
      1 C1         -0.0178    1.4608    0.0101 C.3       1 <0>         0.0894
      2 N1          0.0021   -0.0041    0.0020 N.pl3     1 <0>        -0.5096
      3 C2         -1.1762   -0.7118    0.0037 C.2       1 <0>         0.3015
      4 C3         -1.1132   -2.1130   -0.0047 C.2       1 <0>        -0.1646
      5 C4          0.1307   -2.7317   -0.0140 C.2       1 <0>         0.5260
      6 O1          0.2196   -4.0818   -0.0227 O.3       1 <0>        -0.6884
      7 N2          1.2380   -1.9852   -0.0147 N.2       1 <0>        -0.6313
      8 C5          1.1844   -0.6712   -0.0129 C.2       1 <0>         0.6260
      9 O2          2.3352    0.0327   -0.0200 O.3       1 <0>        -0.6892
     10 N3         -2.4301   -2.5606   -0.0008 N.pl3     1 <0>        -0.4287
     11 C6         -3.2173   -1.4646    0.0094 C.2       1 <0>         0.4371
     12 N4         -2.4620   -0.3723    0.0120 N.2       1 <0>        -0.5452
     13 S1         -4.9292   -1.4799    0.0168 S.2       1 <0>        -0.8039
     14 C7         -2.8772   -3.9557   -0.0067 C.3       1 <0>         0.1036
     15 C8         -3.0258   -4.4497    1.4337 C.3       1 <0>         0.1049
     16 H1         -3.7599   -3.8351    1.9547 H         1 <0>         0.1122
     17 C9         -3.4927   -5.9067    1.4276 C.3       1 <0>         0.0331
     18 O3         -3.7434   -6.3322    2.7686 O.3       1 <0>        -0.2956
     19 C10        -4.1684   -7.6113    2.9406 C.ar      1 <0>         0.1482
     20 C11        -4.3332   -8.4396    1.8259 C.ar      1 <0>        -0.1839
     21 C12        -4.7571   -9.7241    1.9660 C.ar      1 <0>        -0.0705
     22 C13        -5.0342  -10.2310    3.2477 C.ar      1 <0>        -0.0898
     23 C14        -5.4734  -11.5535    3.4288 C.ar      1 <0>        -0.0914
     24 C15        -5.7322  -12.0116    4.6840 C.ar      1 <0>        -0.1396
     25 C16        -5.5684  -11.1883    5.7965 C.ar      1 <0>        -0.1132
     26 C17        -5.1449   -9.9022    5.6599 C.ar      1 <0>        -0.1132
     27 C18        -4.8676   -9.3935    4.3791 C.ar      1 <0>        -0.0098
     28 C19        -4.4237   -8.0730    4.2003 C.ar      1 <0>        -0.1662
     29 O4         -1.7660   -4.3560    2.1017 O.3       1 <0>        -0.5433
     30 H2          1.0048    1.8381    0.0023 H         1 <0>         0.0893
     31 H3         -0.5450    1.8219   -0.8730 H         1 <0>         0.0522
     32 H4         -0.5280    1.8123    0.9069 H         1 <0>         0.0525
     33 H5         -3.8381   -4.0271   -0.5162 H         1 <0>         0.0978
     34 H6         -2.1431   -4.5703   -0.5277 H         1 <0>         0.0946
     35 H7         -4.4082   -5.9924    0.8421 H         1 <0>         0.0734
     36 H8         -2.7188   -6.5344    0.9859 H         1 <0>         0.0687
     37 H9         -4.1212   -8.0535    0.8398 H         1 <0>         0.1343
     38 H10        -4.8806  -10.3522    1.0962 H         1 <0>         0.1297
     39 H11        -5.6052  -12.2031    2.5761 H         1 <0>         0.1227
     40 H12        -6.0699  -13.0284    4.8199 H         1 <0>         0.1172
     41 H13        -5.7811  -11.5765    6.7816 H         1 <0>         0.1185
     42 H14        -5.0228   -9.2755    6.5310 H         1 <0>         0.1259
     43 H15        -4.2885   -7.4252    5.0539 H         1 <0>         0.1351
     44 H16        -1.0636   -4.8791    1.6917 H         1 <0>         0.3833
@<TRIPOS>BOND
     1    1    2 1
     2    1   30 1
     3    1   31 1
     4    1   32 1
     5    2    8 1
     6    2    3 1
     7    3   12 2
     8    3    4 1
     9    4    5 2
    10    4   10 1
    11    5    6 1
    12    5    7 1
    13    7    8 2
    14    8    9 1
    15   10   11 1
    16   10   14 1
    17   11   12 1
    18   11   13 2
    19   14   15 1
    20   14   33 1
    21   14   34 1
    22   15   16 1
    23   15   17 1
    24   15   29 1
    25   17   18 1
    26   17   35 1
    27   17   36 1
    28   18   19 1
    29   19   28 ar
    30   19   20 ar
    31   20   21 ar
    32   20   37 1
    33   21   22 ar
    34   21   38 1
    35   22   27 ar
    36   22   23 ar
    37   23   24 ar
    38   23   39 1
    39   24   25 ar
    40   24   40 1
    41   25   26 ar
    42   25   41 1
    43   26   27 ar
    44   26   42 1
    45   27   28 ar
    46   28   43 1
    47   29   44 1
@<TRIPOS>MOLECULE
ZINC01268606
   46    49     0     0     0
SMALL
USER_CHARGES

@<TRIPOS>ATOM
      1 C1         -0.0178    1.4608    0.0101 C.3       1 <0>         0.0614
      2 N1          0.0021   -0.0041    0.0020 N.am      1 <0>        -0.5143
      3 C2         -1.1819   -0.7055    0.0038 C.2       1 <0>         0.3525
      4 N2         -2.4984   -0.3239    0.0129 N.pl3     1 <0>        -0.5498
      5 C3         -3.2703   -1.4274    0.0107 C.2       1 <0>         0.4918
      6 S1         -4.9822   -1.4441    0.0187 S.2       1 <0>        -0.5499
      7 N3         -2.4759   -2.5168    0.0002 N.pl3     1 <0>        -0.4083
      8 C4         -1.1498   -2.0732   -0.0042 C.2       1 <0>        -0.1040
      9 C5          0.0953   -2.7333   -0.0146 C.2       1 <0>         0.5946
     10 N4          1.2296   -2.0027   -0.0164 N.am      1 <0>        -0.6458
     11 C6          1.1785   -0.6585   -0.0127 C.2       1 <0>         0.7151
     12 O1          2.2148   -0.0223   -0.0188 O.2       1 <0>        -0.5120
     13 O2          0.1469   -3.9509   -0.0215 O.2       1 <0>        -0.4907
     14 C7         -2.9215   -3.9124   -0.0055 C.3       1 <0>         0.0845
     15 C8         -3.0836   -4.3902   -1.4499 C.3       1 <0>         0.0999
     16 H1         -2.1278   -4.3118   -1.9680 H         1 <0>         0.1149
     17 C9         -3.5489   -5.8477   -1.4559 C.3       1 <0>         0.0317
     18 O3         -3.5884   -6.3296   -2.8006 O.3       1 <0>        -0.3002
     19 C10        -3.9841   -7.6167   -2.9833 C.ar      1 <0>         0.1314
     20 C11        -4.3334   -8.3951   -1.8752 C.ar      1 <0>        -0.1912
     21 C12        -4.7333   -9.6861   -2.0260 C.ar      1 <0>        -0.0633
     22 C13        -4.7985  -10.2501   -3.3121 C.ar      1 <0>        -0.0843
     23 C14        -5.2080  -11.5806   -3.5041 C.ar      1 <0>        -0.0945
     24 C15        -5.2600  -12.0945   -4.7634 C.ar      1 <0>        -0.1282
     25 C16        -4.9127  -11.3206   -5.8693 C.ar      1 <0>        -0.1045
     26 C17        -4.5116  -10.0286   -5.7220 C.ar      1 <0>        -0.1154
     27 C18        -4.4454   -9.4629   -4.4368 C.ar      1 <0>        -0.0131
     28 C19        -4.0410   -8.1313   -4.2470 C.ar      1 <0>        -0.1517
     29 O4         -4.0535   -3.5778   -2.1143 O.3       1 <0>        -0.5393
     30 H2          1.0048    1.8381    0.0023 H         1 <0>         0.1207
     31 H3         -0.5450    1.8219   -0.8730 H         1 <0>         0.0872
     32 H4         -0.5280    1.8123    0.9069 H         1 <0>         0.0872
     33 H5         -2.1816   -4.5321    0.5013 H         1 <0>         0.1239
     34 H6         -3.8773   -3.9908    0.5126 H         1 <0>         0.1247
     35 H7         -2.8546   -6.4531   -0.8732 H         1 <0>         0.0770
     36 H8         -4.5445   -5.9130   -1.0171 H         1 <0>         0.0742
     37 H9         -4.2845   -7.9651   -0.8857 H         1 <0>         0.1299
     38 H10        -4.9994  -10.2758   -1.1612 H         1 <0>         0.1325
     39 H11        -5.4797  -12.1924   -2.6567 H         1 <0>         0.1269
     40 H12        -5.5747  -13.1175   -4.9077 H         1 <0>         0.1234
     41 H13        -4.9624  -11.7529   -6.8578 H         1 <0>         0.1242
     42 H14        -4.2452   -9.4409   -6.5881 H         1 <0>         0.1283
     43 H15        -3.7731   -7.5190   -5.0954 H         1 <0>         0.1351
     44 H16        -4.9301   -3.5992   -1.7066 H         1 <0>         0.3862
     45 H17         2.0898   -2.4509   -0.0231 H         1 <0>         0.4472
     46 H18        -2.8211    0.5908    0.0204 H         1 <0>         0.4540
@<TRIPOS>BOND
     1    1    2 1
     2    1   30 1
     3    1   31 1
     4    1   32 1
     5    2   11 am
     6    2    3 1
     7    3    8 2
     8    3    4 1
     9    4    5 1
    10    4   46 1
    11    5    6 2
    12    5    7 1
    13    7    8 1
    14    7   14 1
    15    8    9 1
    16    9   10 am
    17    9   13 2
    18   10   11 am
    19   10   45 1
    20   11   12 2
    21   14   15 1
    22   14   33 1
    23   14   34 1
    24   15   16 1
    25   15   17 1
    26   15   29 1
    27   17   18 1
    28   17   35 1
    29   17   36 1
    30   18   19 1
    31   19   28 ar
    32   19   20 ar
    33   20   21 ar
    34   20   37 1
    35   21   22 ar
    36   21   38 1
    37   22   27 ar
    38   22   23 ar
    39   23   24 ar
    40   23   39 1
    41   24   25 ar
    42   24   40 1
    43   25   26 ar
    44   25   41 1
    45   26   27 ar
    46   26   42 1
    47   27   28 ar
    48   28   43 1
    49   29   44 1
@<TRIPOS>MOLECULE
ZINC05447786
   44    47     0     0     0
SMALL
USER_CHARGES

@<TRIPOS>ATOM
      1 C1         -0.0178    1.4608    0.0101 C.3       1 <0>         0.0894
      2 N1          0.0021   -0.0041    0.0020 N.pl3     1 <0>        -0.5100
      3 C2         -1.1762   -0.7118    0.0037 C.2       1 <0>         0.3082
      4 C3         -1.1132   -2.1130   -0.0047 C.2       1 <0>        -0.1820
      5 C4          0.1307   -2.7317   -0.0140 C.2       1 <0>         0.5182
      6 O1          0.2196   -4.0818   -0.0227 O.3       1 <0>        -0.6861
      7 N2          1.2380   -1.9852   -0.0147 N.2       1 <0>        -0.6315
      8 C5          1.1844   -0.6712   -0.0129 C.2       1 <0>         0.6259
      9 O2          2.3352    0.0327   -0.0200 O.3       1 <0>        -0.6889
     10 N3         -2.4301   -2.5606   -0.0008 N.pl3     1 <0>        -0.4327
     11 C6         -3.2173   -1.4646    0.0094 C.2       1 <0>         0.4498
     12 N4         -2.4620   -0.3723    0.0120 N.2       1 <0>        -0.5488
     13 S1         -4.9292   -1.4799    0.0168 S.2       1 <0>        -0.7937
     14 C7         -2.8772   -3.9557   -0.0067 C.3       1 <0>         0.1057
     15 C8         -3.0258   -4.4497    1.4337 C.3       1 <0>         0.1045
     16 H1         -2.0889   -4.2958    1.9691 H         1 <0>         0.1097
     17 C9         -3.3714   -5.9401    1.4286 C.3       1 <0>         0.0340
     18 O3         -3.3957   -6.4280    2.7715 O.3       1 <0>        -0.2958
     19 C10        -3.6891   -7.7435    2.9447 C.ar      1 <0>         0.1484
     20 C11        -3.9429   -8.5467    1.8284 C.ar      1 <0>        -0.1838
     21 C12        -4.2392   -9.8664    1.9696 C.ar      1 <0>        -0.0706
     22 C13        -4.2916  -10.4357    3.2540 C.ar      1 <0>        -0.0898
     23 C14        -4.5941  -11.7958    3.4361 C.ar      1 <0>        -0.0914
     24 C15        -4.6360  -12.3142    4.6939 C.ar      1 <0>        -0.1396
     25 C16        -4.3830  -11.5159    5.8080 C.ar      1 <0>        -0.1132
     26 C17        -4.0867  -10.1948    5.6704 C.ar      1 <0>        -0.1131
     27 C18        -4.0342   -9.6237    4.3870 C.ar      1 <0>        -0.0098
     28 C19        -3.7265   -8.2652    4.2063 C.ar      1 <0>        -0.1661
     29 O4         -4.0700   -3.7207    2.0820 O.3       1 <0>        -0.5342
     30 H2          1.0048    1.8381    0.0023 H         1 <0>         0.0893
     31 H3         -0.5450    1.8219   -0.8730 H         1 <0>         0.0524
     32 H4         -0.5280    1.8123    0.9069 H         1 <0>         0.0527
     33 H5         -3.8381   -4.0271   -0.5162 H         1 <0>         0.0929
     34 H6         -2.1431   -4.5703   -0.5277 H         1 <0>         0.0990
     35 H7         -4.3505   -6.0845    0.9719 H         1 <0>         0.0666
     36 H8         -2.6201   -6.4854    0.8575 H         1 <0>         0.0757
     37 H9         -3.9035   -8.1127    0.8402 H         1 <0>         0.1343
     38 H10        -4.4337  -10.4746    1.0986 H         1 <0>         0.1297
     39 H11        -4.7927  -12.4266    2.5823 H         1 <0>         0.1226
     40 H12        -4.8691  -13.3598    4.8307 H         1 <0>         0.1172
     41 H13        -4.4230  -11.9521    6.7951 H         1 <0>         0.1185
     42 H14        -3.8933   -9.5882    6.5428 H         1 <0>         0.1259
     43 H15        -3.5243   -7.6359    5.0605 H         1 <0>         0.1351
     44 H16        -4.9346   -3.8117    1.6585 H         1 <0>         0.3753
@<TRIPOS>BOND
     1    1    2 1
     2    1   30 1
     3    1   31 1
     4    1   32 1
     5    2    8 1
     6    2    3 1
     7    3   12 2
     8    3    4 1
     9    4    5 2
    10    4   10 1
    11    5    6 1
    12    5    7 1
    13    7    8 2
    14    8    9 1
    15   10   11 1
    16   10   14 1
    17   11   12 1
    18   11   13 2
    19   14   15 1
    20   14   33 1
    21   14   34 1
    22   15   16 1
    23   15   17 1
    24   15   29 1
    25   17   18 1
    26   17   35 1
    27   17   36 1
    28   18   19 1
    29   19   28 ar
    30   19   20 ar
    31   20   21 ar
    32   20   37 1
    33   21   22 ar
    34   21   38 1
    35   22   27 ar
    36   22   23 ar
    37   23   24 ar
    38   23   39 1
    39   24   25 ar
    40   24   40 1
    41   25   26 ar
    42   25   41 1
    43   26   27 ar
    44   26   42 1
    45   27   28 ar
    46   28   43 1
    47   29   44 1
@<TRIPOS>MOLECULE
ZINC05447786
   46    49     0     0     0
SMALL
USER_CHARGES

@<TRIPOS>ATOM
      1 C1         -0.0178    1.4608    0.0101 C.3       1 <0>         0.0615
      2 N1          0.0021   -0.0041    0.0020 N.am      1 <0>        -0.5142
      3 C2         -1.1819   -0.7055    0.0038 C.2       1 <0>         0.3476
      4 N2         -2.4984   -0.3239    0.0129 N.pl3     1 <0>        -0.5486
      5 C3         -3.2703   -1.4274    0.0107 C.2       1 <0>         0.4820
      6 S1         -4.9822   -1.4441    0.0187 S.2       1 <0>        -0.5554
      7 N3         -2.4759   -2.5168    0.0002 N.pl3     1 <0>        -0.4067
      8 C4         -1.1498   -2.0732   -0.0042 C.2       1 <0>        -0.0916
      9 C5          0.0953   -2.7333   -0.0146 C.2       1 <0>         0.6010
     10 N4          1.2296   -2.0027   -0.0164 N.am      1 <0>        -0.6454
     11 C6          1.1785   -0.6585   -0.0127 C.2       1 <0>         0.7152
     12 O1          2.2148   -0.0223   -0.0188 O.2       1 <0>        -0.5126
     13 O2          0.1469   -3.9509   -0.0215 O.2       1 <0>        -0.4941
     14 C7         -2.9215   -3.9124   -0.0055 C.3       1 <0>         0.0852
     15 C8         -3.0836   -4.3902   -1.4499 C.3       1 <0>         0.0979
     16 H1         -3.7559   -3.7171   -1.9819 H         1 <0>         0.1246
     17 C9         -3.6671   -5.8045   -1.4569 C.3       1 <0>         0.0326
     18 O3         -3.9271   -6.2059   -2.8035 O.3       1 <0>        -0.3001
     19 C10        -4.4512   -7.4461   -2.9873 C.ar      1 <0>         0.1314
     20 C11        -4.7134   -8.2559   -1.8776 C.ar      1 <0>        -0.1912
     21 C12        -5.2376   -9.5014   -2.0294 C.ar      1 <0>        -0.0633
     22 C13        -5.5221   -9.9858   -3.3182 C.ar      1 <0>        -0.0842
     23 C14        -6.0647  -11.2676   -3.5113 C.ar      1 <0>        -0.0945
     24 C15        -6.3283  -11.7046   -4.7730 C.ar      1 <0>        -0.1282
     25 C16        -6.0682  -10.8994   -5.8805 C.ar      1 <0>        -0.1046
     26 C17        -5.5431   -9.6526   -5.7323 C.ar      1 <0>        -0.1153
     27 C18        -5.2577   -9.1667   -4.4444 C.ar      1 <0>        -0.0131
     28 C19        -4.7203   -7.8832   -4.2528 C.ar      1 <0>        -0.1515
     29 O4         -1.8085   -4.3977   -2.0951 O.3       1 <0>        -0.5433
     30 H2          1.0048    1.8381    0.0023 H         1 <0>         0.1206
     31 H3         -0.5450    1.8219   -0.8730 H         1 <0>         0.0869
     32 H4         -0.5280    1.8123    0.9069 H         1 <0>         0.0870
     33 H5         -2.1816   -4.5321    0.5013 H         1 <0>         0.1193
     34 H6         -3.8773   -3.9908    0.5126 H         1 <0>         0.1311
     35 H7         -2.9546   -6.4937   -1.0035 H         1 <0>         0.0716
     36 H8         -4.5968   -5.8168   -0.8881 H         1 <0>         0.0806
     37 H9         -4.4960   -7.8870   -0.8861 H         1 <0>         0.1299
     38 H10        -5.4343  -10.1161   -1.1635 H         1 <0>         0.1324
     39 H11        -6.2711  -11.9029   -2.6627 H         1 <0>         0.1268
     40 H12        -6.7449  -12.6904   -4.9183 H         1 <0>         0.1234
     41 H13        -6.2863  -11.2705   -6.8710 H         1 <0>         0.1242
     42 H14        -5.3465   -9.0399   -6.5996 H         1 <0>         0.1284
     43 H15        -4.5177   -7.2470   -5.1017 H         1 <0>         0.1352
     44 H16        -1.1583   -4.9767   -1.6743 H         1 <0>         0.3806
     45 H17         2.0898   -2.4509   -0.0231 H         1 <0>         0.4471
     46 H18        -2.8211    0.5908    0.0204 H         1 <0>         0.4540
@<TRIPOS>BOND
     1    1    2 1
     2    1   30 1
     3    1   31 1
     4    1   32 1
     5    2   11 am
     6    2    3 1
     7    3    8 2
     8    3    4 1
     9    4    5 1
    10    4   46 1
    11    5    6 2
    12    5    7 1
    13    7    8 1
    14    7   14 1
    15    8    9 1
    16    9   10 am
    17    9   13 2
    18   10   11 am
    19   10   45 1
    20   11   12 2
    21   14   15 1
    22   14   33 1
    23   14   34 1
    24   15   16 1
    25   15   17 1
    26   15   29 1
    27   17   18 1
    28   17   35 1
    29   17   36 1
    30   18   19 1
    31   19   28 ar
    32   19   20 ar
    33   20   21 ar
    34   20   37 1
    35   21   22 ar
    36   21   38 1
    37   22   27 ar
    38   22   23 ar
    39   23   24 ar
    40   23   39 1
    41   24   25 ar
    42   24   40 1
    43   25   26 ar
    44   25   41 1
    45   26   27 ar
    46   26   42 1
    47   27   28 ar
    48   28   43 1
    49   29   44 1
@<TRIPOS>MOLECULE
ZINC01085959
   43    47     0     0     0
SMALL
USER_CHARGES
4-[5-(oxoBLAHyl)-2-furyl]benzoic acid
@<TRIPOS>ATOM
      1 C1         -2.4662   -0.3217    0.0282 C.ar      1 <0>        -0.0948
      2 C2         -3.5647   -1.1333    0.0292 C.ar      1 <0>        -0.0809
      3 C3         -3.4075   -2.5229    0.0203 C.ar      1 <0>        -0.0841
      4 C4         -2.1255   -3.0816    0.0049 C.ar      1 <0>        -0.0906
      5 C5         -1.0270   -2.2701   -0.0010 C.ar      1 <0>        -0.1023
      6 C6         -1.1841   -0.8804    0.0079 C.ar      1 <0>        -0.0619
      7 C7          0.0021   -0.0041    0.0020 C.2       1 <0>         0.1195
      8 C8         -0.0164    1.3612    0.0095 C.2       1 <0>        -0.2210
      9 C9          1.3155    1.7902   -0.0009 C.2       1 <0>        -0.0726
     10 C10         2.0985    0.6567   -0.0145 C.2       1 <0>        -0.0526
     11 O1          1.2825   -0.4169   -0.0124 O.3       1 <0>        -0.1618
     12 C11         3.5647    0.6234   -0.0282 C.2       1 <0>         0.5095
     13 N1          4.2145   -0.5840   -0.0353 N.am      1 <0>        -0.6381
     14 H1          3.6805   -1.4294   -0.0271 H         1 <0>         0.4323
     15 C12         5.5586   -0.6510   -0.0531 C.2       1 <0>         0.5600
     16 O2          6.1234   -1.7311   -0.0645 O.2       1 <0>        -0.5212
     17 C13         6.3166    0.5654   -0.0544 C.2       1 <0>        -0.2580
     18 C14         7.7697    0.7253   -0.0684 C.2       1 <0>        -0.0440
     19 C15         8.2476    1.9882   -0.0667 C.2       1 <0>        -0.1773
     20 S1          6.8096    3.0243   -0.0463 S.3       1 <0>         0.1463
     21 C16         5.5676    1.7558   -0.0407 C.2       1 <0>         0.1215
     22 N2          4.2426    1.7565   -0.0281 N.2       1 <0>        -0.4831
     23 C17         9.6840    2.4146   -0.0789 C.3       1 <0>        -0.0344
     24 C18        10.5528    1.2006    0.2800 C.3       1 <0>        -0.1149
     25 C19        10.0958    0.0036   -0.5588 C.3       1 <0>        -0.1222
     26 C20         8.7208   -0.4683   -0.0845 C.3       1 <0>        -0.0607
     27 C21        -4.5940   -3.3995    0.0277 C.2       1 <0>         0.4841
     28 O3         -4.4575   -4.6068    0.0204 O.co2     1 <0>        -0.6248
     29 H2         -2.5876    0.7514    0.0395 H         1 <0>         0.1273
     30 H3         -4.5548   -0.7020    0.0415 H         1 <0>         0.1413
     31 H4         -2.0042   -4.1548   -0.0019 H         1 <0>         0.1349
     32 H5         -0.0370   -2.7016   -0.0122 H         1 <0>         0.1235
     33 H6         -0.8936    1.9912    0.0173 H         1 <0>         0.1659
     34 H7          1.6628    2.8128    0.0016 H         1 <0>         0.1696
     35 H8          9.9510    2.7764   -1.0719 H         1 <0>         0.0845
     36 H9          9.8380    3.2066    0.6540 H         1 <0>         0.0830
     37 H10        11.5977    1.4218    0.0625 H         1 <0>         0.0743
     38 H11        10.4406    0.9714    1.3397 H         1 <0>         0.0690
     39 H12        10.0363    0.2974   -1.6067 H         1 <0>         0.0659
     40 H13        10.8136   -0.8095   -0.4507 H         1 <0>         0.0706
     41 H14         8.3406   -1.2292   -0.7661 H         1 <0>         0.0866
     42 H15         8.8034   -0.8832    0.9200 H         1 <0>         0.0789
     43 O4         -5.8293   -2.8612    0.0425 O.co2     1 <0>        -0.7475
@<TRIPOS>BOND
     1    1    6 ar
     2    1    2 ar
     3    1   29 1
     4    2    3 ar
     5    2   30 1
     6    3    4 ar
     7    3   27 1
     8    4    5 ar
     9    4   31 1
    10    5    6 ar
    11    5   32 1
    12    6    7 1
    13    7   11 1
    14    7    8 2
    15    8    9 1
    16    8   33 1
    17    9   10 2
    18    9   34 1
    19   10   11 1
    20   10   12 1
    21   12   22 2
    22   12   13 1
    23   13   14 1
    24   13   15 am
    25   15   16 2
    26   15   17 1
    27   17   21 2
    28   17   18 1
    29   18   26 1
    30   18   19 2
    31   19   20 1
    32   19   23 1
    33   20   21 1
    34   21   22 1
    35   23   24 1
    36   23   35 1
    37   23   36 1
    38   24   25 1
    39   24   37 1
    40   24   38 1
    41   25   26 1
    42   25   39 1
    43   25   40 1
    44   26   41 1
    45   26   42 1
    46   27   28 2
    47   27   43 1
@<TRIPOS>MOLECULE
ZINC02746753
   46    49     0     0     0
SMALL
USER_CHARGES

@<TRIPOS>ATOM
      1 C1         -0.0200    1.5019    0.0078 C.3       1 <0>        -0.0756
      2 C2          0.0007   -0.0049   -0.0073 C.2       1 <0>        -0.1192
      3 C3         -1.0447   -0.8738   -0.0189 C.2       1 <0>        -0.1724
      4 C4         -0.7924   -2.2260   -0.0327 C.2       1 <0>        -0.0906
      5 C5          0.5105   -2.6534   -0.0342 C.2       1 <0>        -0.1427
      6 S1          1.4043   -1.1079   -0.0226 S.3       1 <0>         0.0663
      7 C6          1.0367   -4.0315   -0.0475 C.ar      1 <0>         0.2432
      8 C7          2.4292   -4.2272   -0.0407 C.ar      1 <0>        -0.1166
      9 C8          2.9349   -5.5177   -0.0531 C.ar      1 <0>        -0.0729
     10 C9          1.9700   -6.6187   -0.0729 C.ar      1 <0>        -0.0634
     11 C10         2.3862   -7.9539   -0.0859 C.ar      1 <0>        -0.1030
     12 C11         1.4547   -8.9500   -0.1039 C.ar      1 <0>        -0.1051
     13 C12         0.0937   -8.6540   -0.1099 C.ar      1 <0>        -0.0947
     14 C13        -0.3452   -7.3655   -0.0980 C.ar      1 <0>        -0.0907
     15 C14         0.5866   -6.3113   -0.0784 C.ar      1 <0>         0.1339
     16 N1          0.1852   -5.0387   -0.0602 N.ar      1 <0>        -0.4407
     17 C15         4.3915   -5.7723   -0.0469 C.2       1 <0>         0.5696
     18 O1          4.8091   -6.9107    0.0385 O.2       1 <0>        -0.4914
     19 N2          5.2561   -4.7423   -0.1361 N.am      1 <0>        -0.6698
     20 C16         6.6282   -4.9886   -0.2442 C.ar      1 <0>         0.2064
     21 C17         7.0834   -6.0924   -0.9538 C.ar      1 <0>        -0.1417
     22 C18         8.4393   -6.3326   -1.0591 C.ar      1 <0>         0.0013
     23 C19         9.3435   -5.4755   -0.4589 C.ar      1 <0>        -0.6926
     24 C20         8.8936   -4.3759    0.2488 C.ar      1 <0>         0.0064
     25 C21         7.5392   -4.1268    0.3530 C.ar      1 <0>        -0.1641
     26 S2         11.0726   -5.7856   -0.5956 S.o2      1 <0>         2.7035
     27 O2         11.6892   -5.1433    0.5119 O.2       1 <0>        -0.9621
     28 O3         11.2172   -7.1767   -0.8467 O.2       1 <0>        -0.9592
     29 N3         11.6047   -5.0017   -1.9538 N.pl3     1 <0>        -1.2481
     30 H1          1.0026    1.8793    0.0090 H         1 <0>         0.0753
     31 H2         -0.5411    1.8670   -0.8772 H         1 <0>         0.0860
     32 H3         -0.5365    1.8492    0.9027 H         1 <0>         0.0861
     33 H4         -2.0605   -0.5071   -0.0170 H         1 <0>         0.1403
     34 H5         -1.6050   -2.9373   -0.0417 H         1 <0>         0.1443
     35 H6          3.0985   -3.3797   -0.0262 H         1 <0>         0.1402
     36 H7          3.4390   -8.1948   -0.0821 H         1 <0>         0.1636
     37 H8          1.7764   -9.9809   -0.1139 H         1 <0>         0.1340
     38 H9         -0.6252   -9.4599   -0.1246 H         1 <0>         0.1358
     39 H10        -1.4041   -7.1533   -0.1037 H         1 <0>         0.1415
     40 H11         4.9265   -3.8301   -0.1252 H         1 <0>         0.4161
     41 H12         6.3778   -6.7624   -1.4225 H         1 <0>         0.1451
     42 H13         8.7939   -7.1909   -1.6104 H         1 <0>         0.1488
     43 H14         9.6024   -3.7087    0.7166 H         1 <0>         0.1494
     44 H15         7.1887   -3.2651    0.9017 H         1 <0>         0.1402
     45 H16        12.5152   -4.6698   -1.9969 H         1 <0>         0.4222
     46 H17        11.0060   -4.8744   -2.7063 H         1 <0>         0.4172
@<TRIPOS>BOND
     1    1    2 1
     2    1   30 1
     3    1   31 1
     4    1   32 1
     5    2    6 1
     6    2    3 2
     7    3    4 1
     8    3   33 1
     9    4    5 2
    10    4   34 1
    11    5    6 1
    12    5    7 1
    13    7   16 ar
    14    7    8 ar
    15    8    9 ar
    16    8   35 1
    17    9   10 ar
    18    9   17 1
    19   10   15 ar
    20   10   11 ar
    21   11   12 ar
    22   11   36 1
    23   12   13 ar
    24   12   37 1
    25   13   14 ar
    26   13   38 1
    27   14   15 ar
    28   14   39 1
    29   15   16 ar
    30   17   18 2
    31   17   19 am
    32   19   20 1
    33   19   40 1
    34   20   25 ar
    35   20   21 ar
    36   21   22 ar
    37   21   41 1
    38   22   23 ar
    39   22   42 1
    40   23   24 ar
    41   23   26 1
    42   24   25 ar
    43   24   43 1
    44   25   44 1
    45   26   27 2
    46   26   28 2
    47   26   29 1
    48   29   45 1
    49   29   46 1
@<TRIPOS>MOLECULE
ZINC03861807
   30    31     0     0     0
SMALL
USER_CHARGES

@<TRIPOS>ATOM
      1 C1         -0.0187    1.5258    0.0104 C.3       1 <0>        -0.1415
      2 C2          0.0021   -0.0041    0.0020 C.3       1 <0>        -0.1122
      3 C3          0.7421   -0.5109    1.2415 C.3       1 <0>        -0.1434
      4 C4         -1.4333   -0.5336    0.0129 C.3       1 <0>         0.1228
      5 N1         -2.1054   -0.1483   -1.2305 N.am      1 <0>        -0.5064
      6 C5         -2.7896    1.0542   -1.3029 C.2       1 <0>         0.3270
      7 C6         -3.4188    1.3971   -2.4931 C.2       1 <0>        -0.1566
      8 C7         -3.3428    0.5129   -3.5907 C.2       1 <0>         0.5930
      9 O1         -3.8857    0.7913   -4.6449 O.2       1 <0>        -0.5148
     10 N2         -2.6613   -0.6442   -3.4587 N.am      1 <0>        -0.5518
     11 C8         -2.0526   -0.9608   -2.3028 C.2       1 <0>         0.7063
     12 O2         -1.4428   -2.0098   -2.2221 O.2       1 <0>        -0.5287
     13 C9         -2.5785   -1.5664   -4.5940 C.3       1 <0>         0.0827
     14 N3         -4.0103    2.6257   -2.2774 N.pl3     1 <0>        -0.5187
     15 H1         -4.5284    3.1372   -2.9183 H         1 <0>         0.4381
     16 C10        -3.7321    2.9790   -1.0073 C.2       1 <0>         0.2767
     17 N4         -3.0113    2.0471   -0.4377 N.2       1 <0>        -0.4957
     18 H2          1.0039    1.9031    0.0027 H         1 <0>         0.0532
     19 H3         -0.5459    1.8868   -0.8726 H         1 <0>         0.0473
     20 H4         -0.5289    1.8773    0.9072 H         1 <0>         0.0653
     21 H5          0.5123   -0.3556   -0.8948 H         1 <0>         0.0742
     22 H6          0.2319   -0.1594    2.1383 H         1 <0>         0.0596
     23 H7          0.7568   -1.6008    1.2356 H         1 <0>         0.0591
     24 H8          1.7647   -0.1336    1.2338 H         1 <0>         0.0613
     25 H9         -1.4190   -1.6203    0.0965 H         1 <0>         0.1003
     26 H10        -1.9701   -0.1109    0.8621 H         1 <0>         0.1000
     27 H11        -3.1215   -1.1486   -5.4417 H         1 <0>         0.1034
     28 H12        -1.5337   -1.7124   -4.8680 H         1 <0>         0.0826
     29 H13        -3.0188   -2.5242   -4.3168 H         1 <0>         0.0828
     30 H14        -4.0547    3.8934   -0.5315 H         1 <0>         0.2343
@<TRIPOS>BOND
     1    1    2 1
     2    1   18 1
     3    1   19 1
     4    1   20 1
     5    2    3 1
     6    2    4 1
     7    2   21 1
     8    3   22 1
     9    3   23 1
    10    3   24 1
    11    4    5 1
    12    4   25 1
    13    4   26 1
    14    5   11 am
    15    5    6 1
    16    6   17 1
    17    6    7 2
    18    7    8 1
    19    7   14 1
    20    8    9 2
    21    8   10 am
    22   10   11 am
    23   10   13 1
    24   11   12 2
    25   13   27 1
    26   13   28 1
    27   13   29 1
    28   14   15 1
    29   14   16 1
    30   16   17 2
    31   16   30 1
@<TRIPOS>MOLECULE
ZINC14953365
   31    33     0     0     0
SMALL
USER_CHARGES

@<TRIPOS>ATOM
      1 C1         -0.0187    1.5258    0.0104 C.3       1 <0>        -0.1423
      2 C2          0.0021   -0.0041    0.0020 C.3       1 <0>        -0.1231
      3 C3          0.7421   -0.5109    1.2415 C.3       1 <0>         0.0541
      4 O1          0.7614   -1.9398    1.2337 O.3       1 <0>        -0.2395
      5 C4          1.3846   -2.5535    2.2722 C.ar      1 <0>         0.1595
      6 C5          1.9611   -1.7987    3.2821 C.ar      1 <0>        -0.2333
      7 C6          2.5948   -2.4244    4.3380 C.ar      1 <0>        -0.0982
      8 C7          2.6582   -3.8062    4.3957 C.ar      1 <0>        -0.1779
      9 C8          2.0888   -4.5703    3.3986 C.ar      1 <0>        -0.0533
     10 C9          1.4423   -3.9501    2.3303 C.ar      1 <0>        -0.0190
     11 C10         0.8245   -4.7657    1.2592 C.ar      1 <0>         0.3508
     12 N1          0.2275   -4.1264    0.2544 N.ar      1 <0>        -0.6291
     13 C11        -0.3501   -4.7739   -0.7445 C.ar      1 <0>         0.5035
     14 O2         -0.9512   -4.1076   -1.7566 O.3       1 <0>        -0.7157
     15 C12        -0.3151   -6.2310   -0.7156 C.ar      1 <0>        -0.1910
     16 N2         -0.7406   -7.2297   -1.4617 N.2       1 <0>        -0.3291
     17 N3         -0.3994   -8.3395   -0.9027 N.2       1 <0>        -0.1963
     18 N4          0.2445   -8.1643    0.1989 N.2       1 <0>        -0.3779
     19 C13         0.3620   -6.8697    0.4258 C.ar      1 <0>         0.1454
     20 N5          0.9051   -6.0766    1.3584 N.ar      1 <0>        -0.5680
     21 H1          1.0039    1.9031    0.0027 H         1 <0>         0.0496
     22 H2         -0.5459    1.8868   -0.8726 H         1 <0>         0.0570
     23 H3         -0.5289    1.8773    0.9072 H         1 <0>         0.0496
     24 H4         -1.0205   -0.3814    0.0098 H         1 <0>         0.0770
     25 H5          0.5123   -0.3556   -0.8948 H         1 <0>         0.0771
     26 H6          1.7647   -0.1336    1.2338 H         1 <0>         0.0463
     27 H7          0.2319   -0.1594    2.1383 H         1 <0>         0.0462
     28 H8          1.9151   -0.7204    3.2430 H         1 <0>         0.1171
     29 H9          3.0433   -1.8327    5.1223 H         1 <0>         0.1089
     30 H10         3.1558   -4.2876    5.2246 H         1 <0>         0.1125
     31 H11         2.1408   -5.6480    3.4470 H         1 <0>         0.1392
@<TRIPOS>BOND
     1    1    2 1
     2    1   21 1
     3    1   22 1
     4    1   23 1
     5    2    3 1
     6    2   24 1
     7    2   25 1
     8    3    4 1
     9    3   26 1
    10    3   27 1
    11    4    5 1
    12    5   10 ar
    13    5    6 ar
    14    6    7 ar
    15    6   28 1
    16    7    8 ar
    17    7   29 1
    18    8    9 ar
    19    8   30 1
    20    9   10 ar
    21    9   31 1
    22   10   11 1
    23   11   20 ar
    24   11   12 ar
    25   12   13 ar
    26   13   14 1
    27   13   15 ar
    28   15   19 ar
    29   15   16 2
    30   16   17 1
    31   17   18 1
    32   18   19 2
    33   19   20 ar
@<TRIPOS>MOLECULE
ZINC14953365
   32    34     0     0     0
SMALL
USER_CHARGES

@<TRIPOS>ATOM
      1 C1         -0.0187    1.5258    0.0104 C.3       1 <0>        -0.1458
      2 C2          0.0021   -0.0041    0.0020 C.3       1 <0>        -0.1216
      3 C3         -1.4333   -0.5336    0.0129 C.3       1 <0>         0.0534
      4 O1         -1.4139   -1.9625    0.0050 O.3       1 <0>        -0.2533
      5 C4         -2.6153   -2.5953    0.0131 C.ar      1 <0>         0.1746
      6 C5         -3.7897   -1.8588    0.0225 C.ar      1 <0>        -0.2311
      7 C6         -5.0111   -2.5039    0.0312 C.ar      1 <0>        -0.0713
      8 C7         -5.0711   -3.8869    0.0301 C.ar      1 <0>        -0.1782
      9 C8         -3.9107   -4.6328    0.0203 C.ar      1 <0>        -0.0340
     10 C9         -2.6726   -3.9927    0.0061 C.ar      1 <0>        -0.0608
     11 C10        -1.4229   -4.7891   -0.0106 C.ar      1 <0>         0.4081
     12 N1         -0.2554   -4.1511   -0.0133 N.ar      1 <0>        -0.5727
     13 C11         0.8902   -4.8180   -0.0276 C.ar      1 <0>         0.4867
     14 O2          2.0741   -4.1594   -0.0298 O.3       1 <0>        -0.6795
     15 C12         0.8508   -6.2155   -0.0399 C.ar      1 <0>        -0.1593
     16 C13        -0.4029   -6.8559   -0.0366 C.ar      1 <0>         0.2596
     17 N2         -1.5075   -6.1089   -0.0169 N.ar      1 <0>        -0.5690
     18 N3         -0.1345   -8.1734   -0.0512 N.2       1 <0>        -0.2773
     19 N4          1.1405   -8.3484   -0.0624 N.2       1 <0>        -0.0384
     20 N5          1.7753   -7.2265   -0.0565 N.pl3     1 <0>        -0.3729
     21 H1          2.7391   -7.1171   -0.0631 H         1 <0>         0.4476
     22 H2          1.0039    1.9031    0.0027 H         1 <0>         0.0602
     23 H3         -0.5459    1.8868   -0.8726 H         1 <0>         0.0527
     24 H4         -0.5289    1.8773    0.9072 H         1 <0>         0.0527
     25 H5          0.5123   -0.3556   -0.8948 H         1 <0>         0.0759
     26 H6          0.5293   -0.3651    0.8851 H         1 <0>         0.0760
     27 H7         -1.9435   -0.1821    0.9097 H         1 <0>         0.0536
     28 H8         -1.9605   -0.1726   -0.8702 H         1 <0>         0.0536
     29 H9         -3.7496   -0.7795    0.0234 H         1 <0>         0.1258
     30 H10        -5.9238   -1.9264    0.0393 H         1 <0>         0.1192
     31 H11        -6.0299   -4.3838    0.0374 H         1 <0>         0.1223
     32 H12        -3.9616   -5.7116    0.0195 H         1 <0>         0.1433
@<TRIPOS>BOND
     1    1    2 1
     2    1   22 1
     3    1   23 1
     4    1   24 1
     5    2    3 1
     6    2   25 1
     7    2   26 1
     8    3    4 1
     9    3   27 1
    10    3   28 1
    11    4    5 1
    12    5   10 ar
    13    5    6 ar
    14    6    7 ar
    15    6   29 1
    16    7    8 ar
    17    7   30 1
    18    8    9 ar
    19    8   31 1
    20    9   10 ar
    21    9   32 1
    22   10   11 1
    23   11   17 ar
    24   11   12 ar
    25   12   13 ar
    26   13   14 1
    27   13   15 ar
    28   15   16 ar
    29   15   20 1
    30   16   17 ar
    31   16   18 1
    32   18   19 2
    33   19   20 1
    34   20   21 1
@<TRIPOS>MOLECULE
ZINC14953365
   32    34     0     0     0
SMALL
USER_CHARGES

@<TRIPOS>ATOM
      1 C1         -0.0187    1.5258    0.0104 C.3       1 <0>        -0.1457
      2 C2          0.0021   -0.0041    0.0020 C.3       1 <0>        -0.1224
      3 C3         -1.4333   -0.5336    0.0129 C.3       1 <0>         0.0532
      4 O1         -1.4139   -1.9625    0.0050 O.3       1 <0>        -0.2520
      5 C4         -2.6152   -2.5953    0.0131 C.ar      1 <0>         0.1789
      6 C5         -3.7896   -1.8588    0.0225 C.ar      1 <0>        -0.2310
      7 C6         -5.0111   -2.5039    0.0308 C.ar      1 <0>        -0.0680
      8 C7         -5.0712   -3.8870    0.0297 C.ar      1 <0>        -0.1802
      9 C8         -3.9111   -4.6331    0.0208 C.ar      1 <0>        -0.0323
     10 C9         -2.6726   -3.9930    0.0061 C.ar      1 <0>        -0.0665
     11 C10        -1.4235   -4.7891   -0.0106 C.ar      1 <0>         0.4378
     12 N1         -0.2555   -4.1526   -0.0133 N.ar      1 <0>        -0.5853
     13 C11         0.8886   -4.8183   -0.0276 C.ar      1 <0>         0.5093
     14 O2          2.0713   -4.1592   -0.0297 O.3       1 <0>        -0.6423
     15 C12         0.8505   -6.2267   -0.0400 C.ar      1 <0>        -0.1919
     16 C13        -0.4080   -6.8564   -0.0366 C.ar      1 <0>         0.3382
     17 N2         -1.5070   -6.1104   -0.0169 N.ar      1 <0>        -0.6189
     18 N3         -0.1580   -8.2010   -0.0510 N.pl3     1 <0>        -0.5059
     19 N4          1.2372   -8.3495   -0.0627 N.2       1 <0>        -0.0830
     20 N5          1.7907   -7.1872   -0.0559 N.2       1 <0>        -0.1662
     21 H1         -0.8167   -8.9130   -0.0527 H         1 <0>         0.4358
     22 H2          1.0039    1.9031    0.0027 H         1 <0>         0.0608
     23 H3         -0.5459    1.8868   -0.8726 H         1 <0>         0.0526
     24 H4         -0.5289    1.8773    0.9072 H         1 <0>         0.0526
     25 H5          0.5123   -0.3556   -0.8948 H         1 <0>         0.0768
     26 H6          0.5293   -0.3651    0.8851 H         1 <0>         0.0769
     27 H7         -1.9435   -0.1821    0.9097 H         1 <0>         0.0542
     28 H8         -1.9605   -0.1726   -0.8702 H         1 <0>         0.0542
     29 H9         -3.7496   -0.7795    0.0238 H         1 <0>         0.1271
     30 H10        -5.9237   -1.9264    0.0385 H         1 <0>         0.1201
     31 H11        -6.0302   -4.3837    0.0362 H         1 <0>         0.1222
     32 H12        -3.9622   -5.7119    0.0203 H         1 <0>         0.1409
@<TRIPOS>BOND
     1    1    2 1
     2    1   22 1
     3    1   23 1
     4    1   24 1
     5    2    3 1
     6    2   25 1
     7    2   26 1
     8    3    4 1
     9    3   27 1
    10    3   28 1
    11    4    5 1
    12    5   10 ar
    13    5    6 ar
    14    6    7 ar
    15    6   29 1
    16    7    8 ar
    17    7   30 1
    18    8    9 ar
    19    8   31 1
    20    9   10 ar
    21    9   32 1
    22   10   11 1
    23   11   17 ar
    24   11   12 ar
    25   12   13 ar
    26   13   14 1
    27   13   15 ar
    28   15   16 ar
    29   15   20 1
    30   16   17 ar
    31   16   18 1
    32   18   21 1
    33   18   19 1
    34   19   20 2
@<TRIPOS>MOLECULE
ZINC14953365
   32    34     0     0     0
SMALL
USER_CHARGES

@<TRIPOS>ATOM
      1 C1         -0.0187    1.5258    0.0104 C.3       1 <0>        -0.1457
      2 C2          0.0021   -0.0041    0.0020 C.3       1 <0>        -0.1218
      3 C3          0.7421   -0.5109    1.2415 C.3       1 <0>         0.0528
      4 O1          0.7614   -1.9398    1.2337 O.3       1 <0>        -0.2494
      5 C4          1.3846   -2.5535    2.2722 C.ar      1 <0>         0.1779
      6 C5          1.9611   -1.7987    3.2821 C.ar      1 <0>        -0.2330
      7 C6          2.5948   -2.4244    4.3380 C.ar      1 <0>        -0.0705
      8 C7          2.6582   -3.8062    4.3957 C.ar      1 <0>        -0.1809
      9 C8          2.0888   -4.5703    3.3986 C.ar      1 <0>        -0.0318
     10 C9          1.4423   -3.9501    2.3303 C.ar      1 <0>        -0.0655
     11 C10         0.8245   -4.7657    1.2592 C.ar      1 <0>         0.4409
     12 N1          0.2275   -4.1264    0.2544 N.ar      1 <0>        -0.6040
     13 C11        -0.3501   -4.7739   -0.7445 C.ar      1 <0>         0.5269
     14 O2         -0.9512   -4.1076   -1.7566 O.3       1 <0>        -0.6419
     15 C12        -0.3151   -6.2310   -0.7156 C.ar      1 <0>        -0.1264
     16 N2         -0.7406   -7.2297   -1.4617 N.2       1 <0>        -0.2278
     17 N3         -0.3994   -8.3395   -0.9027 N.pl3     1 <0>        -0.2462
     18 N4          0.2445   -8.1643    0.1989 N.2       1 <0>        -0.3215
     19 C13         0.3620   -6.8697    0.4258 C.ar      1 <0>         0.2652
     20 N5          0.9051   -6.0766    1.3584 N.ar      1 <0>        -0.5901
     21 H1          1.0039    1.9031    0.0027 H         1 <0>         0.0523
     22 H2         -0.5459    1.8868   -0.8726 H         1 <0>         0.0600
     23 H3         -0.5289    1.8773    0.9072 H         1 <0>         0.0523
     24 H4         -1.0205   -0.3814    0.0098 H         1 <0>         0.0764
     25 H5          0.5123   -0.3556   -0.8948 H         1 <0>         0.0765
     26 H6          1.7647   -0.1336    1.2338 H         1 <0>         0.0531
     27 H7          0.2319   -0.1594    2.1383 H         1 <0>         0.0530
     28 H8          1.9151   -0.7204    3.2430 H         1 <0>         0.1254
     29 H9          3.0433   -1.8327    5.1223 H         1 <0>         0.1184
     30 H10         3.1558   -4.2876    5.2246 H         1 <0>         0.1211
     31 H11         2.1408   -5.6480    3.4470 H         1 <0>         0.1429
     32 H12        -0.6055   -9.2126   -1.2715 H         1 <0>         0.4610
@<TRIPOS>BOND
     1    1    2 1
     2    1   21 1
     3    1   22 1
     4    1   23 1
     5    2    3 1
     6    2   24 1
     7    2   25 1
     8    3    4 1
     9    3   26 1
    10    3   27 1
    11    4    5 1
    12    5   10 ar
    13    5    6 ar
    14    6    7 ar
    15    6   28 1
    16    7    8 ar
    17    7   29 1
    18    8    9 ar
    19    8   30 1
    20    9   10 ar
    21    9   31 1
    22   10   11 1
    23   11   20 ar
    24   11   12 ar
    25   12   13 ar
    26   13   14 1
    27   13   15 ar
    28   15   19 ar
    29   15   16 2
    30   16   17 1
    31   17   18 1
    32   17   32 1
    33   18   19 2
    34   19   20 ar
@<TRIPOS>MOLECULE
ZINC29488267
   39    41     0     0     0
SMALL
USER_CHARGES

@<TRIPOS>ATOM
      1 C1         -0.0187    1.5258    0.0104 C.3       1 <0>        -0.1476
      2 C2          0.0021   -0.0041    0.0020 C.3       1 <0>        -0.1162
      3 C3         -1.4333   -0.5336    0.0129 C.3       1 <0>        -0.0253
      4 C4         -1.4129   -2.0405    0.0046 C.2       1 <0>         0.0762
      5 C5         -1.4070   -2.8569   -1.1475 C.ar      1 <0>         0.0686
      6 C6         -1.3869   -4.1920   -0.7014 C.ar      1 <0>        -0.0547
      7 C7         -1.3777   -5.2165   -1.6565 C.ar      1 <0>         0.4611
      8 O1         -1.3588   -6.5164   -1.2751 O.3       1 <0>        -0.6949
      9 N1         -1.3884   -4.8893   -2.9402 N.ar      1 <0>        -0.5679
     10 C8         -1.4074   -3.6162   -3.3266 C.ar      1 <0>         0.3660
     11 N2         -1.4163   -2.6161   -2.4630 N.ar      1 <0>        -0.5587
     12 C9         -1.4186   -3.3091   -4.7764 C.ar      1 <0>        -0.0506
     13 C10        -1.4328   -1.9850   -5.2116 C.ar      1 <0>        -0.0415
     14 C11        -1.4432   -1.7045   -6.5622 C.ar      1 <0>        -0.1776
     15 C12        -1.4396   -2.7334   -7.4883 C.ar      1 <0>        -0.0780
     16 C13        -1.4256   -4.0494   -7.0685 C.ar      1 <0>        -0.2300
     17 C14        -1.4092   -4.3463   -5.7145 C.ar      1 <0>         0.1679
     18 O2         -1.3897   -5.6394   -5.3005 O.3       1 <0>        -0.2522
     19 C15        -1.3811   -6.6454   -6.3153 C.3       1 <0>         0.0490
     20 C16        -1.3591   -8.0288   -5.6620 C.3       1 <0>        -0.1462
     21 N3         -1.3812   -4.1504    0.6672 N.pl3     1 <0>        -0.4698
     22 H1         -1.3678   -4.9174    1.2608 H         1 <0>         0.4381
     23 N4         -1.3920   -2.8055    1.0596 N.2       1 <0>        -0.2610
     24 H2          1.0039    1.9031    0.0027 H         1 <0>         0.0508
     25 H3         -0.5459    1.8868   -0.8726 H         1 <0>         0.0554
     26 H4         -0.5289    1.8773    0.9072 H         1 <0>         0.0513
     27 H5          0.5123   -0.3556   -0.8948 H         1 <0>         0.0667
     28 H6          0.5293   -0.3651    0.8851 H         1 <0>         0.0589
     29 H7         -1.9435   -0.1821    0.9097 H         1 <0>         0.0707
     30 H8         -1.9605   -0.1726   -0.8702 H         1 <0>         0.0844
     31 H9         -1.4360   -1.1795   -4.4922 H         1 <0>         0.1403
     32 H10        -1.4546   -0.6782   -6.8985 H         1 <0>         0.1199
     33 H11        -1.4482   -2.5062   -8.5441 H         1 <0>         0.1173
     34 H12        -1.4233   -4.8477   -7.7959 H         1 <0>         0.1240
     35 H13        -2.2755   -6.5484   -6.9307 H         1 <0>         0.0521
     36 H14        -0.4957   -6.5243   -6.9395 H         1 <0>         0.0521
     37 H15        -1.3526   -8.7961   -6.4360 H         1 <0>         0.0662
     38 H16        -0.4647   -8.1258   -5.0466 H         1 <0>         0.0677
     39 H17        -2.2445   -8.1499   -5.0378 H         1 <0>         0.0677
@<TRIPOS>BOND
     1    1    2 1
     2    1   24 1
     3    1   25 1
     4    1   26 1
     5    2    3 1
     6    2   27 1
     7    2   28 1
     8    3    4 1
     9    3   29 1
    10    3   30 1
    11    4   23 2
    12    4    5 1
    13    5   11 ar
    14    5    6 ar
    15    6    7 ar
    16    6   21 1
    17    7    8 1
    18    7    9 ar
    19    9   10 ar
    20   10   11 ar
    21   10   12 1
    22   12   17 ar
    23   12   13 ar
    24   13   14 ar
    25   13   31 1
    26   14   15 ar
    27   14   32 1
    28   15   16 ar
    29   15   33 1
    30   16   17 ar
    31   16   34 1
    32   17   18 1
    33   18   19 1
    34   19   20 1
    35   19   35 1
    36   19   36 1
    37   20   37 1
    38   20   38 1
    39   20   39 1
    40   21   22 1
    41   21   23 1
@<TRIPOS>MOLECULE
ZINC29488267
   40    42     0     0     0
SMALL
USER_CHARGES

@<TRIPOS>ATOM
      1 C1         -0.0187    1.5258    0.0104 C.3       1 <0>        -0.1519
      2 C2          0.0021   -0.0041    0.0020 C.3       1 <0>        -0.1160
      3 C3          0.7421   -0.5109    1.2415 C.3       1 <0>        -0.0383
      4 C4          0.7625   -2.0177    1.2333 C.2       1 <0>         0.1094
      5 C5          1.7593   -2.8217    0.6470 C.2       1 <0>         0.0534
      6 C6          1.3912   -4.1551    0.8682 C.2       1 <0>        -0.0376
      7 C7          2.2281   -5.1838    0.3771 C.2       1 <0>         0.5692
      8 N1          3.3521   -4.8353   -0.2875 N.am      1 <0>        -0.6307
      9 C8          3.6630   -3.5156   -0.4743 C.2       1 <0>         0.4082
     10 N2          2.8964   -2.5515   -0.0254 N.2       1 <0>        -0.4353
     11 C9          4.8986   -3.1673   -1.2036 C.ar      1 <0>        -0.1037
     12 C10         5.7297   -4.1746   -1.6977 C.ar      1 <0>        -0.0573
     13 C11         6.8818   -3.8429   -2.3783 C.ar      1 <0>        -0.1588
     14 C12         7.2193   -2.5141   -2.5741 C.ar      1 <0>        -0.0503
     15 C13         6.4059   -1.5083   -2.0899 C.ar      1 <0>        -0.2163
     16 C14         5.2405   -1.8244   -1.4088 C.ar      1 <0>         0.1920
     17 O1          4.4371   -0.8369   -0.9378 O.3       1 <0>        -0.2664
     18 C15         4.8501    0.5086   -1.1848 C.3       1 <0>         0.0459
     19 C16         3.8269    1.4746   -0.5841 C.3       1 <0>        -0.1513
     20 O2          1.9429   -6.3562    0.5493 O.2       1 <0>        -0.5270
     21 N3          0.2139   -4.1335    1.5632 N.pl3     1 <0>        -0.4342
     22 H1         -0.2872   -4.9087    1.8613 H         1 <0>         0.4518
     23 N4         -0.1380   -2.7937    1.7732 N.2       1 <0>        -0.2270
     24 H2          1.0039    1.9031    0.0027 H         1 <0>         0.0583
     25 H3         -0.5459    1.8868   -0.8726 H         1 <0>         0.0562
     26 H4         -0.5289    1.8773    0.9072 H         1 <0>         0.0557
     27 H5         -1.0205   -0.3814    0.0098 H         1 <0>         0.0627
     28 H6          0.5123   -0.3556   -0.8948 H         1 <0>         0.0671
     29 H7          1.7647   -0.1336    1.2338 H         1 <0>         0.0950
     30 H8          0.2319   -0.1594    2.1383 H         1 <0>         0.0835
     31 H9          5.4706   -5.2121   -1.5466 H         1 <0>         0.1298
     32 H10         7.5241   -4.6227   -2.7601 H         1 <0>         0.1337
     33 H11         8.1239   -2.2629   -3.1080 H         1 <0>         0.1322
     34 H12         6.6759   -0.4743   -2.2458 H         1 <0>         0.1372
     35 H13         5.8241    0.6797   -0.7264 H         1 <0>         0.0619
     36 H14         4.9201    0.6757   -2.2597 H         1 <0>         0.0620
     37 H15         4.1419    2.5009   -0.7726 H         1 <0>         0.0763
     38 H16         2.8529    1.3035   -1.0426 H         1 <0>         0.0702
     39 H17         3.7569    1.3075    0.4907 H         1 <0>         0.0679
     40 H18         3.9414   -5.5237   -0.6334 H         1 <0>         0.4221
@<TRIPOS>BOND
     1    1    2 1
     2    1   24 1
     3    1   25 1
     4    1   26 1
     5    2    3 1
     6    2   27 1
     7    2   28 1
     8    3    4 1
     9    3   29 1
    10    3   30 1
    11    4    5 1
    12    4   23 2
    13    5   10 1
    14    5    6 2
    15    6    7 1
    16    6   21 1
    17    7    8 am
    18    7   20 2
    19    8    9 1
    20    8   40 1
    21    9   10 2
    22    9   11 1
    23   11   16 ar
    24   11   12 ar
    25   12   13 ar
    26   12   31 1
    27   13   14 ar
    28   13   32 1
    29   14   15 ar
    30   14   33 1
    31   15   16 ar
    32   15   34 1
    33   16   17 1
    34   17   18 1
    35   18   19 1
    36   18   35 1
    37   18   36 1
    38   19   37 1
    39   19   38 1
    40   19   39 1
    41   21   22 1
    42   21   23 1
@<TRIPOS>MOLECULE
ZINC29488267
   40    42     0     0     0
SMALL
USER_CHARGES

@<TRIPOS>ATOM
      1 C1         -0.0187    1.5258    0.0104 C.3       1 <0>        -0.1526
      2 C2          0.0021   -0.0041    0.0020 C.3       1 <0>        -0.1184
      3 C3          0.7182   -0.4975   -1.2568 C.3       1 <0>        -0.0433
      4 C4          0.7386   -2.0043   -1.2651 C.2       1 <0>         0.0539
      5 C5         -0.2542   -2.8329   -1.7262 C.2       1 <0>         0.0185
      6 C6          0.2705   -4.1917   -1.5045 C.2       1 <0>        -0.0691
      7 C7         -0.5839   -5.3179   -1.9063 C.2       1 <0>         0.6031
      8 O1         -0.2220   -6.4700   -1.7556 O.2       1 <0>        -0.5013
      9 N1         -1.7882   -5.0258   -2.4498 N.am      1 <0>        -0.6506
     10 C8         -2.1989   -3.7289   -2.6205 C.2       1 <0>         0.4190
     11 N2         -1.4820   -2.6900   -2.2818 N.2       1 <0>        -0.4364
     12 C9         -3.5267   -3.4925   -3.2214 C.ar      1 <0>        -0.1030
     13 C10        -4.3308   -4.5715   -3.5939 C.ar      1 <0>        -0.0579
     14 C11        -5.5699   -4.3443   -4.1540 C.ar      1 <0>        -0.1587
     15 C12        -6.0213   -3.0497   -4.3491 C.ar      1 <0>        -0.0525
     16 C13        -5.2353   -1.9737   -3.9848 C.ar      1 <0>        -0.2169
     17 C14        -3.9892   -2.1846   -3.4155 C.ar      1 <0>         0.1898
     18 O2         -3.2181   -1.1281   -3.0523 O.3       1 <0>        -0.2654
     19 C15        -3.7555    0.1761   -3.2805 C.3       1 <0>         0.0455
     20 C16        -2.7513    1.2308   -2.8114 C.3       1 <0>        -0.1497
     21 N3          1.4551   -4.0438   -0.9645 N.2       1 <0>        -0.2074
     22 H1          2.5699   -2.4668   -0.4497 H         1 <0>         0.4535
     23 N4          1.7391   -2.7971   -0.8259 N.pl3     1 <0>        -0.3630
     24 H2          1.0039    1.9031    0.0027 H         1 <0>         0.0546
     25 H3         -0.5459    1.8868   -0.8726 H         1 <0>         0.0591
     26 H4         -0.5289    1.8773    0.9072 H         1 <0>         0.0574
     27 H5          0.5293   -0.3651    0.8851 H         1 <0>         0.0594
     28 H6         -1.0205   -0.3814    0.0098 H         1 <0>         0.0721
     29 H7          0.1910   -0.1364   -2.1398 H         1 <0>         0.0987
     30 H8          1.7408   -0.1202   -1.2645 H         1 <0>         0.0776
     31 H9         -3.9824   -5.5827   -3.4438 H         1 <0>         0.1305
     32 H10        -6.1910   -5.1795   -4.4422 H         1 <0>         0.1332
     33 H11        -6.9930   -2.8804   -4.7888 H         1 <0>         0.1313
     34 H12        -5.5940   -0.9669   -4.1400 H         1 <0>         0.1359
     35 H13        -3.9502    0.3078   -4.3449 H         1 <0>         0.0613
     36 H14        -4.6863    0.2880   -2.7244 H         1 <0>         0.0614
     37 H15        -2.5566    1.0992   -1.7471 H         1 <0>         0.0686
     38 H16        -1.8205    1.1190   -3.3675 H         1 <0>         0.0666
     39 H17        -3.1612    2.2257   -2.9855 H         1 <0>         0.0756
     40 H18        -2.3730   -5.7492   -2.7247 H         1 <0>         0.4195
@<TRIPOS>BOND
     1    1    2 1
     2    1   24 1
     3    1   25 1
     4    1   26 1
     5    2    3 1
     6    2   27 1
     7    2   28 1
     8    3    4 1
     9    3   29 1
    10    3   30 1
    11    4    5 2
    12    4   23 1
    13    5   11 1
    14    5    6 1
    15    6    7 1
    16    6   21 2
    17    7    8 2
    18    7    9 am
    19    9   10 1
    20    9   40 1
    21   10   11 2
    22   10   12 1
    23   12   17 ar
    24   12   13 ar
    25   13   14 ar
    26   13   31 1
    27   14   15 ar
    28   14   32 1
    29   15   16 ar
    30   15   33 1
    31   16   17 ar
    32   16   34 1
    33   17   18 1
    34   18   19 1
    35   19   20 1
    36   19   35 1
    37   19   36 1
    38   20   37 1
    39   20   38 1
    40   20   39 1
    41   21   23 1
    42   22   23 1
@<TRIPOS>MOLECULE
ZINC29485680
   33    35     0     0     0
SMALL
USER_CHARGES

@<TRIPOS>ATOM
      1 C1         -0.0187    1.5258    0.0104 C.3       1 <0>        -0.1490
      2 C2          0.0021   -0.0041    0.0020 C.3       1 <0>        -0.1186
      3 C3          0.7182   -0.4975   -1.2568 C.3       1 <0>        -0.0222
      4 C4          0.7386   -2.0043   -1.2651 C.2       1 <0>        -0.0389
      5 C5         -0.2579   -2.8357   -1.7279 C.ar      1 <0>         0.0718
      6 C6          0.2691   -4.1962   -1.5042 C.ar      1 <0>        -0.0854
      7 C7         -0.5838   -5.3128   -1.9050 C.ar      1 <0>         0.5146
      8 N1         -1.7596   -5.0270   -2.4363 N.ar      1 <0>        -0.6163
      9 C8         -2.1756   -3.7718   -2.6108 C.ar      1 <0>         0.4003
     10 N2         -1.4739   -2.7089   -2.2794 N.ar      1 <0>        -0.5816
     11 C9         -3.5112   -3.5609   -3.2157 C.ar      1 <0>        -0.0492
     12 C10        -3.9894   -2.2680   -3.4244 C.ar      1 <0>        -0.0633
     13 C11        -5.2339   -2.0772   -3.9880 C.ar      1 <0>        -0.1512
     14 C12        -6.0111   -3.1650   -4.3473 C.ar      1 <0>        -0.1029
     15 C13        -5.5479   -4.4506   -4.1448 C.ar      1 <0>        -0.1676
     16 C14        -4.2965   -4.6579   -3.5856 C.ar      1 <0>         0.1538
     17 O1         -3.8374   -5.9210   -3.3917 O.3       1 <0>        -0.4636
     18 O2         -0.1837   -6.5943   -1.7385 O.3       1 <0>        -0.6576
     19 N3          1.4555   -4.0422   -0.9629 N.2       1 <0>        -0.2511
     20 H1          2.5662   -2.4623   -0.4513 H         1 <0>         0.4350
     21 N4          1.7359   -2.7943   -0.8273 N.pl3     1 <0>        -0.3702
     22 H2          1.0039    1.9031    0.0027 H         1 <0>         0.0498
     23 H3         -0.5459    1.8868   -0.8726 H         1 <0>         0.0556
     24 H4         -0.5289    1.8773    0.9072 H         1 <0>         0.0512
     25 H5          0.5293   -0.3651    0.8851 H         1 <0>         0.0545
     26 H6         -1.0205   -0.3814    0.0098 H         1 <0>         0.0696
     27 H7          0.1910   -0.1364   -2.1398 H         1 <0>         0.0837
     28 H8          1.7408   -0.1202   -1.2645 H         1 <0>         0.0611
     29 H9         -3.3863   -1.4168   -3.1448 H         1 <0>         0.1371
     30 H10        -5.6034   -1.0753   -4.1493 H         1 <0>         0.1197
     31 H11        -6.9846   -3.0078   -4.7877 H         1 <0>         0.1184
     32 H12        -6.1593   -5.2950   -4.4270 H         1 <0>         0.1243
     33 H13        -4.0700   -6.2963   -2.5314 H         1 <0>         0.3884
@<TRIPOS>BOND
     1    1    2 1
     2    1   22 1
     3    1   23 1
     4    1   24 1
     5    2    3 1
     6    2   25 1
     7    2   26 1
     8    3    4 1
     9    3   27 1
    10    3   28 1
    11    4    5 2
    12    4   21 1
    13    5   10 ar
    14    5    6 ar
    15    6    7 ar
    16    6   19 2
    17    7    8 ar
    18    7   18 1
    19    8    9 ar
    20    9   10 ar
    21    9   11 1
    22   11   16 ar
    23   11   12 ar
    24   12   13 ar
    25   12   29 1
    26   13   14 ar
    27   13   30 1
    28   14   15 ar
    29   14   31 1
    30   15   16 ar
    31   15   32 1
    32   16   17 1
    33   17   33 1
    34   19   21 1
    35   20   21 1
@<TRIPOS>MOLECULE
ZINC29485680
   34    36     0     0     0
SMALL
USER_CHARGES

@<TRIPOS>ATOM
      1 C1         -0.0187    1.5258    0.0104 C.3       1 <0>        -0.1504
      2 C2          0.0021   -0.0041    0.0020 C.3       1 <0>        -0.1164
      3 C3          0.7182   -0.4975   -1.2568 C.3       1 <0>        -0.0378
      4 C4          0.7386   -2.0043   -1.2651 C.2       1 <0>         0.1112
      5 C5         -0.2469   -2.8353   -1.8325 C.2       1 <0>         0.0484
      6 C6          0.1621   -4.1581   -1.6196 C.2       1 <0>        -0.0334
      7 C7         -0.6556   -5.2093   -2.0952 C.2       1 <0>         0.5688
      8 N1         -1.8014   -4.8917   -2.7376 N.am      1 <0>        -0.6302
      9 C8         -2.1516   -3.5810   -2.9181 C.2       1 <0>         0.4034
     10 N2         -1.4041   -2.5963   -2.4819 N.2       1 <0>        -0.4382
     11 C9         -3.4093   -3.2666   -3.6247 C.ar      1 <0>        -0.0956
     12 C10        -4.2271   -4.2964   -4.0940 C.ar      1 <0>        -0.0819
     13 C11        -5.4004   -3.9964   -4.7527 C.ar      1 <0>        -0.1289
     14 C12        -5.7720   -2.6772   -4.9517 C.ar      1 <0>        -0.0762
     15 C13        -4.9715   -1.6494   -4.4928 C.ar      1 <0>        -0.1508
     16 C14        -3.7915   -1.9336   -3.8230 C.ar      1 <0>         0.1734
     17 O1         -3.0070   -0.9245   -3.3662 O.3       1 <0>        -0.4679
     18 O2         -0.3345   -6.3734   -1.9302 O.2       1 <0>        -0.5242
     19 N3          1.3516   -4.1042   -0.9475 N.pl3     1 <0>        -0.4326
     20 H1          1.8795   -4.8654   -0.6599 H         1 <0>         0.4525
     21 N4          1.6756   -2.7552   -0.7524 N.2       1 <0>        -0.2260
     22 H2          1.0039    1.9031    0.0027 H         1 <0>         0.0550
     23 H3         -0.5459    1.8868   -0.8726 H         1 <0>         0.0584
     24 H4         -0.5289    1.8773    0.9072 H         1 <0>         0.0563
     25 H5          0.5293   -0.3651    0.8851 H         1 <0>         0.0622
     26 H6         -1.0205   -0.3814    0.0098 H         1 <0>         0.0683
     27 H7          0.1910   -0.1364   -2.1398 H         1 <0>         0.0949
     28 H8          1.7408   -0.1202   -1.2645 H         1 <0>         0.0844
     29 H9         -3.9408   -5.3265   -3.9416 H         1 <0>         0.1271
     30 H10        -6.0324   -4.7936   -5.1154 H         1 <0>         0.1349
     31 H11        -6.6926   -2.4509   -5.4691 H         1 <0>         0.1342
     32 H12        -5.2674   -0.6230   -4.6523 H         1 <0>         0.1392
     33 H13        -2.3451   -0.6219   -4.0028 H         1 <0>         0.3948
     34 H14        -2.3782   -5.5960   -3.0726 H         1 <0>         0.4230
@<TRIPOS>BOND
     1    1    2 1
     2    1   22 1
     3    1   23 1
     4    1   24 1
     5    2    3 1
     6    2   25 1
     7    2   26 1
     8    3    4 1
     9    3   27 1
    10    3   28 1
    11    4    5 1
    12    4   21 2
    13    5   10 1
    14    5    6 2
    15    6    7 1
    16    6   19 1
    17    7    8 am
    18    7   18 2
    19    8    9 1
    20    8   34 1
    21    9   10 2
    22    9   11 1
    23   11   16 ar
    24   11   12 ar
    25   12   13 ar
    26   12   29 1
    27   13   14 ar
    28   13   30 1
    29   14   15 ar
    30   14   31 1
    31   15   16 ar
    32   15   32 1
    33   16   17 1
    34   17   33 1
    35   19   20 1
    36   19   21 1
@<TRIPOS>MOLECULE
ZINC29485680
   34    36     0     0     0
SMALL
USER_CHARGES

@<TRIPOS>ATOM
      1 C1         -0.0187    1.5258    0.0104 C.3       1 <0>        -0.1515
      2 C2          0.0021   -0.0041    0.0020 C.3       1 <0>        -0.1189
      3 C3          0.7421   -0.5109    1.2415 C.3       1 <0>        -0.0436
      4 C4          0.7625   -2.0177    1.2333 C.2       1 <0>         0.0591
      5 C5          1.6710   -2.8195    0.5876 C.2       1 <0>         0.0122
      6 C6          1.2378   -4.1919    0.9039 C.2       1 <0>        -0.0667
      7 C7          2.0304   -5.2948    0.3425 C.2       1 <0>         0.6025
      8 O1          1.7370   -6.4561    0.5574 O.2       1 <0>        -0.4989
      9 N1          3.0983   -4.9707   -0.4226 N.am      1 <0>        -0.6503
     10 C8          3.4312   -3.6633   -0.6669 C.2       1 <0>         0.4147
     11 N2          2.7634   -2.6439   -0.1948 N.2       1 <0>        -0.4392
     12 C9          4.6115   -3.3916   -1.5115 C.ar      1 <0>        -0.0951
     13 C10         5.3527   -4.4487   -2.0430 C.ar      1 <0>        -0.0826
     14 C11         6.4534   -4.1885   -2.8312 C.ar      1 <0>        -0.1288
     15 C12         6.8278   -2.8823   -3.0986 C.ar      1 <0>        -0.0784
     16 C13         6.1028   -1.8277   -2.5788 C.ar      1 <0>        -0.1516
     17 C14         4.9903   -2.0718   -1.7887 C.ar      1 <0>         0.1712
     18 O2          4.2739   -1.0363   -1.2815 O.3       1 <0>        -0.4679
     19 N3          0.1759   -4.0756    1.6626 N.2       1 <0>        -0.2065
     20 H1         -0.8516   -2.5288    2.4019 H         1 <0>         0.4545
     21 N4         -0.1054   -2.8369    1.8641 N.pl3     1 <0>        -0.3624
     22 H2          1.0039    1.9031    0.0027 H         1 <0>         0.0593
     23 H3         -0.5459    1.8868   -0.8726 H         1 <0>         0.0577
     24 H4         -0.5289    1.8773    0.9072 H         1 <0>         0.0541
     25 H5         -1.0205   -0.3814    0.0098 H         1 <0>         0.0591
     26 H6          0.5123   -0.3556   -0.8948 H         1 <0>         0.0735
     27 H7          1.7647   -0.1336    1.2338 H         1 <0>         0.0991
     28 H8          0.2319   -0.1594    2.1383 H         1 <0>         0.0786
     29 H9          5.0643   -5.4689   -1.8366 H         1 <0>         0.1278
     30 H10         7.0264   -5.0068   -3.2417 H         1 <0>         0.1343
     31 H11         7.6916   -2.6871   -3.7168 H         1 <0>         0.1333
     32 H12         6.4007   -0.8116   -2.7916 H         1 <0>         0.1377
     33 H13         4.5802   -0.7328   -0.4160 H         1 <0>         0.3931
     34 H14         3.6399   -5.6782   -0.8060 H         1 <0>         0.4204
@<TRIPOS>BOND
     1    1    2 1
     2    1   22 1
     3    1   23 1
     4    1   24 1
     5    2    3 1
     6    2   25 1
     7    2   26 1
     8    3    4 1
     9    3   27 1
    10    3   28 1
    11    4    5 2
    12    4   21 1
    13    5   11 1
    14    5    6 1
    15    6    7 1
    16    6   19 2
    17    7    8 2
    18    7    9 am
    19    9   10 1
    20    9   34 1
    21   10   11 2
    22   10   12 1
    23   12   17 ar
    24   12   13 ar
    25   13   14 ar
    26   13   29 1
    27   14   15 ar
    28   14   30 1
    29   15   16 ar
    30   15   31 1
    31   16   17 ar
    32   16   32 1
    33   17   18 1
    34   18   33 1
    35   19   21 1
    36   20   21 1
@<TRIPOS>MOLECULE
ZINC13633707
   44    47     0     0     0
SMALL
USER_CHARGES
N-cyclohexyl-2-phenyl-quinazolin-4-amine
@<TRIPOS>ATOM
      1 C1         -4.7212   -4.2298    0.0258 C.ar      1 <0>        -0.0995
      2 C2         -4.7459   -2.8467    0.0334 C.ar      1 <0>        -0.1326
      3 C3         -3.5649   -2.1328    0.0260 C.ar      1 <0>        -0.0687
      4 C4         -2.3455   -2.8081    0.0108 C.ar      1 <0>        -0.0483
      5 C5         -2.3268   -4.2018   -0.0022 C.ar      1 <0>        -0.0688
      6 C6         -3.5141   -4.9052    0.0111 C.ar      1 <0>        -0.1338
      7 C7         -1.0732   -2.0466    0.0022 C.ar      1 <0>         0.4146
      8 N1         -1.1254   -0.7276    0.0093 N.ar      1 <0>        -0.5502
      9 C8          0.0021   -0.0041    0.0020 C.ar      1 <0>         0.1941
     10 C9         -0.0169    1.3981    0.0097 C.ar      1 <0>        -0.1120
     11 C10         1.1592    2.0871    0.0022 C.ar      1 <0>        -0.0738
     12 C11         2.3811    1.4204   -0.0131 C.ar      1 <0>        -0.1380
     13 C12         2.4356    0.0573   -0.0209 C.ar      1 <0>        -0.0670
     14 C13         1.2471   -0.6803   -0.0135 C.ar      1 <0>        -0.2036
     15 C14         1.2425   -2.0976   -0.0206 C.ar      1 <0>         0.4839
     16 N2          0.0743   -2.7219   -0.0123 N.ar      1 <0>        -0.5903
     17 N3          2.4238   -2.8083   -0.0361 N.pl3     1 <0>        -0.7050
     18 C15         2.3973   -4.2731   -0.0432 C.3       1 <0>         0.1548
     19 C16         2.2770   -4.7879    1.3925 C.3       1 <0>        -0.1273
     20 C17         2.2493   -6.3177    1.3851 C.3       1 <0>        -0.1170
     21 C18         3.5410   -6.8481    0.7597 C.3       1 <0>        -0.1233
     22 C19         3.6614   -6.3332   -0.6760 C.3       1 <0>        -0.1158
     23 C20         3.6890   -4.8035   -0.6686 C.3       1 <0>        -0.1273
     24 H1         -5.6479   -4.7843    0.0316 H         1 <0>         0.1243
     25 H2         -5.6912   -2.3246    0.0456 H         1 <0>         0.1270
     26 H3         -3.5853   -1.0530    0.0324 H         1 <0>         0.1366
     27 H4         -1.3851   -4.7302   -0.0186 H         1 <0>         0.1341
     28 H5         -3.5008   -5.9851    0.0052 H         1 <0>         0.1261
     29 H6         -0.9576    1.9287    0.0171 H         1 <0>         0.1387
     30 H7          1.1428    3.1670    0.0082 H         1 <0>         0.1324
     31 H8          3.2986    1.9901   -0.0188 H         1 <0>         0.1292
     32 H9          3.3897   -0.4487   -0.0324 H         1 <0>         0.1239
     33 H10         3.3862   -2.2756   -0.0431 H         1 <0>         0.4294
     34 H11         1.5245   -4.5788   -0.6388 H         1 <0>         0.0941
     35 H12         3.1391   -4.4396    1.9803 H         1 <0>         0.0614
     36 H13         1.3484   -4.4065    1.8422 H         1 <0>         0.0682
     37 H14         2.1627   -6.6878    2.4173 H         1 <0>         0.0650
     38 H15         1.3873   -6.6660    0.7972 H         1 <0>         0.0657
     39 H16         4.4030   -6.4998    1.3477 H         1 <0>         0.0624
     40 H17         3.5211   -7.9479    0.7544 H         1 <0>         0.0651
     41 H18         4.5901   -6.7145   -1.1256 H         1 <0>         0.0681
     42 H19         2.7995   -6.6815   -1.2640 H         1 <0>         0.0663
     43 H20         3.7755   -4.4333   -1.7008 H         1 <0>         0.0688
     44 H21         4.5510   -4.4552   -0.0807 H         1 <0>         0.0683
@<TRIPOS>BOND
     1    1    6 ar
     2    1    2 ar
     3    1   24 1
     4    2    3 ar
     5    2   25 1
     6    3    4 ar
     7    3   26 1
     8    4    5 ar
     9    4    7 1
    10    5    6 ar
    11    5   27 1
    12    6   28 1
    13    7   16 ar
    14    7    8 ar
    15    8    9 ar
    16    9   14 ar
    17    9   10 ar
    18   10   11 ar
    19   10   29 1
    20   11   12 ar
    21   11   30 1
    22   12   13 ar
    23   12   31 1
    24   13   14 ar
    25   13   32 1
    26   14   15 ar
    27   15   16 ar
    28   15   17 1
    29   17   18 1
    30   17   33 1
    31   18   23 1
    32   18   19 1
    33   18   34 1
    34   19   20 1
    35   19   35 1
    36   19   36 1
    37   20   21 1
    38   20   37 1
    39   20   38 1
    40   21   22 1
    41   21   39 1
    42   21   40 1
    43   22   23 1
    44   22   41 1
    45   22   42 1
    46   23   43 1
    47   23   44 1
@<TRIPOS>MOLECULE
ZINC00119346
   38    41     0     0     0
SMALL
USER_CHARGES

@<TRIPOS>ATOM
      1 C1         -0.0167    1.3791    0.0096 C.ar      1 <0>        -0.0986
      2 C2          1.1686    2.0923    0.0021 C.ar      1 <0>        -0.1324
      3 C3          2.3774    1.4267   -0.0134 C.ar      1 <0>        -0.0679
      4 C4          2.4025    0.0330   -0.0211 C.ar      1 <0>        -0.0497
      5 C5          1.2049   -0.6804   -0.0130 C.ar      1 <0>        -0.0690
      6 C6          0.0021   -0.0041    0.0020 C.ar      1 <0>        -0.1334
      7 C7          3.6981   -0.6880   -0.0382 C.ar      1 <0>         0.4151
      8 N1          4.8142    0.0169   -0.0405 N.ar      1 <0>        -0.5438
      9 C8          6.0045   -0.5975   -0.0554 C.ar      1 <0>         0.1945
     10 C9          7.2092    0.1202   -0.0577 C.ar      1 <0>        -0.1104
     11 C10         8.3940   -0.5537   -0.0728 C.ar      1 <0>        -0.0724
     12 C11         8.4277   -1.9453   -0.0863 C.ar      1 <0>        -0.1344
     13 C12         7.2746   -2.6742   -0.0849 C.ar      1 <0>        -0.0688
     14 C13         6.0416   -2.0139   -0.0687 C.ar      1 <0>        -0.2002
     15 C14         4.8119   -2.7187   -0.0654 C.ar      1 <0>         0.4807
     16 N2          3.6872   -2.0194   -0.0452 N.ar      1 <0>        -0.5879
     17 N3          4.7872   -4.0972   -0.0783 N.pl3     1 <0>        -0.6958
     18 C15         3.5056   -4.8068   -0.0747 C.3       1 <0>         0.2124
     19 C16         3.7544   -6.2931   -0.0907 C.2       1 <0>        -0.0481
     20 C17         3.8877   -7.0801    0.9920 C.2       1 <0>        -0.1769
     21 C18         4.1069   -8.3942    0.5187 C.2       1 <0>        -0.2186
     22 C19         4.0945   -8.3316   -0.8249 C.2       1 <0>        -0.0235
     23 O1          3.8748   -7.0575   -1.1884 O.3       1 <0>        -0.1709
     24 H1         -0.9603    1.9042    0.0260 H         1 <0>         0.1246
     25 H2          1.1479    3.1721    0.0081 H         1 <0>         0.1275
     26 H3          3.3022    1.9845   -0.0199 H         1 <0>         0.1370
     27 H4          1.2184   -1.7603   -0.0192 H         1 <0>         0.1350
     28 H5         -0.9264   -0.5557    0.0082 H         1 <0>         0.1268
     29 H6          7.1984    1.2001   -0.0481 H         1 <0>         0.1405
     30 H7          9.3210    0.0006   -0.0745 H         1 <0>         0.1340
     31 H8          9.3799   -2.4548   -0.0984 H         1 <0>         0.1306
     32 H9          7.3134   -3.7534   -0.0962 H         1 <0>         0.1243
     33 H10         5.6184   -4.5971   -0.0897 H         1 <0>         0.4148
     34 H11         2.9460   -4.5418    0.8224 H         1 <0>         0.1039
     35 H12         2.9317   -4.5250   -0.9574 H         1 <0>         0.0899
     36 H13         3.8374   -6.7679    2.0247 H         1 <0>         0.1518
     37 H14         4.2562   -9.2785    1.1205 H         1 <0>         0.1526
     38 H15         4.2336   -9.1652   -1.4973 H         1 <0>         0.2068
@<TRIPOS>BOND
     1    1    6 ar
     2    1    2 ar
     3    1   24 1
     4    2    3 ar
     5    2   25 1
     6    3    4 ar
     7    3   26 1
     8    4    5 ar
     9    4    7 1
    10    5    6 ar
    11    5   27 1
    12    6   28 1
    13    7   16 ar
    14    7    8 ar
    15    8    9 ar
    16    9   14 ar
    17    9   10 ar
    18   10   11 ar
    19   10   29 1
    20   11   12 ar
    21   11   30 1
    22   12   13 ar
    23   12   31 1
    24   13   14 ar
    25   13   32 1
    26   14   15 ar
    27   15   16 ar
    28   15   17 1
    29   17   18 1
    30   17   33 1
    31   18   19 1
    32   18   34 1
    33   18   35 1
    34   19   23 1
    35   19   20 2
    36   20   21 1
    37   20   36 1
    38   21   22 2
    39   21   37 1
    40   22   23 1
    41   22   38 1
@<TRIPOS>MOLECULE
ZINC02557949
   38    41     0     0     0
SMALL
USER_CHARGES

@<TRIPOS>ATOM
      1 C1          0.0248    1.4479    0.1258 C.ar      1 <0>        -0.1081
      2 C2          0.5882    0.9853    1.3016 C.ar      1 <0>        -0.1197
      3 C3          1.7868    0.3024    1.2737 C.ar      1 <0>        -0.1047
      4 C4          2.4306    0.0788    0.0565 C.ar      1 <0>        -0.0355
      5 C5          1.8573    0.5478   -1.1256 C.ar      1 <0>        -0.0815
      6 C6          0.6584    1.2294   -1.0845 C.ar      1 <0>        -0.1188
      7 C7          3.7173   -0.6530    0.0194 C.ar      1 <0>         0.1014
      8 C8          3.8966   -1.8339    0.7825 C.ar      1 <0>        -0.0335
      9 C9          2.8931   -2.3669    1.5965 C.ar      1 <0>        -0.1004
     10 C10         3.1386   -3.5085    2.3023 C.ar      1 <0>        -0.0891
     11 C11         4.3723   -4.1492    2.2236 C.ar      1 <0>        -0.1022
     12 C12         5.3723   -3.6547    1.4385 C.ar      1 <0>        -0.0893
     13 C13         5.1529   -2.4861    0.7021 C.ar      1 <0>        -0.1036
     14 C14         6.1394   -1.9127   -0.1339 C.ar      1 <0>         0.3628
     15 N1          5.8522   -0.8058   -0.7974 N.ar      1 <0>        -0.3143
     16 N2          4.7159   -0.2186   -0.7300 N.ar      1 <0>        -0.2079
     17 N3          7.3874   -2.5016   -0.2551 N.pl3     1 <0>        -0.6409
     18 C15         8.3911   -1.8666   -0.9912 C.ar      1 <0>         0.1686
     19 C16         8.4745   -0.4796   -1.0025 C.ar      1 <0>        -0.1096
     20 C17         9.4676    0.1454   -1.7304 C.ar      1 <0>        -0.0828
     21 C18        10.3789   -0.6072   -2.4484 C.ar      1 <0>        -0.1258
     22 C19        10.2993   -1.9887   -2.4397 C.ar      1 <0>        -0.0138
     23 C20         9.3109   -2.6205   -1.7084 C.ar      1 <0>        -0.1425
     24 Cl1        11.4452   -2.9293   -3.3430 Cl        1 <0>        -0.0654
     25 H1         -0.9158    1.9780    0.1524 H         1 <0>         0.1257
     26 H2          0.0890    1.1593    2.2434 H         1 <0>         0.1279
     27 H3          2.2259   -0.0580    2.1922 H         1 <0>         0.1266
     28 H4          2.3510    0.3778   -2.0711 H         1 <0>         0.1282
     29 H5          0.2136    1.5930   -1.9990 H         1 <0>         0.1279
     30 H6          1.9320   -1.8793    1.6664 H         1 <0>         0.1467
     31 H7          2.3643   -3.9213    2.9319 H         1 <0>         0.1364
     32 H8          4.5402   -5.0513    2.7932 H         1 <0>         0.1358
     33 H9          6.3250   -4.1609    1.3863 H         1 <0>         0.1321
     34 H10         7.5645   -3.3548    0.1710 H         1 <0>         0.4202
     35 H11         7.7628    0.1092   -0.4427 H         1 <0>         0.1410
     36 H12         9.5325    1.2234   -1.7392 H         1 <0>         0.1376
     37 H13        11.1543   -0.1157   -3.0173 H         1 <0>         0.1355
     38 H14         9.2512   -3.6988   -1.6984 H         1 <0>         0.1349
@<TRIPOS>BOND
     1    1    6 ar
     2    1    2 ar
     3    1   25 1
     4    2    3 ar
     5    2   26 1
     6    3    4 ar
     7    3   27 1
     8    4    5 ar
     9    4    7 1
    10    5    6 ar
    11    5   28 1
    12    6   29 1
    13    7   16 ar
    14    7    8 ar
    15    8   13 ar
    16    8    9 ar
    17    9   10 ar
    18    9   30 1
    19   10   11 ar
    20   10   31 1
    21   11   12 ar
    22   11   32 1
    23   12   13 ar
    24   12   33 1
    25   13   14 ar
    26   14   15 ar
    27   14   17 1
    28   15   16 ar
    29   17   18 1
    30   17   34 1
    31   18   23 ar
    32   18   19 ar
    33   19   20 ar
    34   19   35 1
    35   20   21 ar
    36   20   36 1
    37   21   22 ar
    38   21   37 1
    39   22   23 ar
    40   22   24 1
    41   23   38 1
@<TRIPOS>MOLECULE
ZINC03348213
   41    44     0     0     0
SMALL
USER_CHARGES
N-[(2-chlorophenyl)methyl]-2-phenyl-quinazolin-4-amine
@<TRIPOS>ATOM
      1 C1         -6.7915   -4.5785    2.4547 C.ar      1 <0>        -0.0991
      2 C2         -7.3535   -4.6396    1.1922 C.ar      1 <0>        -0.1326
      3 C3         -6.7247   -4.0330    0.1240 C.ar      1 <0>        -0.0682
      4 C4         -5.5207   -3.3582    0.3190 C.ar      1 <0>        -0.0489
      5 C5         -4.9561   -3.3049    1.5924 C.ar      1 <0>        -0.0688
      6 C6         -5.5970   -3.9099    2.6543 C.ar      1 <0>        -0.1336
      7 C7         -4.8399   -2.7049   -0.8249 C.ar      1 <0>         0.4149
      8 N1         -5.3980   -2.7784   -2.0189 N.ar      1 <0>        -0.5460
      9 C8         -4.8137   -2.2016   -3.0775 C.ar      1 <0>         0.1945
     10 C9         -5.3787   -2.2606   -4.3596 C.ar      1 <0>        -0.1111
     11 C10        -4.7431   -1.6570   -5.4035 C.ar      1 <0>        -0.0728
     12 C11        -3.5402   -0.9815   -5.2173 C.ar      1 <0>        -0.1357
     13 C12        -2.9633   -0.9049   -3.9835 C.ar      1 <0>        -0.0677
     14 C13        -3.5893   -1.5134   -2.8906 C.ar      1 <0>        -0.2007
     15 C14        -3.0364   -1.4669   -1.5864 C.ar      1 <0>         0.4820
     16 N2         -3.6884   -2.0732   -0.6058 N.ar      1 <0>        -0.5872
     17 N3         -1.8473   -0.8120   -1.3457 N.pl3     1 <0>        -0.6895
     18 C15        -1.2925   -0.7754    0.0097 C.3       1 <0>         0.1676
     19 C16         0.0021   -0.0041    0.0020 C.ar      1 <0>        -0.1084
     20 C17         1.2086   -0.6786   -0.0131 C.ar      1 <0>        -0.0857
     21 C18         2.3961    0.0287   -0.0207 C.ar      1 <0>        -0.1159
     22 C19         2.3780    1.4112   -0.0131 C.ar      1 <0>        -0.0960
     23 C20         1.1725    2.0866    0.0021 C.ar      1 <0>        -0.1123
     24 C21        -0.0167    1.3791    0.0096 C.ar      1 <0>        -0.0213
     25 Cl1        -1.5315    2.2269    0.0214 Cl        1 <0>        -0.0580
     26 H1         -7.2873   -5.0544    3.2878 H         1 <0>         0.1243
     27 H2         -8.2864   -5.1626    1.0423 H         1 <0>         0.1271
     28 H3         -7.1648   -4.0807   -0.8612 H         1 <0>         0.1368
     29 H4         -4.0213   -2.7870    1.7485 H         1 <0>         0.1348
     30 H5         -5.1629   -3.8652    3.6422 H         1 <0>         0.1264
     31 H6         -6.3116   -2.7808   -4.5188 H         1 <0>         0.1397
     32 H7         -5.1798   -1.7031   -6.3902 H         1 <0>         0.1332
     33 H8         -3.0573   -0.5114   -6.0612 H         1 <0>         0.1298
     34 H9         -2.0299   -0.3779   -3.8515 H         1 <0>         0.1233
     35 H10        -1.3779   -0.3755   -2.0738 H         1 <0>         0.4124
     36 H11        -1.1072   -1.7928    0.3541 H         1 <0>         0.0849
     37 H12        -2.0015   -0.2886    0.6795 H         1 <0>         0.0871
     38 H13         1.2234   -1.7585   -0.0194 H         1 <0>         0.1353
     39 H14         3.3385   -0.4987   -0.0329 H         1 <0>         0.1334
     40 H15         3.3061    1.9634   -0.0190 H         1 <0>         0.1355
     41 H16         1.1584    3.1665    0.0084 H         1 <0>         0.1367
@<TRIPOS>BOND
     1    1    6 ar
     2    1    2 ar
     3    1   26 1
     4    2    3 ar
     5    2   27 1
     6    3    4 ar
     7    3   28 1
     8    4    5 ar
     9    4    7 1
    10    5    6 ar
    11    5   29 1
    12    6   30 1
    13    7   16 ar
    14    7    8 ar
    15    8    9 ar
    16    9   14 ar
    17    9   10 ar
    18   10   11 ar
    19   10   31 1
    20   11   12 ar
    21   11   32 1
    22   12   13 ar
    23   12   33 1
    24   13   14 ar
    25   13   34 1
    26   14   15 ar
    27   15   16 ar
    28   15   17 1
    29   17   18 1
    30   17   35 1
    31   18   19 1
    32   18   36 1
    33   18   37 1
    34   19   24 ar
    35   19   20 ar
    36   20   21 ar
    37   20   38 1
    38   21   22 ar
    39   21   39 1
    40   22   23 ar
    41   22   40 1
    42   23   24 ar
    43   23   41 1
    44   24   25 1
@<TRIPOS>MOLECULE
ZINC03935899
   55    59     0     0     0
SMALL
USER_CHARGES
butyl-(4-methoxyphenyl)-BLAHdione
@<TRIPOS>ATOM
      1 C1          4.0359   -7.8754    4.7274 C.3       1 <0>        -0.1526
      2 C2          4.2328   -6.3604    4.8108 C.3       1 <0>        -0.1202
      3 C3          3.8546   -5.7226    3.4725 C.3       1 <0>        -0.1363
      4 C4          4.0514   -4.2076    3.5559 C.3       1 <0>         0.1177
      5 N1          3.6893   -3.5968    2.2745 N.am      1 <0>        -0.5758
      6 C5          4.5542   -3.3984    1.2588 C.2       1 <0>         0.5283
      7 O1          5.7294   -3.6950    1.2310 O.2       1 <0>        -0.4586
      8 C6          3.7547   -2.7289    0.1593 C.3       1 <0>         0.0852
      9 H1          4.1339   -1.7320   -0.0652 H         1 <0>         0.1366
     10 C7          3.7221   -3.6344   -1.0777 C.3       1 <0>        -0.0378
     11 C8          2.4880   -3.3289   -1.8889 C.2       1 <0>        -0.1549
     12 C9          2.2486   -3.6483   -3.2843 C.ar      1 <0>        -0.0993
     13 C10         3.0267   -4.2881   -4.2538 C.ar      1 <0>        -0.0659
     14 C11         2.4718   -4.4250   -5.5024 C.ar      1 <0>        -0.1466
     15 C12         1.2025   -3.9559   -5.7991 C.ar      1 <0>        -0.0958
     16 C13         0.4114   -3.3191   -4.8586 C.ar      1 <0>        -0.1294
     17 C14         0.9491   -3.1656   -3.5822 C.ar      1 <0>         0.1059
     18 N2          0.4558   -2.5990   -2.4426 N.pl3     1 <0>        -0.5707
     19 H2         -0.4189   -2.1886   -2.3564 H         1 <0>         0.4189
     20 C15         1.3795   -2.6986   -1.4397 C.2       1 <0>         0.0650
     21 C16         1.2256   -2.1871   -0.0209 C.3       1 <0>         0.2998
     22 H3          0.3063   -2.5739    0.4188 H         1 <0>         0.1218
     23 N3          2.3887   -2.6816    0.7260 N.am      1 <0>        -0.6102
     24 C17         2.4573   -3.1659    1.9673 C.2       1 <0>         0.7132
     25 O2          1.5127   -3.2118    2.7307 O.2       1 <0>        -0.5341
     26 C18         1.2080   -0.6802   -0.0131 C.ar      1 <0>        -0.1494
     27 C19         0.0618   -0.0052    0.3642 C.ar      1 <0>        -0.0581
     28 C20         0.0434    1.3761    0.3726 C.ar      1 <0>        -0.1493
     29 C21         1.1762    2.0860    0.0020 C.ar      1 <0>         0.1404
     30 C22         2.3252    1.4064   -0.3758 C.ar      1 <0>        -0.2071
     31 C23         2.3384    0.0251   -0.3829 C.ar      1 <0>        -0.0558
     32 O3          1.1604    3.4449    0.0090 O.3       1 <0>        -0.3150
     33 C24         2.3626    4.1097   -0.3844 C.3       1 <0>         0.0253
     34 H4          4.3054   -8.3298    5.6808 H         1 <0>         0.0573
     35 H5          2.9921   -8.0943    4.5027 H         1 <0>         0.0546
     36 H6          4.6701   -8.2814    3.9393 H         1 <0>         0.0546
     37 H7          5.2767   -6.1415    5.0355 H         1 <0>         0.0660
     38 H8          3.5986   -5.9544    5.5989 H         1 <0>         0.0666
     39 H9          2.8107   -5.9415    3.2478 H         1 <0>         0.0703
     40 H10         4.4887   -6.1285    2.6844 H         1 <0>         0.0684
     41 H11         5.0953   -3.9886    3.7806 H         1 <0>         0.0962
     42 H12         3.4173   -3.8016    4.3440 H         1 <0>         0.0984
     43 H13         4.6098   -3.4538   -1.6840 H         1 <0>         0.1004
     44 H14         3.7019   -4.6781   -0.7639 H         1 <0>         0.0844
     45 H15         4.0171   -4.6569   -4.0314 H         1 <0>         0.1305
     46 H16         3.0429   -4.9141   -6.2776 H         1 <0>         0.1199
     47 H17         0.8168   -4.0922   -6.7986 H         1 <0>         0.1225
     48 H18        -0.5768   -2.9582   -5.1027 H         1 <0>         0.1293
     49 H19        -0.8197   -0.5584    0.6529 H         1 <0>         0.1343
     50 H20        -0.8536    1.9028    0.6631 H         1 <0>         0.1363
     51 H21         3.2085    1.9568   -0.6640 H         1 <0>         0.1320
     52 H22         3.2325   -0.5044   -0.6772 H         1 <0>         0.1245
     53 H23         3.1726    3.8228    0.2862 H         1 <0>         0.0574
     54 H24         2.6179    3.8250   -1.4051 H         1 <0>         0.0574
     55 H25         2.2144    5.1884   -0.3343 H         1 <0>         0.1033
@<TRIPOS>BOND
     1    1    2 1
     2    1   34 1
     3    1   35 1
     4    1   36 1
     5    2    3 1
     6    2   37 1
     7    2   38 1
     8    3    4 1
     9    3   39 1
    10    3   40 1
    11    4    5 1
    12    4   41 1
    13    4   42 1
    14    5   24 am
    15    5    6 am
    16    6    7 2
    17    6    8 1
    18    8    9 1
    19    8   23 1
    20    8   10 1
    21   10   11 1
    22   10   43 1
    23   10   44 1
    24   11   20 2
    25   11   12 1
    26   12   17 ar
    27   12   13 ar
    28   13   14 ar
    29   13   45 1
    30   14   15 ar
    31   14   46 1
    32   15   16 ar
    33   15   47 1
    34   16   17 ar
    35   16   48 1
    36   17   18 1
    37   18   19 1
    38   18   20 1
    39   20   21 1
    40   21   22 1
    41   21   23 1
    42   21   26 1
    43   23   24 am
    44   24   25 2
    45   26   31 ar
    46   26   27 ar
    47   27   28 ar
    48   27   49 1
    49   28   29 ar
    50   28   50 1
    51   29   30 ar
    52   29   32 1
    53   30   31 ar
    54   30   51 1
    55   31   52 1
    56   32   33 1
    57   33   53 1
    58   33   54 1
    59   33   55 1
@<TRIPOS>MOLECULE
ZINC03872076
   51    53     0     0     0
SMALL
USER_CHARGES

@<TRIPOS>ATOM
      1 C1         -0.0178    1.4608    0.0101 C.3       1 <0>         0.0725
      2 N1          0.0021   -0.0041    0.0020 N.am      1 <0>        -0.6140
      3 C2          0.0241   -0.7433    1.2666 C.3       1 <0>         0.1380
      4 C3          1.2758   -0.3610    2.0591 C.3       1 <0>        -0.1258
      5 C4          1.2989   -1.1331    3.3798 C.3       1 <0>        -0.1181
      6 C5          0.0524   -0.7848    4.1959 C.3       1 <0>        -0.1220
      7 C6         -1.1993   -1.1671    3.4035 C.3       1 <0>        -0.1179
      8 C7         -1.2223   -0.3950    2.0828 C.3       1 <0>        -0.1271
      9 C8          0.0001   -0.6716   -1.1688 C.2       1 <0>         0.5148
     10 O1          0.0165   -1.8843   -1.1755 O.2       1 <0>        -0.5352
     11 C9         -0.0226    0.0888   -2.4697 C.3       1 <0>        -0.1362
     12 C10        -0.0202   -0.8991   -3.6380 C.3       1 <0>        -0.1055
     13 C11        -0.0433   -0.1270   -4.9587 C.3       1 <0>         0.0593
     14 O2         -0.0410   -1.0497   -6.0499 O.3       1 <0>        -0.3097
     15 C12        -0.0601   -0.5234   -7.3034 C.ar      1 <0>         0.1034
     16 C13        -0.0748    0.8591   -7.4744 C.ar      1 <0>        -0.1497
     17 C14        -0.0941    1.4099   -8.7364 C.ar      1 <0>        -0.1216
     18 C15        -0.0992    0.5834   -9.8554 C.ar      1 <0>         0.1483
     19 C16        -0.0844   -0.8138   -9.6872 C.ar      1 <0>        -0.0918
     20 C17        -0.0591   -1.3613   -8.4001 C.ar      1 <0>        -0.0933
     21 C18        -0.0893   -1.6718  -10.8735 C.2       1 <0>        -0.0192
     22 C19        -0.1082   -1.0868  -12.0966 C.2       1 <0>        -0.2069
     23 C20        -0.1225    0.3197  -12.2115 C.2       1 <0>         0.5329
     24 O3         -0.1393    0.8251  -13.3206 O.2       1 <0>        -0.5405
     25 N2         -0.1181    1.1162  -11.1284 N.am      1 <0>        -0.6292
     26 H1         -0.1283    2.0793  -11.2434 H         1 <0>         0.4150
     27 H2          1.0048    1.8381    0.0023 H         1 <0>         0.0586
     28 H3         -0.5450    1.8219   -0.8730 H         1 <0>         0.0732
     29 H4         -0.5280    1.8123    0.9069 H         1 <0>         0.0753
     30 H5          0.0368   -1.8138    1.0616 H         1 <0>         0.1019
     31 H6          2.1638   -0.6091    1.4777 H         1 <0>         0.0647
     32 H7          1.2632    0.7094    2.2641 H         1 <0>         0.0650
     33 H8          1.3115   -2.2035    3.1748 H         1 <0>         0.0652
     34 H9          2.1906   -0.8607    3.9444 H         1 <0>         0.0666
     35 H10         0.0688   -1.3348    5.1369 H         1 <0>         0.0649
     36 H11         0.0398    0.2857    4.4010 H         1 <0>         0.0623
     37 H12        -1.1866   -2.2375    3.1984 H         1 <0>         0.0653
     38 H13        -2.0872   -0.9190    3.9849 H         1 <0>         0.0666
     39 H14        -1.2349    0.6754    2.2878 H         1 <0>         0.0657
     40 H15        -2.1140   -0.6674    1.5182 H         1 <0>         0.0652
     41 H16        -0.9215    0.7036   -2.5156 H         1 <0>         0.0975
     42 H17         0.8582    0.7278   -2.5324 H         1 <0>         0.0973
     43 H18         0.8787   -1.5139   -3.5922 H         1 <0>         0.0837
     44 H19        -0.9010   -1.5381   -3.5753 H         1 <0>         0.0836
     45 H20        -0.9422    0.4877   -5.0046 H         1 <0>         0.0643
     46 H21         0.8376    0.5120   -5.0215 H         1 <0>         0.0643
     47 H22        -0.0713    1.5051   -6.6089 H         1 <0>         0.1380
     48 H23        -0.1058    2.4831   -8.8574 H         1 <0>         0.1381
     49 H24        -0.0432   -2.4328   -8.2655 H         1 <0>         0.1457
     50 H25        -0.0779   -2.7474  -10.7766 H         1 <0>         0.1493
     51 H26        -0.1118   -1.6993  -12.9861 H         1 <0>         0.1571
@<TRIPOS>BOND
     1    1    2 1
     2    1   27 1
     3    1   28 1
     4    1   29 1
     5    2    3 1
     6    2    9 am
     7    3    8 1
     8    3    4 1
     9    3   30 1
    10    4    5 1
    11    4   31 1
    12    4   32 1
    13    5    6 1
    14    5   33 1
    15    5   34 1
    16    6    7 1
    17    6   35 1
    18    6   36 1
    19    7    8 1
    20    7   37 1
    21    7   38 1
    22    8   39 1
    23    8   40 1
    24    9   10 2
    25    9   11 1
    26   11   12 1
    27   11   41 1
    28   11   42 1
    29   12   13 1
    30   12   43 1
    31   12   44 1
    32   13   14 1
    33   13   45 1
    34   13   46 1
    35   14   15 1
    36   15   20 ar
    37   15   16 ar
    38   16   17 ar
    39   16   47 1
    40   17   18 ar
    41   17   48 1
    42   18   25 1
    43   18   19 ar
    44   19   20 ar
    45   19   21 1
    46   20   49 1
    47   21   22 2
    48   21   50 1
    49   22   23 1
    50   22   51 1
    51   23   24 2
    52   23   25 am
    53   25   26 1
@<TRIPOS>MOLECULE
ZINC04199922
   43    45     0     0     0
SMALL
USER_CHARGES
4-(2-ethoxyphenyl)-9-methyl-7-propyl-3,5,6,8-tetrazabicyclo[4.3.0]nona-4,7,9-trien-2-one
@<TRIPOS>ATOM
      1 C1         -0.0366    1.0992   -2.4903 C.3       1 <0>        -0.1513
      2 C2         -0.7527    1.5927   -1.2315 C.3       1 <0>        -0.1161
      3 C3         -0.0127    1.0858    0.0080 C.3       1 <0>        -0.0374
      4 C4         -0.7181    1.5718    1.2479 C.2       1 <0>         0.2916
      5 N1         -1.6792    0.9333    1.8731 N.2       1 <0>        -0.4782
      6 C5         -2.0791    1.6416    2.9301 C.2       1 <0>         0.1312
      7 C6         -1.3236    2.7873    2.9653 C.2       1 <0>        -0.1680
      8 N2         -0.4575    2.7212    1.8873 N.pl3     1 <0>        -0.2802
      9 N3          0.4363    3.7734    1.6691 N.2       1 <0>        -0.2699
     10 C7          0.4733    4.8020    2.4664 C.2       1 <0>         0.4200
     11 N4         -0.3605    4.9215    3.5598 N.am      1 <0>        -0.6726
     12 H1         -0.2981    5.7294    4.1457 H         1 <0>         0.4275
     13 C8         -1.2610    3.9540    3.8443 C.2       1 <0>         0.6004
     14 O1         -2.0005    4.0519    4.8066 O.2       1 <0>        -0.4912
     15 C9          1.4435    5.8816    2.1903 C.ar      1 <0>        -0.1102
     16 C10         1.5078    6.9976    3.0258 C.ar      1 <0>        -0.0467
     17 C11         2.4158    8.0018    2.7633 C.ar      1 <0>        -0.1566
     18 C12         3.2647    7.9078    1.6735 C.ar      1 <0>        -0.0434
     19 C13         3.2106    6.8080    0.8391 C.ar      1 <0>        -0.2141
     20 C14         2.3074    5.7877    1.0922 C.ar      1 <0>         0.1915
     21 O2          2.2572    4.7037    0.2762 O.3       1 <0>        -0.2774
     22 C15         3.1688    4.6771   -0.8240 C.3       1 <0>         0.0476
     23 C16         2.9655    3.3888   -1.6238 C.3       1 <0>        -0.1528
     24 C17        -3.1605    1.2552    3.9061 C.3       1 <0>        -0.0779
     25 H2          0.9860    1.4765   -2.4981 H         1 <0>         0.0571
     26 H3         -0.0218    0.0093   -2.4963 H         1 <0>         0.0585
     27 H4         -0.5637    1.4603   -3.3734 H         1 <0>         0.0579
     28 H5         -1.7753    1.2154   -1.2238 H         1 <0>         0.0691
     29 H6         -0.7675    2.6825   -1.2255 H         1 <0>         0.0624
     30 H7          0.0021   -0.0041    0.0020 H         1 <0>         0.0997
     31 H8          1.0099    1.4631    0.0003 H         1 <0>         0.0905
     32 H9          0.8471    7.0749    3.8766 H         1 <0>         0.1334
     33 H10         2.4651    8.8649    3.4105 H         1 <0>         0.1379
     34 H11         3.9732    8.6983    1.4749 H         1 <0>         0.1359
     35 H12         3.8756    6.7415   -0.0093 H         1 <0>         0.1401
     36 H13         2.9862    5.5373   -1.4680 H         1 <0>         0.0650
     37 H14         4.1917    4.7145   -0.4492 H         1 <0>         0.0648
     38 H15         3.1481    2.5286   -0.9798 H         1 <0>         0.0677
     39 H16         1.9426    3.3514   -1.9985 H         1 <0>         0.0702
     40 H17         3.6608    3.3685   -2.4630 H         1 <0>         0.0797
     41 H18        -2.7235    0.6841    4.7252 H         1 <0>         0.0811
     42 H19        -3.6316    2.1552    4.3014 H         1 <0>         0.0829
     43 H20        -3.9085    0.6470    3.3975 H         1 <0>         0.0806
@<TRIPOS>BOND
     1    1    2 1
     2    1   25 1
     3    1   26 1
     4    1   27 1
     5    2    3 1
     6    2   28 1
     7    2   29 1
     8    3    4 1
     9    3   30 1
    10    3   31 1
    11    4    8 1
    12    4    5 2
    13    5    6 1
    14    6    7 2
    15    6   24 1
    16    7   13 1
    17    7    8 1
    18    8    9 1
    19    9   10 2
    20   10   11 1
    21   10   15 1
    22   11   12 1
    23   11   13 am
    24   13   14 2
    25   15   20 ar
    26   15   16 ar
    27   16   17 ar
    28   16   32 1
    29   17   18 ar
    30   17   33 1
    31   18   19 ar
    32   18   34 1
    33   19   20 ar
    34   19   35 1
    35   20   21 1
    36   21   22 1
    37   22   23 1
    38   22   36 1
    39   22   37 1
    40   23   38 1
    41   23   39 1
    42   23   40 1
    43   24   41 1
    44   24   42 1
    45   24   43 1
@<TRIPOS>MOLECULE
ZINC04270243
   30    31     0     0     0
SMALL
USER_CHARGES

@<TRIPOS>ATOM
      1 C1         -0.0167    1.3794    0.0096 C.ar      1 <0>        -0.0841
      2 C2          1.1683    2.0936    0.0021 C.ar      1 <0>        -0.1260
      3 C3          2.3774    1.4296   -0.0130 C.ar      1 <0>        -0.0510
      4 C4          2.4035    0.0338   -0.0208 C.ar      1 <0>        -0.1374
      5 C5          1.2042   -0.6806   -0.0131 C.ar      1 <0>        -0.0825
      6 C6          0.0021   -0.0041    0.0020 C.ar      1 <0>        -0.1249
      7 C7          3.6952   -0.6843   -0.0375 C.2       1 <0>         0.5639
      8 O1          4.7379   -0.0595   -0.0445 O.2       1 <0>        -0.4967
      9 N1          3.7170   -2.0319   -0.0449 N.am      1 <0>        -0.6081
     10 C8          4.9308   -2.7067   -0.0606 C.2       1 <0>         0.2506
     11 N2          5.1444   -4.0049   -0.0751 N.2       1 <0>        -0.5300
     12 C9          6.3703   -4.4945   -0.0890 C.2       1 <0>         0.0992
     13 C10         7.3905   -3.6015   -0.0877 C.2       1 <0>        -0.2747
     14 S1          6.4856   -2.0624   -0.0732 S.3       1 <0>         0.2266
     15 C11         6.6245   -5.9798   -0.1051 C.3       1 <0>        -0.0501
     16 C12         5.9143   -6.6236    1.0577 C.2       1 <0>         0.5261
     17 O2          5.2656   -5.9433    1.8240 O.2       1 <0>        -0.4982
     18 N3          6.0000   -7.9554    1.2460 N.am      1 <0>        -0.6017
     19 O3          5.3326   -8.5603    2.3385 O.3       1 <0>        -0.3191
     20 H1         -0.9605    1.9042    0.0260 H         1 <0>         0.1319
     21 H2          1.1467    3.1734    0.0078 H         1 <0>         0.1352
     22 H3          3.3017    1.9882   -0.0192 H         1 <0>         0.1409
     23 H4          1.2175   -1.7605   -0.0194 H         1 <0>         0.1277
     24 H5         -0.9265   -0.5555    0.0079 H         1 <0>         0.1338
     25 H6          2.8849   -2.5304   -0.0393 H         1 <0>         0.4241
     26 H7          8.4566   -3.7737   -0.0973 H         1 <0>         0.1978
     27 H8          6.2511   -6.4022   -1.0380 H         1 <0>         0.1149
     28 H9          7.6955   -6.1660   -0.0250 H         1 <0>         0.1177
     29 H10         6.5188   -8.4995    0.6330 H         1 <0>         0.4072
     30 H11         5.4525   -9.5185    2.3910 H         1 <0>         0.3869
@<TRIPOS>BOND
     1    1    6 ar
     2    1    2 ar
     3    1   20 1
     4    2    3 ar
     5    2   21 1
     6    3    4 ar
     7    3   22 1
     8    4    5 ar
     9    4    7 1
    10    5    6 ar
    11    5   23 1
    12    6   24 1
    13    7    8 2
    14    7    9 am
    15    9   10 1
    16    9   25 1
    17   10   14 1
    18   10   11 2
    19   11   12 1
    20   12   13 2
    21   12   15 1
    22   13   14 1
    23   13   26 1
    24   15   16 1
    25   15   27 1
    26   15   28 1
    27   16   17 2
    28   16   18 am
    29   18   19 1
    30   18   29 1
    31   19   30 1
@<TRIPOS>MOLECULE
ZINC00021406
   43    45     0     0     0
SMALL
USER_CHARGES

@<TRIPOS>ATOM
      1 C1         -0.1630    1.4918    0.0164 C.3       1 <0>        -0.1241
      2 C2         -0.0670   -0.0121    0.0067 C.2       1 <0>        -0.1225
      3 C3          0.1206   -0.6637    1.1276 C.2       1 <0>        -0.1678
      4 C4          0.1232    0.0784    2.4392 C.3       1 <0>        -0.0457
      5 C5         -0.8640   -0.5621    3.3807 C.ar      1 <0>        -0.1353
      6 C6         -2.1823   -0.1328    3.3995 C.ar      1 <0>         0.1925
      7 C7         -3.1045   -0.7140    4.2625 C.ar      1 <0>        -0.2008
      8 C8         -2.7137   -1.7305    5.1148 C.ar      1 <0>         0.2137
      9 C9         -1.3840   -2.1689    5.1010 C.ar      1 <0>        -0.2618
     10 C10        -0.4550   -1.5837    4.2231 C.ar      1 <0>         0.1823
     11 O1          0.8234   -2.0171    4.2134 O.3       1 <0>        -0.2139
     12 C11         1.2519   -3.0041    5.0162 C.2       1 <0>         0.2089
     13 C12         0.4317   -3.6386    5.8965 C.2       1 <0>        -0.3129
     14 C13        -0.9251   -3.2480    5.9921 C.2       1 <0>         0.4230
     15 O2         -1.6890   -3.7951    6.7709 O.2       1 <0>        -0.4543
     16 C14         2.6661   -3.4165    4.9406 C.ar      1 <0>        -0.0843
     17 C15         3.1411   -4.4449    5.7594 C.ar      1 <0>        -0.0615
     18 C16         4.4622   -4.8271    5.6851 C.ar      1 <0>        -0.1474
     19 C17         5.3226   -4.1918    4.7977 C.ar      1 <0>         0.1357
     20 C18         4.8547   -3.1685    3.9821 C.ar      1 <0>        -0.1494
     21 C19         3.5338   -2.7839    4.0457 C.ar      1 <0>        -0.0601
     22 O3          6.6241   -4.5717    4.7278 O.3       1 <0>        -0.4966
     23 O4         -3.6121   -2.2986    5.9586 O.3       1 <0>        -0.4721
     24 O5         -2.5763    0.8650    2.5676 O.3       1 <0>        -0.4824
     25 C20        -0.1869   -0.7665   -1.2924 C.3       1 <0>        -0.1203
     26 H1          0.7225    1.9093    0.4957 H         1 <0>         0.0668
     27 H2         -0.2284    1.8583   -1.0081 H         1 <0>         0.0615
     28 H3         -1.0524    1.7956    0.5685 H         1 <0>         0.0728
     29 H4          0.2735   -1.7327    1.1117 H         1 <0>         0.1080
     30 H5          1.1206    0.0392    2.8769 H         1 <0>         0.0852
     31 H6         -0.1585    1.1176    2.2692 H         1 <0>         0.0948
     32 H7         -4.1285   -0.3706    4.2675 H         1 <0>         0.1498
     33 H8          0.8158   -4.4283    6.5252 H         1 <0>         0.1629
     34 H9          2.4732   -4.9388    6.4495 H         1 <0>         0.1412
     35 H10         4.8301   -5.6214    6.3177 H         1 <0>         0.1412
     36 H11         5.5268   -2.6772    3.2941 H         1 <0>         0.1389
     37 H12         3.1698   -1.9918    3.4081 H         1 <0>         0.1400
     38 H13         6.7951   -5.2730    4.0844 H         1 <0>         0.3982
     39 H14        -4.0760   -3.0602    5.5845 H         1 <0>         0.4019
     40 H15        -2.8935    0.5576    1.7073 H         1 <0>         0.4002
     41 H16        -0.3386   -0.0611   -2.1094 H         1 <0>         0.0633
     42 H17         0.7263   -1.3350   -1.4680 H         1 <0>         0.0654
     43 H18        -1.0352   -1.4489   -1.2393 H         1 <0>         0.0654
@<TRIPOS>BOND
     1    1    2 1
     2    1   26 1
     3    1   27 1
     4    1   28 1
     5    2    3 2
     6    2   25 1
     7    3    4 1
     8    3   29 1
     9    4    5 1
    10    4   30 1
    11    4   31 1
    12    5   10 ar
    13    5    6 ar
    14    6    7 ar
    15    6   24 1
    16    7    8 ar
    17    7   32 1
    18    8    9 ar
    19    8   23 1
    20    9   14 1
    21    9   10 ar
    22   10   11 1
    23   11   12 1
    24   12   13 2
    25   12   16 1
    26   13   14 1
    27   13   33 1
    28   14   15 2
    29   16   21 ar
    30   16   17 ar
    31   17   18 ar
    32   17   34 1
    33   18   19 ar
    34   18   35 1
    35   19   20 ar
    36   19   22 1
    37   20   21 ar
    38   20   36 1
    39   21   37 1
    40   22   38 1
    41   23   39 1
    42   24   40 1
    43   25   41 1
    44   25   42 1
    45   25   43 1
@<TRIPOS>MOLECULE
ZINC14955547
   48    50     0     0     0
SMALL
USER_CHARGES
5-(5-acetyl-2-ethoxy-phenyl)-1-methyl-3-propyl-6H-pyrazolo[5,4-e]pyrimidin-7-one
@<TRIPOS>ATOM
      1 C1         -0.0366    1.0992   -2.4903 C.3       1 <0>        -0.1517
      2 C2         -0.7527    1.5927   -1.2315 C.3       1 <0>        -0.1157
      3 C3         -0.0127    1.0858    0.0080 C.3       1 <0>        -0.0366
      4 C4         -0.7181    1.5718    1.2479 C.2       1 <0>         0.1072
      5 C5         -0.4502    2.7773    1.9251 C.2       1 <0>         0.0456
      6 C6         -1.3285    2.8376    3.0148 C.2       1 <0>        -0.0376
      7 C7         -1.2751    3.9612    3.8718 C.2       1 <0>         0.5712
      8 O1         -2.0196    4.0492    4.8329 O.2       1 <0>        -0.5244
      9 N1         -0.3788    4.9352    3.5991 N.am      1 <0>        -0.6319
     10 H1         -0.3239    5.7152    4.1732 H         1 <0>         0.4225
     11 C8          0.4518    4.8263    2.5171 C.2       1 <0>         0.4022
     12 N2          0.4137    3.7909    1.7141 N.2       1 <0>        -0.4317
     13 C9          1.4201    5.9079    2.2456 C.ar      1 <0>        -0.1099
     14 C10         1.4758    7.0200    3.0796 C.ar      1 <0>         0.0014
     15 C11         2.3981    8.0360    2.8188 C.ar      1 <0>        -0.2141
     16 C12         3.2547    7.9363    1.7134 C.ar      1 <0>        -0.0047
     17 C13         3.1938    6.8378    0.8874 C.ar      1 <0>        -0.2277
     18 C14         2.2830    5.8196    1.1420 C.ar      1 <0>         0.2229
     19 O2          2.2282    4.7404    0.3245 O.3       1 <0>        -0.2593
     20 C15         3.1352    4.7160   -0.7795 C.3       1 <0>         0.0432
     21 C16         2.9269    3.4304   -1.5824 C.3       1 <0>        -0.1523
     22 C17         2.4663    9.2106    3.6984 C.2       1 <0>         0.3974
     23 O3          1.7249    9.2962    4.6545 O.2       1 <0>        -0.4579
     24 C18         3.4575   10.3092    3.4127 C.3       1 <0>        -0.1928
     25 N3         -2.0829    1.6978    2.9821 N.pl3     1 <0>        -0.3311
     26 N4         -1.6746    0.9423    1.8751 N.2       1 <0>        -0.2335
     27 C19        -3.1326    1.3312    3.9360 C.3       1 <0>         0.0999
     28 H2         -0.5637    1.4603   -3.3734 H         1 <0>         0.0561
     29 H3          0.9860    1.4765   -2.4981 H         1 <0>         0.0580
     30 H4         -0.0218    0.0093   -2.4963 H         1 <0>         0.0557
     31 H5         -1.7753    1.2154   -1.2238 H         1 <0>         0.0624
     32 H6         -0.7675    2.6825   -1.2255 H         1 <0>         0.0667
     33 H7          0.0021   -0.0041    0.0020 H         1 <0>         0.0826
     34 H8          1.0099    1.4631    0.0003 H         1 <0>         0.0940
     35 H9          0.8110    7.0957    3.9274 H         1 <0>         0.1407
     36 H10         3.9644    8.7245    1.5095 H         1 <0>         0.1428
     37 H11         3.8562    6.7666    0.0374 H         1 <0>         0.1456
     38 H12         2.9510    5.5784   -1.4202 H         1 <0>         0.0659
     39 H13         4.1597    4.7509   -0.4089 H         1 <0>         0.0658
     40 H14         1.9024    3.3955   -1.9530 H         1 <0>         0.0713
     41 H15         3.6187    3.4118   -2.4245 H         1 <0>         0.0782
     42 H16         3.1111    2.5680   -0.9417 H         1 <0>         0.0690
     43 H17         3.2760   10.6949    2.5081 H         1 <0>         0.0851
     44 H18         3.3614   11.0904    4.1668 H         1 <0>         0.0871
     45 H19         4.4683    9.9022    3.4380 H         1 <0>         0.0951
     46 H20        -2.6953    0.7622    4.7566 H         1 <0>         0.0818
     47 H21        -3.5987    2.2350    4.3285 H         1 <0>         0.0997
     48 H22        -3.8847    0.7235    3.4329 H         1 <0>         0.0960
@<TRIPOS>BOND
     1    1    2 1
     2    1   28 1
     3    1   29 1
     4    1   30 1
     5    2    3 1
     6    2   31 1
     7    2   32 1
     8    3    4 1
     9    3   33 1
    10    3   34 1
    11    4   26 2
    12    4    5 1
    13    5   12 1
    14    5    6 2
    15    6    7 1
    16    6   25 1
    17    7    8 2
    18    7    9 am
    19    9   10 1
    20    9   11 1
    21   11   12 2
    22   11   13 1
    23   13   18 ar
    24   13   14 ar
    25   14   15 ar
    26   14   35 1
    27   15   16 ar
    28   15   22 1
    29   16   17 ar
    30   16   36 1
    31   17   18 ar
    32   17   37 1
    33   18   19 1
    34   19   20 1
    35   20   21 1
    36   20   38 1
    37   20   39 1
    38   21   40 1
    39   21   41 1
    40   21   42 1
    41   22   23 2
    42   22   24 1
    43   24   43 1
    44   24   44 1
    45   24   45 1
    46   25   26 1
    47   25   27 1
    48   27   46 1
    49   27   47 1
    50   27   48 1
