@<TRIPOS>MOLECULE
ZINC06507046
   30    32     0     0     0
SMALL
USER_CHARGES

@<TRIPOS>ATOM
      1 C1         -0.0187    1.5258    0.0104 C.3       1 <0>        -0.1516
      2 C2          0.0021   -0.0041    0.0020 C.3       1 <0>         0.0576
      3 O1          0.6932   -0.4774    1.1597 O.3       1 <0>        -0.3290
      4 C3          0.8010   -1.8125    1.3044 C.2       1 <0>         0.5310
      5 O2          0.3215   -2.5545    0.4707 O.2       1 <0>        -0.5021
      6 C4          1.5026   -2.3743    2.4772 C.ar      1 <0>         0.0402
      7 C5          1.6143   -3.7553    2.6160 C.ar      1 <0>        -0.0333
      8 C6          2.2792   -4.2624    3.7284 C.ar      1 <0>        -0.0831
      9 C7          2.5953   -5.6144    4.2150 C.ar      1 <0>        -0.1038
     10 C8          2.3393   -6.8954    3.7304 C.ar      1 <0>        -0.0556
     11 C9          2.7783   -7.9949    4.4350 C.ar      1 <0>        -0.1428
     12 C10         3.4736   -7.8308    5.6237 C.ar      1 <0>        -0.0754
     13 C11         3.7339   -6.5702    6.1150 C.ar      1 <0>        -0.1379
     14 C12         3.2989   -5.4466    5.4180 C.ar      1 <0>         0.1403
     15 N1          3.4169   -4.0919    5.6699 N.pl3     1 <0>        -0.5953
     16 C13         2.8128   -3.3630    4.6699 C.ar      1 <0>         0.1173
     17 C14         2.6538   -1.9943    4.4511 C.ar      1 <0>         0.0980
     18 N2          2.0253   -1.5542    3.3864 N.ar      1 <0>        -0.4039
     19 H1          1.0039    1.9031    0.0027 H         1 <0>         0.0677
     20 H2         -0.5459    1.8868   -0.8726 H         1 <0>         0.0803
     21 H3         -0.5289    1.8773    0.9072 H         1 <0>         0.0677
     22 H4         -1.0205   -0.3814    0.0098 H         1 <0>         0.0690
     23 H5          0.5123   -0.3556   -0.8948 H         1 <0>         0.0690
     24 H6          1.1933   -4.4194    1.8756 H         1 <0>         0.1539
     25 H7          1.7978   -7.0261    2.8052 H         1 <0>         0.1310
     26 H8          2.5801   -8.9882    4.0604 H         1 <0>         0.1325
     27 H9          3.8135   -8.6987    6.1693 H         1 <0>         0.1343
     28 H10         4.2762   -6.4537    7.0417 H         1 <0>         0.1294
     29 H11         3.0568   -1.2892    5.1630 H         1 <0>         0.1699
     30 H12         3.8619   -3.7092    6.4422 H         1 <0>         0.4248
@<TRIPOS>BOND
     1    1    2 1
     2    1   19 1
     3    1   20 1
     4    1   21 1
     5    2    3 1
     6    2   22 1
     7    2   23 1
     8    3    4 1
     9    4    5 2
    10    4    6 1
    11    6   18 ar
    12    6    7 ar
    13    7    8 ar
    14    7   24 1
    15    8   16 ar
    16    8    9 1
    17    9   14 ar
    18    9   10 ar
    19   10   11 ar
    20   10   25 1
    21   11   12 ar
    22   11   26 1
    23   12   13 ar
    24   12   27 1
    25   13   14 ar
    26   13   28 1
    27   14   15 1
    28   15   16 1
    29   15   30 1
    30   16   17 ar
    31   17   18 ar
    32   17   29 1
@<TRIPOS>MOLECULE
ZINC06507046
   31    33     0     0     0
SMALL
USER_CHARGES

@<TRIPOS>ATOM
      1 C1         -0.0187    1.5258    0.0104 C.3       1 <0>        -0.1574
      2 C2          0.0021   -0.0041    0.0020 C.3       1 <0>         0.0635
      3 O1          0.6709   -0.4649   -1.1737 O.3       1 <0>        -0.3539
      4 C3          0.7758   -1.7984   -1.3347 C.2       1 <0>         0.5063
      5 O2          0.3122   -2.5493   -0.5000 O.2       1 <0>        -0.4447
      6 C4          1.4548   -2.3474   -2.5266 C.ar      1 <0>         0.0584
      7 C5          1.5538   -3.7270   -2.6880 C.ar      1 <0>         0.0150
      8 C6          2.1974   -4.2220   -3.8182 C.ar      1 <0>        -0.0128
      9 C7          2.4947   -5.5688   -4.3305 C.ar      1 <0>        -0.1156
     10 C8          2.2352   -6.8550   -3.8620 C.ar      1 <0>        -0.0440
     11 C9          2.6535   -7.9469   -4.5907 C.ar      1 <0>        -0.1219
     12 C10         3.3312   -7.7700   -5.7877 C.ar      1 <0>        -0.0454
     13 C11         3.5947   -6.5040   -6.2632 C.ar      1 <0>        -0.1296
     14 C12         3.1805   -5.3879   -5.5419 C.ar      1 <0>         0.1539
     15 N1          3.3056   -4.0304   -5.7748 N.pl3     1 <0>        -0.5653
     16 C13         2.7234   -3.3124   -4.7542 C.ar      1 <0>         0.1319
     17 C14         2.5790   -1.9460   -4.5119 C.ar      1 <0>         0.1494
     18 N2          1.9602   -1.5175   -3.4368 N.ar      1 <0>        -0.3940
     19 H1          1.0039    1.9031    0.0027 H         1 <0>         0.0711
     20 H2         -0.5459    1.8868   -0.8726 H         1 <0>         0.0710
     21 H3         -0.5289    1.8773    0.9072 H         1 <0>         0.0933
     22 H4          0.5293   -0.3651    0.8851 H         1 <0>         0.0826
     23 H5         -1.0205   -0.3814    0.0098 H         1 <0>         0.0826
     24 H6          1.1398   -4.3991   -1.9509 H         1 <0>         0.1968
     25 H7          1.7080   -6.9958   -2.9300 H         1 <0>         0.1443
     26 H8          2.4532   -8.9444   -4.2283 H         1 <0>         0.1478
     27 H9          3.6554   -8.6320   -6.3518 H         1 <0>         0.1500
     28 H10         4.1232   -6.3775   -7.1965 H         1 <0>         0.1440
     29 H11         2.9763   -1.2332   -5.2193 H         1 <0>         0.2207
     30 H12         3.7422   -3.6394   -6.5476 H         1 <0>         0.4401
     31 H13         1.8718   -0.5616   -3.2980 H         1 <0>         0.4618
@<TRIPOS>BOND
     1    1    2 1
     2    1   19 1
     3    1   20 1
     4    1   21 1
     5    2    3 1
     6    2   22 1
     7    2   23 1
     8    3    4 1
     9    4    5 2
    10    4    6 1
    11    6   18 ar
    12    6    7 ar
    13    7    8 ar
    14    7   24 1
    15    8   16 ar
    16    8    9 1
    17    9   14 ar
    18    9   10 ar
    19   10   11 ar
    20   10   25 1
    21   11   12 ar
    22   11   26 1
    23   12   13 ar
    24   12   27 1
    25   13   14 ar
    26   13   28 1
    27   14   15 1
    28   15   16 1
    29   15   30 1
    30   16   17 ar
    31   17   18 ar
    32   17   29 1
    33   18   31 1
@<TRIPOS>MOLECULE
ZINC01550701
   55    59     0     0     0
SMALL
USER_CHARGES
butyl-(4-methoxyphenyl)BLAHdione
@<TRIPOS>ATOM
      1 C1          8.2153   -0.5213   -3.3610 C.3       1 <0>        -0.1523
      2 C2          6.9894   -1.2032   -3.9716 C.3       1 <0>        -0.1203
      3 C3          6.0542   -1.6677   -2.8533 C.3       1 <0>        -0.1354
      4 C4          4.8283   -2.3496   -3.4639 C.3       1 <0>         0.1183
      5 N1          3.9328   -2.7943   -2.3930 N.am      1 <0>        -0.5773
      6 C5          3.9990   -4.0062   -1.8049 C.2       1 <0>         0.5268
      7 O1          4.7903   -4.8928   -2.0448 O.2       1 <0>        -0.4594
      8 C6          2.8806   -4.0320   -0.7828 C.3       1 <0>         0.0921
      9 H1          2.1450   -4.8038   -1.0092 H         1 <0>         0.1398
     10 C7          3.4722   -4.1829    0.6237 C.3       1 <0>        -0.0375
     11 C8          2.5208   -3.5916    1.6334 C.2       1 <0>        -0.1554
     12 C9          2.4820   -3.8450    3.0621 C.ar      1 <0>        -0.0997
     13 C10         3.2501   -4.6614    3.8977 C.ar      1 <0>        -0.0659
     14 C11         2.9306   -4.6560    5.2332 C.ar      1 <0>        -0.1469
     15 C12         1.8986   -3.8832    5.7400 C.ar      1 <0>        -0.0959
     16 C13         1.1223   -3.0674    4.9353 C.ar      1 <0>        -0.1294
     17 C14         1.4237   -3.0529    3.5748 C.ar      1 <0>         0.1056
     18 N2          0.8734   -2.3808    2.5219 N.pl3     1 <0>        -0.5697
     19 H2          0.1285   -1.7624    2.5819 H         1 <0>         0.4188
     20 C15         1.5297   -2.7114    1.3687 C.2       1 <0>         0.0631
     21 C16         1.2256   -2.1871   -0.0209 C.3       1 <0>         0.3027
     22 H3          0.2645   -2.5705   -0.3637 H         1 <0>         0.1076
     23 N3          2.3024   -2.6744   -0.8917 N.am      1 <0>        -0.6164
     24 C17         2.9464   -2.0468   -1.8774 C.2       1 <0>         0.7060
     25 O2          2.6712   -0.9275   -2.2628 O.2       1 <0>        -0.5205
     26 C18         1.2080   -0.6802   -0.0131 C.ar      1 <0>        -0.1467
     27 C19         0.0021   -0.0041    0.0020 C.ar      1 <0>        -0.0628
     28 C20        -0.0167    1.3772    0.0096 C.ar      1 <0>        -0.1565
     29 C21         1.1759    2.0860    0.0020 C.ar      1 <0>         0.1432
     30 C22         2.3846    1.4052   -0.0127 C.ar      1 <0>        -0.2072
     31 C23         2.3980    0.0239   -0.0207 C.ar      1 <0>        -0.0080
     32 O3          1.1601    3.4449    0.0090 O.3       1 <0>        -0.3164
     33 C24         2.4257    4.1084    0.0005 C.3       1 <0>         0.0265
     34 H4          8.7408   -1.2269   -2.7175 H         1 <0>         0.0547
     35 H5          8.8816   -0.1904   -4.1577 H         1 <0>         0.0574
     36 H6          7.8970    0.3394   -2.7727 H         1 <0>         0.0537
     37 H7          7.3077   -2.0639   -4.5599 H         1 <0>         0.0664
     38 H8          6.4639   -0.4976   -4.6151 H         1 <0>         0.0662
     39 H9          5.7359   -0.8070   -2.2650 H         1 <0>         0.0685
     40 H10         6.5797   -2.3733   -2.2098 H         1 <0>         0.0681
     41 H11         5.1466   -3.2102   -4.0522 H         1 <0>         0.0957
     42 H12         4.3028   -1.6440   -4.1073 H         1 <0>         0.0979
     43 H13         3.6241   -5.2398    0.8427 H         1 <0>         0.1003
     44 H14         4.4273   -3.6602    0.6743 H         1 <0>         0.0812
     45 H15         4.0560   -5.2676    3.5113 H         1 <0>         0.1304
     46 H16         3.5019   -5.2741    5.9100 H         1 <0>         0.1198
     47 H17         1.6928   -3.9183    6.7997 H         1 <0>         0.1224
     48 H18         0.3206   -2.4695    5.3428 H         1 <0>         0.1292
     49 H19        -0.9260   -0.5563    0.0083 H         1 <0>         0.1303
     50 H20        -0.9589    1.9049    0.0169 H         1 <0>         0.1335
     51 H21         3.3144    1.9547   -0.0186 H         1 <0>         0.1268
     52 H22         3.3387   -0.5065   -0.0325 H         1 <0>         0.1119
     53 H23         2.9944    3.8176    0.8838 H         1 <0>         0.0557
     54 H24         2.9777    3.8266   -0.8961 H         1 <0>         0.0571
     55 H25         2.2703    5.1873    0.0074 H         1 <0>         0.1020
@<TRIPOS>BOND
     1    1    2 1
     2    1   34 1
     3    1   35 1
     4    1   36 1
     5    2    3 1
     6    2   37 1
     7    2   38 1
     8    3    4 1
     9    3   39 1
    10    3   40 1
    11    4    5 1
    12    4   41 1
    13    4   42 1
    14    5   24 am
    15    5    6 am
    16    6    7 2
    17    6    8 1
    18    8    9 1
    19    8   23 1
    20    8   10 1
    21   10   11 1
    22   10   43 1
    23   10   44 1
    24   11   20 2
    25   11   12 1
    26   12   17 ar
    27   12   13 ar
    28   13   14 ar
    29   13   45 1
    30   14   15 ar
    31   14   46 1
    32   15   16 ar
    33   15   47 1
    34   16   17 ar
    35   16   48 1
    36   17   18 1
    37   18   19 1
    38   18   20 1
    39   20   21 1
    40   21   22 1
    41   21   23 1
    42   21   26 1
    43   23   24 am
    44   24   25 2
    45   26   31 ar
    46   26   27 ar
    47   27   28 ar
    48   27   49 1
    49   28   29 ar
    50   28   50 1
    51   29   30 ar
    52   29   32 1
    53   30   31 ar
    54   30   51 1
    55   31   52 1
    56   32   33 1
    57   33   53 1
    58   33   54 1
    59   33   55 1
@<TRIPOS>MOLECULE
ZINC03935899
   55    59     0     0     0
SMALL
USER_CHARGES
butyl-(4-methoxyphenyl)-BLAHdione
@<TRIPOS>ATOM
      1 C1          4.0359   -7.8754    4.7274 C.3       1 <0>        -0.1526
      2 C2          4.2328   -6.3604    4.8108 C.3       1 <0>        -0.1202
      3 C3          3.8546   -5.7226    3.4725 C.3       1 <0>        -0.1363
      4 C4          4.0514   -4.2076    3.5559 C.3       1 <0>         0.1177
      5 N1          3.6893   -3.5968    2.2745 N.am      1 <0>        -0.5758
      6 C5          4.5542   -3.3984    1.2588 C.2       1 <0>         0.5283
      7 O1          5.7294   -3.6950    1.2310 O.2       1 <0>        -0.4586
      8 C6          3.7547   -2.7289    0.1593 C.3       1 <0>         0.0852
      9 H1          4.1339   -1.7320   -0.0652 H         1 <0>         0.1366
     10 C7          3.7221   -3.6344   -1.0777 C.3       1 <0>        -0.0378
     11 C8          2.4880   -3.3289   -1.8889 C.2       1 <0>        -0.1549
     12 C9          2.2486   -3.6483   -3.2843 C.ar      1 <0>        -0.0993
     13 C10         3.0267   -4.2881   -4.2538 C.ar      1 <0>        -0.0659
     14 C11         2.4718   -4.4250   -5.5024 C.ar      1 <0>        -0.1466
     15 C12         1.2025   -3.9559   -5.7991 C.ar      1 <0>        -0.0958
     16 C13         0.4114   -3.3191   -4.8586 C.ar      1 <0>        -0.1294
     17 C14         0.9491   -3.1656   -3.5822 C.ar      1 <0>         0.1059
     18 N2          0.4558   -2.5990   -2.4426 N.pl3     1 <0>        -0.5707
     19 H2         -0.4189   -2.1886   -2.3564 H         1 <0>         0.4189
     20 C15         1.3795   -2.6986   -1.4397 C.2       1 <0>         0.0650
     21 C16         1.2256   -2.1871   -0.0209 C.3       1 <0>         0.2998
     22 H3          0.3063   -2.5739    0.4188 H         1 <0>         0.1218
     23 N3          2.3887   -2.6816    0.7260 N.am      1 <0>        -0.6102
     24 C17         2.4573   -3.1659    1.9673 C.2       1 <0>         0.7132
     25 O2          1.5127   -3.2118    2.7307 O.2       1 <0>        -0.5341
     26 C18         1.2080   -0.6802   -0.0131 C.ar      1 <0>        -0.1494
     27 C19         0.0618   -0.0052    0.3642 C.ar      1 <0>        -0.0581
     28 C20         0.0434    1.3761    0.3726 C.ar      1 <0>        -0.1493
     29 C21         1.1762    2.0860    0.0020 C.ar      1 <0>         0.1404
     30 C22         2.3252    1.4064   -0.3758 C.ar      1 <0>        -0.2071
     31 C23         2.3384    0.0251   -0.3829 C.ar      1 <0>        -0.0558
     32 O3          1.1604    3.4449    0.0090 O.3       1 <0>        -0.3150
     33 C24         2.3626    4.1097   -0.3844 C.3       1 <0>         0.0253
     34 H4          4.3054   -8.3298    5.6808 H         1 <0>         0.0573
     35 H5          2.9921   -8.0943    4.5027 H         1 <0>         0.0546
     36 H6          4.6701   -8.2814    3.9393 H         1 <0>         0.0546
     37 H7          5.2767   -6.1415    5.0355 H         1 <0>         0.0660
     38 H8          3.5986   -5.9544    5.5989 H         1 <0>         0.0666
     39 H9          2.8107   -5.9415    3.2478 H         1 <0>         0.0703
     40 H10         4.4887   -6.1285    2.6844 H         1 <0>         0.0684
     41 H11         5.0953   -3.9886    3.7806 H         1 <0>         0.0962
     42 H12         3.4173   -3.8016    4.3440 H         1 <0>         0.0984
     43 H13         4.6098   -3.4538   -1.6840 H         1 <0>         0.1004
     44 H14         3.7019   -4.6781   -0.7639 H         1 <0>         0.0844
     45 H15         4.0171   -4.6569   -4.0314 H         1 <0>         0.1305
     46 H16         3.0429   -4.9141   -6.2776 H         1 <0>         0.1199
     47 H17         0.8168   -4.0922   -6.7986 H         1 <0>         0.1225
     48 H18        -0.5768   -2.9582   -5.1027 H         1 <0>         0.1293
     49 H19        -0.8197   -0.5584    0.6529 H         1 <0>         0.1343
     50 H20        -0.8536    1.9028    0.6631 H         1 <0>         0.1363
     51 H21         3.2085    1.9568   -0.6640 H         1 <0>         0.1320
     52 H22         3.2325   -0.5044   -0.6772 H         1 <0>         0.1245
     53 H23         3.1726    3.8228    0.2862 H         1 <0>         0.0574
     54 H24         2.6179    3.8250   -1.4051 H         1 <0>         0.0574
     55 H25         2.2144    5.1884   -0.3343 H         1 <0>         0.1033
@<TRIPOS>BOND
     1    1    2 1
     2    1   34 1
     3    1   35 1
     4    1   36 1
     5    2    3 1
     6    2   37 1
     7    2   38 1
     8    3    4 1
     9    3   39 1
    10    3   40 1
    11    4    5 1
    12    4   41 1
    13    4   42 1
    14    5   24 am
    15    5    6 am
    16    6    7 2
    17    6    8 1
    18    8    9 1
    19    8   23 1
    20    8   10 1
    21   10   11 1
    22   10   43 1
    23   10   44 1
    24   11   20 2
    25   11   12 1
    26   12   17 ar
    27   12   13 ar
    28   13   14 ar
    29   13   45 1
    30   14   15 ar
    31   14   46 1
    32   15   16 ar
    33   15   47 1
    34   16   17 ar
    35   16   48 1
    36   17   18 1
    37   18   19 1
    38   18   20 1
    39   20   21 1
    40   21   22 1
    41   21   23 1
    42   21   26 1
    43   23   24 am
    44   24   25 2
    45   26   31 ar
    46   26   27 ar
    47   27   28 ar
    48   27   49 1
    49   28   29 ar
    50   28   50 1
    51   29   30 ar
    52   29   32 1
    53   30   31 ar
    54   30   51 1
    55   31   52 1
    56   32   33 1
    57   33   53 1
    58   33   54 1
    59   33   55 1
@<TRIPOS>MOLECULE
ZINC22204865
   55    59     0     0     0
SMALL
USER_CHARGES
butyl-(4-methoxyphenyl)BLAHdione
@<TRIPOS>ATOM
      1 C1          8.2358   -0.2434   -5.3191 C.3       1 <0>        -0.1540
      2 C2          7.0088    0.6646   -5.4231 C.3       1 <0>        -0.1209
      3 C3          6.4269    0.8975   -4.0274 C.3       1 <0>        -0.1369
      4 C4          5.1999    1.8055   -4.1314 C.3       1 <0>         0.1154
      5 N1          4.6427    2.0285   -2.7949 N.am      1 <0>        -0.5754
      6 C5          5.0080    3.0404   -1.9817 C.2       1 <0>         0.5312
      7 O1          5.8376    3.8955   -2.2060 O.2       1 <0>        -0.4585
      8 C6          4.1677    2.8885   -0.7294 C.3       1 <0>         0.0812
      9 H1          3.5351    3.7666   -0.5325 H         1 <0>         0.1389
     10 C7          5.0616    2.6336    0.4898 C.3       1 <0>        -0.0417
     11 C8          4.2727    1.8935    1.5409 C.2       1 <0>        -0.1534
     12 C9          4.5731    1.7888    2.9571 C.ar      1 <0>        -0.1058
     13 C10         5.6057    2.3071    3.7445 C.ar      1 <0>        -0.0646
     14 C11         5.5790    2.0002    5.0826 C.ar      1 <0>        -0.1501
     15 C12         4.5817    1.2148    5.6372 C.ar      1 <0>        -0.0953
     16 C13         3.5477    0.6905    4.8811 C.ar      1 <0>        -0.1328
     17 C14         3.5485    0.9864    3.5194 C.ar      1 <0>         0.1036
     18 N2          2.6999    0.6435    2.5068 N.pl3     1 <0>        -0.5901
     19 H2          1.8072    0.0368    2.7190 H         1 <0>         0.4469
     20 C15         3.1744    1.1707    1.3309 C.2       1 <0>         0.0853
     21 C16         2.4897    1.0452   -0.0161 C.3       1 <0>         0.2940
     22 H3          2.2917   -0.0019   -0.2888 H         1 <0>         0.1222
     23 N3          3.3972    1.6537   -0.9963 N.am      1 <0>        -0.6083
     24 C17         3.7067    1.2517   -2.2305 C.2       1 <0>         0.7136
     25 O2          3.1998    0.2927   -2.7788 O.2       1 <0>        -0.5357
     26 C18         1.1757    1.7828    0.0004 C.ar      1 <0>        -0.1492
     27 C19        -0.0104    1.0825   -0.1206 C.ar      1 <0>        -0.0576
     28 C20        -1.2160    1.7569   -0.1115 C.ar      1 <0>        -0.2064
     29 C21        -1.2366    3.1368    0.0307 C.ar      1 <0>         0.1400
     30 C22        -0.0452    3.8370    0.1524 C.ar      1 <0>        -0.1502
     31 C23         1.1581    3.1586    0.1370 C.ar      1 <0>        -0.0576
     32 O3         -2.4216    3.8020    0.0452 O.3       1 <0>        -0.3150
     33 C24        -3.6082    3.0164   -0.0849 C.3       1 <0>         0.0221
     34 H4          8.6541   -0.4108   -6.3226 H         1 <0>         0.0576
     35 H5          7.9421   -1.2077   -4.8787 H         1 <0>         0.0549
     36 H6          8.9933    0.2355   -4.6812 H         1 <0>         0.0550
     37 H7          7.3025    1.6289   -5.8635 H         1 <0>         0.0665
     38 H8          6.2513    0.1858   -6.0610 H         1 <0>         0.0669
     39 H9          6.1332   -0.0668   -3.5870 H         1 <0>         0.0706
     40 H10         7.1844    1.3764   -3.3895 H         1 <0>         0.0689
     41 H11         5.4936    2.7698   -4.5718 H         1 <0>         0.0975
     42 H12         4.4424    1.3267   -4.7693 H         1 <0>         0.0993
     43 H13         5.9299    2.0295    0.1879 H         1 <0>         0.0833
     44 H14         5.4077    3.5946    0.8981 H         1 <0>         0.1016
     45 H15         6.3875    2.9195    3.3202 H         1 <0>         0.1291
     46 H16         6.3602    2.3829    5.7227 H         1 <0>         0.1187
     47 H17         4.6123    1.0040    6.6960 H         1 <0>         0.1210
     48 H18         2.7755    0.0805    5.3262 H         1 <0>         0.1282
     49 H19         0.0059    0.0079   -0.2269 H         1 <0>         0.1293
     50 H20        -2.1420    1.2099   -0.2109 H         1 <0>         0.1328
     51 H21        -0.0583    4.9117    0.2588 H         1 <0>         0.1346
     52 H22         2.0859    3.7033    0.2314 H         1 <0>         0.1279
     53 H23        -4.4888    3.6751   -0.0578 H         1 <0>         0.1046
     54 H24        -3.6636    2.2958    0.7443 H         1 <0>         0.0581
     55 H25        -3.5856    2.4737   -1.0414 H         1 <0>         0.0585
@<TRIPOS>BOND
     1    1    2 1
     2    1   34 1
     3    1   35 1
     4    1   36 1
     5    2    3 1
     6    2   37 1
     7    2   38 1
     8    3    4 1
     9    3   39 1
    10    3   40 1
    11    4    5 1
    12    4   41 1
    13    4   42 1
    14    5   24 am
    15    5    6 am
    16    6    7 2
    17    6    8 1
    18    8    9 1
    19    8   23 1
    20    8   10 1
    21   10   11 1
    22   10   43 1
    23   10   44 1
    24   11   20 2
    25   11   12 1
    26   12   17 ar
    27   12   13 ar
    28   13   14 ar
    29   13   45 1
    30   14   15 ar
    31   14   46 1
    32   15   16 ar
    33   15   47 1
    34   16   17 ar
    35   16   48 1
    36   17   18 1
    37   18   19 1
    38   18   20 1
    39   20   21 1
    40   21   22 1
    41   21   23 1
    42   21   26 1
    43   23   24 am
    44   24   25 2
    45   26   31 ar
    46   26   27 ar
    47   27   28 ar
    48   27   49 1
    49   28   29 ar
    50   28   50 1
    51   29   30 ar
    52   29   32 1
    53   30   31 ar
    54   30   51 1
    55   31   52 1
    56   32   33 1
    57   33   53 1
    58   33   54 1
    59   33   55 1
@<TRIPOS>MOLECULE
ZINC22204868
   55    59     0     0     0
SMALL
USER_CHARGES
butyl-(4-methoxyphenyl)BLAHdione
@<TRIPOS>ATOM
      1 C1         -9.6430    5.8916   -0.5632 C.3       1 <0>        -0.1540
      2 C2         -8.4147    5.6678   -1.4475 C.3       1 <0>        -0.1208
      3 C3         -7.3817    4.8361   -0.6846 C.3       1 <0>        -0.1365
      4 C4         -6.1534    4.6122   -1.5690 C.3       1 <0>         0.1167
      5 N1         -5.1643    3.8158   -0.8385 N.am      1 <0>        -0.5769
      6 C5         -4.1950    4.3400   -0.0607 C.2       1 <0>         0.5293
      7 O1         -3.9768    5.5150    0.1430 O.2       1 <0>        -0.4596
      8 C6         -3.4348    3.1580    0.5059 C.3       1 <0>         0.0881
      9 H1         -3.4515    3.1172    1.6050 H         1 <0>         0.1425
     10 C7         -1.9826    3.1964    0.0155 C.3       1 <0>        -0.0414
     11 C8         -1.4166    1.7985    0.0193 C.2       1 <0>        -0.1600
     12 C9         -0.0172    1.4137    0.0098 C.ar      1 <0>        -0.1030
     13 C10         1.1669    2.1571    0.0025 C.ar      1 <0>        -0.0664
     14 C11         2.3432    1.4488   -0.0149 C.ar      1 <0>        -0.1489
     15 C12         2.3681    0.0638   -0.0235 C.ar      1 <0>        -0.0970
     16 C13         1.2114   -0.6963   -0.0152 C.ar      1 <0>        -0.1305
     17 C14         0.0021   -0.0041    0.0020 C.ar      1 <0>         0.1005
     18 N2         -1.2956   -0.4273    0.0133 N.pl3     1 <0>        -0.5829
     19 H2         -1.5232   -1.5035    0.0092 H         1 <0>         0.4454
     20 C15        -2.1339    0.6552    0.0288 C.2       1 <0>         0.0799
     21 C16        -3.6491    0.6149    0.0581 C.3       1 <0>         0.3004
     22 H3         -4.0356    0.2150    1.0071 H         1 <0>         0.1094
     23 N3         -4.1011    2.0004   -0.1304 N.am      1 <0>        -0.6147
     24 C17        -5.1119    2.4763   -0.8600 C.2       1 <0>         0.7063
     25 O2         -5.8938    1.7767   -1.4735 O.2       1 <0>        -0.5211
     26 C18        -4.1657   -0.2453   -1.0663 C.ar      1 <0>        -0.1494
     27 C19        -4.2511    0.2701   -2.3464 C.ar      1 <0>        -0.0041
     28 C20        -4.7190   -0.5182   -3.3799 C.ar      1 <0>        -0.2089
     29 C21        -5.1144   -1.8243   -3.1302 C.ar      1 <0>         0.1430
     30 C22        -5.0331   -2.3373   -1.8438 C.ar      1 <0>        -0.1582
     31 C23        -4.5588   -1.5469   -0.8149 C.ar      1 <0>        -0.0633
     32 O3         -5.5811   -2.5997   -4.1440 O.3       1 <0>        -0.3165
     33 C24        -5.6371   -2.0055   -5.4424 C.3       1 <0>         0.0233
     34 H4        -10.3857    6.4896   -1.1117 H         1 <0>         0.0576
     35 H5         -9.3444    6.4262    0.3506 H         1 <0>         0.0550
     36 H6        -10.0820    4.9199   -0.2927 H         1 <0>         0.0550
     37 H7         -8.7133    5.1332   -2.3613 H         1 <0>         0.0664
     38 H8         -7.9757    6.6394   -1.7180 H         1 <0>         0.0662
     39 H9         -7.0831    5.3707    0.2292 H         1 <0>         0.0683
     40 H10        -7.8207    3.8645   -0.4140 H         1 <0>         0.0713
     41 H11        -6.4521    4.0776   -2.4828 H         1 <0>         0.0975
     42 H12        -5.7143    5.5838   -1.8396 H         1 <0>         0.0967
     43 H13        -1.9512    3.6030   -1.0061 H         1 <0>         0.0799
     44 H14        -1.3869    3.8361    0.6832 H         1 <0>         0.1004
     45 H15         1.1569    3.2370    0.0089 H         1 <0>         0.1288
     46 H16         3.2786    1.9887   -0.0217 H         1 <0>         0.1185
     47 H17         3.3231   -0.4404   -0.0376 H         1 <0>         0.1211
     48 H18         1.2445   -1.7758   -0.0220 H         1 <0>         0.1286
     49 H19        -3.9479    1.2886   -2.5393 H         1 <0>         0.1114
     50 H20        -4.7817   -0.1164   -4.3804 H         1 <0>         0.1264
     51 H21        -5.3400   -3.3539   -1.6470 H         1 <0>         0.1329
     52 H22        -4.4953   -1.9458    0.1867 H         1 <0>         0.1297
     53 H23        -6.0305   -2.7369   -6.1637 H         1 <0>         0.1033
     54 H24        -4.6267   -1.6962   -5.7479 H         1 <0>         0.0564
     55 H25        -6.2972   -1.1260   -5.4150 H         1 <0>         0.0579
@<TRIPOS>BOND
     1    1    2 1
     2    1   34 1
     3    1   35 1
     4    1   36 1
     5    2    3 1
     6    2   37 1
     7    2   38 1
     8    3    4 1
     9    3   39 1
    10    3   40 1
    11    4    5 1
    12    4   41 1
    13    4   42 1
    14    5   24 am
    15    5    6 am
    16    6    7 2
    17    6    8 1
    18    8    9 1
    19    8   23 1
    20    8   10 1
    21   10   11 1
    22   10   43 1
    23   10   44 1
    24   11   20 2
    25   11   12 1
    26   12   17 ar
    27   12   13 ar
    28   13   14 ar
    29   13   45 1
    30   14   15 ar
    31   14   46 1
    32   15   16 ar
    33   15   47 1
    34   16   17 ar
    35   16   48 1
    36   17   18 1
    37   18   19 1
    38   18   20 1
    39   20   21 1
    40   21   22 1
    41   21   23 1
    42   21   26 1
    43   23   24 am
    44   24   25 2
    45   26   31 ar
    46   26   27 ar
    47   27   28 ar
    48   27   49 1
    49   28   29 ar
    50   28   50 1
    51   29   30 ar
    52   29   32 1
    53   30   31 ar
    54   30   51 1
    55   31   52 1
    56   32   33 1
    57   33   53 1
    58   33   54 1
    59   33   55 1
@<TRIPOS>MOLECULE
ZINC08204642
   48    53     0     0     0
SMALL
USER_CHARGES

@<TRIPOS>ATOM
      1 C1         -0.0215    1.4608   -0.0022 C.3       1 <0>         0.0755
      2 N1         -0.0007   -0.0040   -0.0071 N.am      1 <0>        -0.6064
      3 C2          0.0035   -0.6846   -1.2914 C.3       1 <0>         0.1041
      4 C3         -0.0485   -2.1701   -1.1403 C.2       1 <0>         0.5199
      5 O1         -0.0730   -2.8408   -2.1504 O.2       1 <0>        -0.5275
      6 N2         -0.0693   -2.8087    0.0315 N.am      1 <0>        -0.5880
      7 C4          0.0395   -2.1218    1.3177 C.3       1 <0>         0.1231
      8 H1         -0.8023   -2.4144    1.9452 H         1 <0>         0.1222
      9 C5          0.0187   -0.6351    1.1653 C.2       1 <0>         0.5191
     10 O2          0.0152    0.0391    2.1734 O.2       1 <0>        -0.5220
     11 C6          1.3430   -2.5477    2.0079 C.3       1 <0>        -0.0439
     12 C7          1.4784   -4.0455    1.9076 C.2       1 <0>        -0.1535
     13 C8          2.3260   -4.9252    2.6867 C.ar      1 <0>        -0.0988
     14 C9          3.2369   -4.6922    3.7216 C.ar      1 <0>        -0.0646
     15 C10         3.8787   -5.7890    4.2419 C.ar      1 <0>        -0.1472
     16 C11         3.6437   -7.0707    3.7718 C.ar      1 <0>        -0.0952
     17 C12         2.7492   -7.3297    2.7478 C.ar      1 <0>        -0.1302
     18 C13         2.0823   -6.2354    2.2007 C.ar      1 <0>         0.1070
     19 N3          1.1560   -6.1330    1.2031 N.pl3     1 <0>        -0.5724
     20 H2          0.8042   -6.8770    0.6897 H         1 <0>         0.4184
     21 C14         0.7982   -4.8215    1.0363 C.2       1 <0>         0.0608
     22 C15        -0.2062   -4.2807    0.0441 C.3       1 <0>         0.2558
     23 H3          0.0018   -4.6804   -0.9484 H         1 <0>         0.1339
     24 C16        -1.6011   -4.6616    0.4686 C.ar      1 <0>        -0.1004
     25 C17        -2.4404   -5.3073   -0.4202 C.ar      1 <0>        -0.0842
     26 C18        -3.7207   -5.6591   -0.0353 C.ar      1 <0>        -0.0990
     27 C19        -4.1660   -5.3645    1.2432 C.ar      1 <0>         0.0443
     28 C20        -3.3205   -4.7140    2.1384 C.ar      1 <0>         0.0348
     29 C21        -2.0367   -4.3695    1.7476 C.ar      1 <0>        -0.0833
     30 O3         -3.9851   -4.5395    3.3179 O.3       1 <0>        -0.3050
     31 C22        -5.3786   -4.7221    3.0047 C.3       1 <0>         0.2123
     32 O4         -5.3602   -5.5977    1.8618 O.3       1 <0>        -0.3061
     33 H4          1.0008    1.8388   -0.0102 H         1 <0>         0.0649
     34 H5         -0.5484    1.8196   -0.8864 H         1 <0>         0.0770
     35 H6         -0.5325    1.8139    0.8935 H         1 <0>         0.0871
     36 H7         -0.8611   -0.3569   -1.8686 H         1 <0>         0.1170
     37 H8          0.9109   -0.4151   -1.8319 H         1 <0>         0.1149
     38 H9          2.1901   -2.0704    1.5153 H         1 <0>         0.0834
     39 H10         1.3142   -2.2528    3.0569 H         1 <0>         0.1021
     40 H11         3.4271   -3.6964    4.0940 H         1 <0>         0.1307
     41 H12         4.5894   -5.6478    5.0428 H         1 <0>         0.1200
     42 H13         4.1770   -7.8963    4.2195 H         1 <0>         0.1225
     43 H14         2.5761   -8.3337    2.3894 H         1 <0>         0.1291
     44 H15        -2.0953   -5.5372   -1.4174 H         1 <0>         0.1446
     45 H16        -4.3742   -6.1636   -0.7316 H         1 <0>         0.1418
     46 H17        -1.3773   -3.8690    2.4412 H         1 <0>         0.1381
     47 H18        -5.9002   -5.1918    3.8386 H         1 <0>         0.1355
     48 H19        -5.8419   -3.7691    2.7496 H         1 <0>         0.0877
@<TRIPOS>BOND
     1    1    2 1
     2    1   33 1
     3    1   34 1
     4    1   35 1
     5    2    9 am
     6    2    3 1
     7    3    4 1
     8    3   36 1
     9    3   37 1
    10    4    5 2
    11    4    6 am
    12    6   22 1
    13    6    7 1
    14    7    8 1
    15    7    9 1
    16    7   11 1
    17    9   10 2
    18   11   12 1
    19   11   38 1
    20   11   39 1
    21   12   21 2
    22   12   13 1
    23   13   18 ar
    24   13   14 ar
    25   14   15 ar
    26   14   40 1
    27   15   16 ar
    28   15   41 1
    29   16   17 ar
    30   16   42 1
    31   17   18 ar
    32   17   43 1
    33   18   19 1
    34   19   20 1
    35   19   21 1
    36   21   22 1
    37   22   23 1
    38   22   24 1
    39   24   29 ar
    40   24   25 ar
    41   25   26 ar
    42   25   44 1
    43   26   27 ar
    44   26   45 1
    45   27   32 1
    46   27   28 ar
    47   28   29 ar
    48   28   30 1
    49   29   46 1
    50   30   31 1
    51   31   32 1
    52   31   47 1
    53   31   48 1
@<TRIPOS>MOLECULE
ZINC00538404
   48    53     0     0     0
SMALL
USER_CHARGES
1,3-benzodioxol-5-yl-methyl-BLAHdione
@<TRIPOS>ATOM
      1 C1          0.9328   -7.7506    3.0095 C.3       1 <0>         0.0756
      2 N1          0.1900   -6.6503    2.3900 N.am      1 <0>        -0.6063
      3 C2         -0.6290   -5.8092    3.2468 C.3       1 <0>         0.1042
      4 C3         -1.2660   -4.6891    2.4904 C.2       1 <0>         0.5201
      5 O1         -1.9507   -3.9044    3.1120 O.2       1 <0>        -0.5279
      6 N2         -1.1329   -4.4941    1.1770 N.am      1 <0>        -0.5878
      7 C4         -0.3995   -5.4090    0.3031 C.3       1 <0>         0.1232
      8 H1          0.3466   -4.8424   -0.2541 H         1 <0>         0.1224
      9 C5          0.3039   -6.4789    1.0745 C.2       1 <0>         0.5189
     10 O2          1.0240   -7.2396    0.4631 O.2       1 <0>        -0.5221
     11 C6         -1.3789   -6.0504   -0.6901 C.3       1 <0>        -0.0437
     12 C7         -2.2785   -4.9780   -1.2489 C.2       1 <0>        -0.1540
     13 C8         -3.1074   -5.0304   -2.4361 C.ar      1 <0>        -0.0983
     14 C9         -3.3284   -6.0248   -3.3939 C.ar      1 <0>        -0.0647
     15 C10        -4.2028   -5.7246   -4.4091 C.ar      1 <0>        -0.1470
     16 C11        -4.8414   -4.4980   -4.4918 C.ar      1 <0>        -0.0956
     17 C12        -4.6399   -3.4958   -3.5587 C.ar      1 <0>        -0.1300
     18 C13        -3.7571   -3.7720   -2.5166 C.ar      1 <0>         0.1060
     19 N3         -3.3370   -3.0292   -1.4510 N.pl3     1 <0>        -0.5715
     20 H2         -3.6217   -2.1227   -1.2557 H         1 <0>         0.4183
     21 C14        -2.4542   -3.7553   -0.6991 C.2       1 <0>         0.0609
     22 C15        -1.7543   -3.3018    0.5619 C.3       1 <0>         0.2557
     23 H3         -2.4773   -2.8640    1.2502 H         1 <0>         0.1341
     24 C16        -0.6921   -2.2882    0.2221 C.ar      1 <0>        -0.1006
     25 C17        -0.6708   -1.0674    0.8707 C.ar      1 <0>        -0.0841
     26 C18         0.3015   -0.1344    0.5624 C.ar      1 <0>        -0.0991
     27 C19         1.2580   -0.4212   -0.3980 C.ar      1 <0>         0.0444
     28 C20         1.2363   -1.6508   -1.0516 C.ar      1 <0>         0.0348
     29 C21         0.2586   -2.5808   -0.7379 C.ar      1 <0>        -0.0835
     30 O3          2.2702   -1.6898   -1.9421 O.3       1 <0>        -0.3050
     31 C22         2.6768   -0.3199   -2.1192 C.3       1 <0>         0.2124
     32 O4          2.3054    0.3102   -0.8789 O.3       1 <0>        -0.3061
     33 H4          1.9181   -7.3978    3.3141 H         1 <0>         0.0641
     34 H5          0.3891   -8.1093    3.8835 H         1 <0>         0.0775
     35 H6          1.0438   -8.5635    2.2919 H         1 <0>         0.0876
     36 H7         -1.4100   -6.4195    3.7004 H         1 <0>         0.1151
     37 H8         -0.0038   -5.3927    4.0365 H         1 <0>         0.1170
     38 H9         -0.8218   -6.5190   -1.5014 H         1 <0>         0.1018
     39 H10        -1.9789   -6.8023   -0.1773 H         1 <0>         0.0834
     40 H11        -2.8345   -6.9836   -3.3381 H         1 <0>         0.1307
     41 H12        -4.3985   -6.4681   -5.1676 H         1 <0>         0.1200
     42 H13        -5.5201   -4.3177   -5.3123 H         1 <0>         0.1225
     43 H14        -5.1439   -2.5436   -3.6347 H         1 <0>         0.1290
     44 H15        -1.4152   -0.8424    1.6201 H         1 <0>         0.1446
     45 H16         0.3159    0.8183    1.0709 H         1 <0>         0.1418
     46 H17         0.2393   -3.5351   -1.2433 H         1 <0>         0.1383
     47 H18         3.7541   -0.2570   -2.2731 H         1 <0>         0.1355
     48 H19         2.1425    0.1333   -2.9541 H         1 <0>         0.0875
@<TRIPOS>BOND
     1    1    2 1
     2    1   33 1
     3    1   34 1
     4    1   35 1
     5    2    9 am
     6    2    3 1
     7    3    4 1
     8    3   36 1
     9    3   37 1
    10    4    5 2
    11    4    6 am
    12    6   22 1
    13    6    7 1
    14    7    8 1
    15    7    9 1
    16    7   11 1
    17    9   10 2
    18   11   12 1
    19   11   38 1
    20   11   39 1
    21   12   21 2
    22   12   13 1
    23   13   18 ar
    24   13   14 ar
    25   14   15 ar
    26   14   40 1
    27   15   16 ar
    28   15   41 1
    29   16   17 ar
    30   16   42 1
    31   17   18 ar
    32   17   43 1
    33   18   19 1
    34   19   20 1
    35   19   21 1
    36   21   22 1
    37   22   23 1
    38   22   24 1
    39   24   29 ar
    40   24   25 ar
    41   25   26 ar
    42   25   44 1
    43   26   27 ar
    44   26   45 1
    45   27   32 1
    46   27   28 ar
    47   28   29 ar
    48   28   30 1
    49   29   46 1
    50   30   31 1
    51   31   32 1
    52   31   47 1
    53   31   48 1
@<TRIPOS>MOLECULE
ZINC13528006
   57    61     0     0     0
SMALL
USER_CHARGES
butyl-(p-tolyl)BLAHdione
@<TRIPOS>ATOM
      1 C1         -8.3269   -1.3578   -4.1900 C.3       1 <0>        -0.1529
      2 C2         -7.6816   -0.0407   -4.6256 C.3       1 <0>        -0.1212
      3 C3         -6.7401    0.4543   -3.5258 C.3       1 <0>        -0.1346
      4 C4         -6.0948    1.7713   -3.9614 C.3       1 <0>         0.1059
      5 N1         -5.1934    2.2453   -2.9083 N.am      1 <0>        -0.6016
      6 C5         -3.8054    1.8163   -2.9509 C.3       1 <0>         0.1034
      7 C6         -2.9930    2.4345   -1.8600 C.2       1 <0>         0.5084
      8 O1         -1.8110    2.1667   -1.8140 O.2       1 <0>        -0.4930
      9 N2         -3.4804    3.2611   -0.9325 N.am      1 <0>        -0.5927
     10 C7         -4.8993    3.5993   -0.8291 C.3       1 <0>         0.1335
     11 H1         -5.0033    4.6844   -0.8233 H         1 <0>         0.1198
     12 C8         -5.6932    3.0438   -1.9673 C.2       1 <0>         0.5205
     13 O2         -6.8675    3.3389   -2.0379 O.2       1 <0>        -0.5220
     14 C9         -5.4511    3.0574    0.4971 C.3       1 <0>        -0.0425
     15 C10        -4.4802    3.3898    1.6011 C.2       1 <0>        -0.1549
     16 C11        -4.7129    3.3924    3.0312 C.ar      1 <0>        -0.0991
     17 C12        -5.8405    3.1101    3.8083 C.ar      1 <0>        -0.0651
     18 C13        -5.6974    3.2141    5.1699 C.ar      1 <0>        -0.1476
     19 C14        -4.4978    3.5804    5.7580 C.ar      1 <0>        -0.0958
     20 C15        -3.3665    3.8653    5.0132 C.ar      1 <0>        -0.1302
     21 C16        -3.4823    3.7687    3.6280 C.ar      1 <0>         0.1062
     22 N3         -2.5874    3.9757    2.6179 N.pl3     1 <0>        -0.5711
     23 H2         -1.6627    4.2429    2.7376 H         1 <0>         0.4182
     24 C17        -3.1922    3.7483    1.4103 C.2       1 <0>         0.0616
     25 C18        -2.5528    3.8685    0.0455 C.3       1 <0>         0.2519
     26 H3         -2.3927    4.9187   -0.1986 H         1 <0>         0.1037
     27 C19        -1.2377    3.1328    0.0294 C.ar      1 <0>        -0.0473
     28 C20        -0.0986    3.7636   -0.4347 C.ar      1 <0>        -0.1108
     29 C21         1.1068    3.0870   -0.4544 C.ar      1 <0>        -0.1109
     30 C22         1.1749    1.7830   -0.0006 C.ar      1 <0>        -0.0875
     31 C23         0.0367    1.1537    0.4676 C.ar      1 <0>        -0.1120
     32 C24        -1.1696    1.8287    0.4828 C.ar      1 <0>        -0.0841
     33 C25         2.4901    1.0474   -0.0168 C.3       1 <0>        -0.1144
     34 H4         -8.9976   -1.7104   -4.9735 H         1 <0>         0.0560
     35 H5         -7.5503   -2.1022   -4.0142 H         1 <0>         0.0534
     36 H6         -8.8925   -1.1990   -3.2718 H         1 <0>         0.0545
     37 H7         -8.4581    0.7037   -4.8013 H         1 <0>         0.0656
     38 H8         -7.1160   -0.1994   -5.5437 H         1 <0>         0.0632
     39 H9         -5.9636   -0.2902   -3.3500 H         1 <0>         0.0631
     40 H10        -7.3058    0.6130   -2.6076 H         1 <0>         0.0690
     41 H11        -6.8714    2.5158   -4.1371 H         1 <0>         0.0946
     42 H12        -5.5292    1.6126   -4.8795 H         1 <0>         0.0828
     43 H13        -3.3775    2.0964   -3.9134 H         1 <0>         0.1139
     44 H14        -3.7680    0.7316   -2.8492 H         1 <0>         0.1096
     45 H15        -6.4155    3.5198    0.7075 H         1 <0>         0.1003
     46 H16        -5.5719    1.9763    0.4278 H         1 <0>         0.0792
     47 H17        -6.7797    2.8234    3.3587 H         1 <0>         0.1300
     48 H18        -6.5472    3.0039    5.8025 H         1 <0>         0.1196
     49 H19        -4.4434    3.6457    6.8346 H         1 <0>         0.1222
     50 H20        -2.4372    4.1500    5.4840 H         1 <0>         0.1287
     51 H21        -0.1509    4.7838   -0.7851 H         1 <0>         0.1154
     52 H22         1.9961    3.5786   -0.8203 H         1 <0>         0.1181
     53 H23         0.0898    0.1349    0.8218 H         1 <0>         0.1151
     54 H24        -2.0589    1.3371    0.8486 H         1 <0>         0.1079
     55 H25         3.0093    1.2106    0.9276 H         1 <0>         0.0676
     56 H26         2.3083   -0.0189   -0.1520 H         1 <0>         0.0641
     57 H27         3.1038    1.4182   -0.8377 H         1 <0>         0.0648
@<TRIPOS>BOND
     1    1    2 1
     2    1   34 1
     3    1   35 1
     4    1   36 1
     5    2    3 1
     6    2   37 1
     7    2   38 1
     8    3    4 1
     9    3   39 1
    10    3   40 1
    11    4    5 1
    12    4   41 1
    13    4   42 1
    14    5   12 am
    15    5    6 1
    16    6    7 1
    17    6   43 1
    18    6   44 1
    19    7    8 2
    20    7    9 am
    21    9   25 1
    22    9   10 1
    23   10   11 1
    24   10   12 1
    25   10   14 1
    26   12   13 2
    27   14   15 1
    28   14   45 1
    29   14   46 1
    30   15   24 2
    31   15   16 1
    32   16   21 ar
    33   16   17 ar
    34   17   18 ar
    35   17   47 1
    36   18   19 ar
    37   18   48 1
    38   19   20 ar
    39   19   49 1
    40   20   21 ar
    41   20   50 1
    42   21   22 1
    43   22   23 1
    44   22   24 1
    45   24   25 1
    46   25   26 1
    47   25   27 1
    48   27   32 ar
    49   27   28 ar
    50   28   29 ar
    51   28   51 1
    52   29   30 ar
    53   29   52 1
    54   30   31 ar
    55   30   33 1
    56   31   32 ar
    57   31   53 1
    58   32   54 1
    59   33   55 1
    60   33   56 1
    61   33   57 1
@<TRIPOS>MOLECULE
ZINC26771662
   57    61     0     0     0
SMALL
USER_CHARGES
butyl-(p-tolyl)BLAHdione
@<TRIPOS>ATOM
      1 C1          4.1748   10.6998    3.7787 C.3       1 <0>        -0.1543
      2 C2          3.1414   10.8867    2.6659 C.3       1 <0>        -0.1218
      3 C3          2.4376    9.5555    2.3947 C.3       1 <0>        -0.1353
      4 C4          1.4043    9.7424    1.2819 C.3       1 <0>         0.1040
      5 N1          0.7304    8.4678    1.0222 N.am      1 <0>        -0.6007
      6 C5         -0.4744    8.1642    1.7762 C.3       1 <0>         0.1017
      7 C6         -1.0866    6.8669    1.3584 C.2       1 <0>         0.5168
      8 O1         -2.1106    6.5215    1.9089 O.2       1 <0>        -0.5314
      9 N2         -0.5824    6.0623    0.4206 N.am      1 <0>        -0.5897
     10 C7          0.6855    6.3235   -0.2593 C.3       1 <0>         0.1232
     11 H1          0.4526    6.3534   -1.3339 H         1 <0>         0.1224
     12 C8          1.2574    7.6543    0.1092 C.2       1 <0>         0.5187
     13 O2          2.2659    8.0160   -0.4592 O.2       1 <0>        -0.5219
     14 C9          1.6859    5.2148    0.0969 C.3       1 <0>        -0.0385
     15 C10         0.9942    3.8808   -0.0215 C.2       1 <0>        -0.1621
     16 C11         1.5920    2.5651   -0.1242 C.ar      1 <0>        -0.1008
     17 C12         2.9196    2.1268   -0.1483 C.ar      1 <0>        -0.0661
     18 C13         3.1242    0.7736   -0.2583 C.ar      1 <0>        -0.1491
     19 C14         2.0733   -0.1252   -0.3416 C.ar      1 <0>        -0.0976
     20 C15         0.7503    0.2809   -0.3196 C.ar      1 <0>        -0.1308
     21 C16         0.5120    1.6493   -0.2085 C.ar      1 <0>         0.0997
     22 N3         -0.6422    2.3763   -0.1522 N.pl3     1 <0>        -0.5849
     23 H2         -1.6160    1.8664   -0.1935 H         1 <0>         0.4443
     24 C17        -0.3452    3.7092   -0.0465 C.2       1 <0>         0.0816
     25 C18        -1.3348    4.8492    0.0355 C.3       1 <0>         0.2482
     26 H3         -2.1166    4.6467    0.7823 H         1 <0>         0.1286
     27 C19        -1.9905    5.0575   -1.3053 C.ar      1 <0>        -0.1130
     28 C20        -3.3691    5.0752   -1.4052 C.ar      1 <0>        -0.0927
     29 C21        -3.9705    5.2710   -2.6344 C.ar      1 <0>        -0.1204
     30 C22        -3.1934    5.4392   -3.7651 C.ar      1 <0>        -0.0732
     31 C23        -1.8148    5.4158   -3.6661 C.ar      1 <0>        -0.1195
     32 C24        -1.2133    5.2252   -2.4361 C.ar      1 <0>        -0.0974
     33 C25        -3.8491    5.6475   -5.1059 C.3       1 <0>        -0.1211
     34 H4          4.6808   11.6569    3.9737 H         1 <0>         0.0563
     35 H5          4.9167    9.9494    3.4679 H         1 <0>         0.0549
     36 H6          3.6698   10.3587    4.6945 H         1 <0>         0.0539
     37 H7          2.3995   11.6371    2.9767 H         1 <0>         0.0636
     38 H8          3.6463   11.2278    1.7501 H         1 <0>         0.0658
     39 H9          3.1795    8.8052    2.0840 H         1 <0>         0.0697
     40 H10         1.9326    9.2144    3.3105 H         1 <0>         0.0639
     41 H11         0.6624   10.4928    1.5927 H         1 <0>         0.0839
     42 H12         1.9093   10.0835    0.3661 H         1 <0>         0.0956
     43 H13        -0.2302    8.0988    2.8468 H         1 <0>         0.1146
     44 H14        -1.2167    8.9603    1.6174 H         1 <0>         0.1172
     45 H15         2.5396    5.2550   -0.5956 H         1 <0>         0.1011
     46 H16         2.0425    5.3598    1.1273 H         1 <0>         0.0824
     47 H17         3.7452    2.8201   -0.0835 H         1 <0>         0.1286
     48 H18         4.1365    0.3979   -0.2802 H         1 <0>         0.1184
     49 H19         2.2939   -1.1790   -0.4270 H         1 <0>         0.1210
     50 H20        -0.0600   -0.4300   -0.3851 H         1 <0>         0.1280
     51 H21        -3.9763    4.9397   -0.5224 H         1 <0>         0.1262
     52 H22        -5.0476    5.2889   -2.7118 H         1 <0>         0.1258
     53 H23        -1.2076    5.5469   -4.5496 H         1 <0>         0.1252
     54 H24        -0.1363    5.2070   -2.3587 H         1 <0>         0.1247
     55 H25        -3.0749    5.7611   -5.8790 H         1 <0>         0.0674
     56 H26        -4.4705    6.5546   -5.0732 H         1 <0>         0.0725
     57 H27        -4.4805    4.7788   -5.3442 H         1 <0>         0.0724
@<TRIPOS>BOND
     1    1    2 1
     2    1   34 1
     3    1   35 1
     4    1   36 1
     5    2    3 1
     6    2   37 1
     7    2   38 1
     8    3    4 1
     9    3   39 1
    10    3   40 1
    11    4    5 1
    12    4   41 1
    13    4   42 1
    14    5   12 am
    15    5    6 1
    16    6    7 1
    17    6   43 1
    18    6   44 1
    19    7    8 2
    20    7    9 am
    21    9   25 1
    22    9   10 1
    23   10   11 1
    24   10   12 1
    25   10   14 1
    26   12   13 2
    27   14   15 1
    28   14   45 1
    29   14   46 1
    30   15   24 2
    31   15   16 1
    32   16   21 ar
    33   16   17 ar
    34   17   18 ar
    35   17   47 1
    36   18   19 ar
    37   18   48 1
    38   19   20 ar
    39   19   49 1
    40   20   21 ar
    41   20   50 1
    42   21   22 1
    43   22   23 1
    44   22   24 1
    45   24   25 1
    46   25   26 1
    47   25   27 1
    48   27   32 ar
    49   27   28 ar
    50   28   29 ar
    51   28   51 1
    52   29   30 ar
    53   29   52 1
    54   30   31 ar
    55   30   33 1
    56   31   32 ar
    57   31   53 1
    58   32   54 1
    59   33   55 1
    60   33   56 1
    61   33   57 1
@<TRIPOS>MOLECULE
ZINC02496392
   50    54     0     0     0
SMALL
USER_CHARGES
butyl-(3-pyridyl)BLAHdione
@<TRIPOS>ATOM
      1 C1         11.5353   -5.2885   -0.8072 C.3       1 <0>        -0.1524
      2 C2         10.6417   -4.3929   -1.6675 C.3       1 <0>        -0.1204
      3 C3          9.3891   -4.0113   -0.8761 C.3       1 <0>        -0.1356
      4 C4          8.4954   -3.1156   -1.7363 C.3       1 <0>         0.1179
      5 N1          7.2961   -2.7502   -0.9785 N.am      1 <0>        -0.5758
      6 C5          7.2006   -1.6588   -0.1919 C.2       1 <0>         0.5274
      7 O1          8.0544   -0.8202    0.0014 O.2       1 <0>        -0.4569
      8 C6          5.8064   -1.6964    0.4003 C.3       1 <0>         0.0934
      9 H1          5.8320   -1.7870    1.4863 H         1 <0>         0.1409
     10 C7          5.0157   -0.4679   -0.0649 C.3       1 <0>        -0.0399
     11 C8          3.5410   -0.7825   -0.0381 C.2       1 <0>        -0.1477
     12 C9          2.4381    0.1609   -0.0204 C.ar      1 <0>        -0.1009
     13 C10         2.3903    1.5581   -0.0117 C.ar      1 <0>        -0.0639
     14 C11         1.1445    2.1354    0.0026 C.ar      1 <0>        -0.1466
     15 C12        -0.0167    1.3799    0.0096 C.ar      1 <0>        -0.0937
     16 C13         0.0021   -0.0041    0.0020 C.ar      1 <0>        -0.1306
     17 C14         1.2531   -0.6177   -0.0132 C.ar      1 <0>         0.1076
     18 N2          1.6297   -1.9296   -0.0238 N.pl3     1 <0>        -0.5726
     19 H2          1.0215   -2.6853   -0.0231 H         1 <0>         0.4176
     20 C15         2.9962   -2.0174   -0.0355 C.2       1 <0>         0.0564
     21 C16         3.8120   -3.2952   -0.0355 C.3       1 <0>         0.3047
     22 H3          3.7038   -3.8084    0.9200 H         1 <0>         0.1106
     23 N3          5.2092   -2.8914   -0.2356 N.am      1 <0>        -0.6185
     24 C17         6.1584   -3.4596   -0.9815 C.2       1 <0>         0.7065
     25 O2          6.0092   -4.4997   -1.5924 O.2       1 <0>        -0.5230
     26 C18         3.3649   -4.1947   -1.1589 C.ar      1 <0>        -0.1626
     27 C19         2.5102   -5.2578   -0.9094 C.ar      1 <0>        -0.0597
     28 C20         2.1253   -6.0588   -1.9734 C.ar      1 <0>        -0.1776
     29 C21         2.6029   -5.7731   -3.2387 C.ar      1 <0>         0.1130
     30 N4          3.4145   -4.7535   -3.4389 N.ar      1 <0>        -0.4825
     31 C22         3.7969   -3.9671   -2.4516 C.ar      1 <0>         0.1706
     32 H4         11.8257   -4.7519    0.0960 H         1 <0>         0.0545
     33 H5         10.9893   -6.1914   -0.5337 H         1 <0>         0.0543
     34 H6         12.4277   -5.5604   -1.3711 H         1 <0>         0.0574
     35 H7         10.3513   -4.9295   -2.5707 H         1 <0>         0.0665
     36 H8         11.1877   -3.4901   -1.9410 H         1 <0>         0.0663
     37 H9          9.6795   -3.4746    0.0271 H         1 <0>         0.0679
     38 H10         8.8430   -4.9141   -0.6025 H         1 <0>         0.0702
     39 H11         8.2050   -3.6523   -2.6395 H         1 <0>         0.0979
     40 H12         9.0415   -2.2128   -2.0099 H         1 <0>         0.0969
     41 H13         5.3134   -0.2070   -1.0805 H         1 <0>         0.0841
     42 H14         5.2208    0.3702    0.6011 H         1 <0>         0.1025
     43 H15         3.2904    2.1550   -0.0160 H         1 <0>         0.1316
     44 H16         1.0674    3.2127    0.0083 H         1 <0>         0.1208
     45 H17        -0.9695    1.8884    0.0169 H         1 <0>         0.1232
     46 H18        -0.9105   -0.5816    0.0073 H         1 <0>         0.1293
     47 H19         2.1532   -5.4573    0.0902 H         1 <0>         0.1355
     48 H20         1.4610   -6.8956   -1.8157 H         1 <0>         0.1388
     49 H21         2.3080   -6.3925   -4.0729 H         1 <0>         0.1575
     50 H22         4.4588   -3.1384   -2.6550 H         1 <0>         0.1395
@<TRIPOS>BOND
     1    1    2 1
     2    1   32 1
     3    1   33 1
     4    1   34 1
     5    2    3 1
     6    2   35 1
     7    2   36 1
     8    3    4 1
     9    3   37 1
    10    3   38 1
    11    4    5 1
    12    4   39 1
    13    4   40 1
    14    5   24 am
    15    5    6 am
    16    6    7 2
    17    6    8 1
    18    8    9 1
    19    8   23 1
    20    8   10 1
    21   10   11 1
    22   10   41 1
    23   10   42 1
    24   11   20 2
    25   11   12 1
    26   12   17 ar
    27   12   13 ar
    28   13   14 ar
    29   13   43 1
    30   14   15 ar
    31   14   44 1
    32   15   16 ar
    33   15   45 1
    34   16   17 ar
    35   16   46 1
    36   17   18 1
    37   18   19 1
    38   18   20 1
    39   20   21 1
    40   21   22 1
    41   21   23 1
    42   21   26 1
    43   23   24 am
    44   24   25 2
    45   26   31 ar
    46   26   27 ar
    47   27   28 ar
    48   27   47 1
    49   28   29 ar
    50   28   48 1
    51   29   30 ar
    52   29   49 1
    53   30   31 ar
    54   31   50 1
@<TRIPOS>MOLECULE
ZINC12360849
   59    64     0     0     0
SMALL
USER_CHARGES
cyclopentyl-(4-methoxyphenyl)BLAHdione
@<TRIPOS>ATOM
      1 C1         -4.8329   -3.0806   -5.2812 C.3       1 <0>         0.0286
      2 O1         -5.2433   -3.3771   -3.9449 O.3       1 <0>        -0.3196
      3 C2         -4.2730   -3.4068   -2.9938 C.ar      1 <0>         0.1254
      4 C3         -4.6008   -3.6882   -1.6755 C.ar      1 <0>        -0.1425
      5 C4         -3.6128   -3.7174   -0.7104 C.ar      1 <0>        -0.0746
      6 C5         -2.2982   -3.4660   -1.0574 C.ar      1 <0>        -0.0802
      7 C6         -1.9698   -3.1797   -2.3696 C.ar      1 <0>        -0.0466
      8 C7         -2.9532   -3.1554   -3.3395 C.ar      1 <0>        -0.1971
      9 C8         -1.2225   -3.4981   -0.0025 C.3       1 <0>         0.2562
     10 H1         -1.6738   -3.5909    0.9853 H         1 <0>         0.1043
     11 C9         -0.3958   -2.2342   -0.0731 C.2       1 <0>         0.0614
     12 C10         0.9546   -2.2264   -0.0907 C.2       1 <0>        -0.1553
     13 C11         1.3692   -0.8397   -0.1567 C.ar      1 <0>        -0.0991
     14 C12         2.6253   -0.2270   -0.1992 C.ar      1 <0>        -0.0652
     15 C13         2.6449    1.1445   -0.2617 C.ar      1 <0>        -0.1476
     16 C14         1.4820    1.8970   -0.2815 C.ar      1 <0>        -0.0959
     17 C15         0.2260    1.3170   -0.2401 C.ar      1 <0>        -0.1303
     18 C16         0.1752   -0.0741   -0.1766 C.ar      1 <0>         0.1059
     19 N1         -0.8702   -0.9504   -0.1243 N.pl3     1 <0>        -0.5709
     20 H2         -1.8077   -0.7014   -0.1234 H         1 <0>         0.4184
     21 C17         1.8202   -3.4597   -0.0504 C.3       1 <0>        -0.0425
     22 C18         0.9760   -4.6425    0.4448 C.3       1 <0>         0.1338
     23 H3          0.8019   -4.5128    1.5130 H         1 <0>         0.1202
     24 N2         -0.3119   -4.6367   -0.2479 N.am      1 <0>        -0.5931
     25 C19        -0.6949   -5.6034   -1.0844 C.2       1 <0>         0.5097
     26 O2         -1.7532   -5.4662   -1.6606 O.2       1 <0>        -0.4945
     27 C20         0.0919   -6.8436   -1.3586 C.3       1 <0>         0.0998
     28 N3          1.3193   -6.8945   -0.5818 N.am      1 <0>        -0.5944
     29 C21         1.7239   -5.9185    0.2287 C.2       1 <0>         0.5221
     30 O3          2.7654   -6.0750    0.8301 O.2       1 <0>        -0.5251
     31 C22         2.1603   -8.0885   -0.6976 C.3       1 <0>         0.1254
     32 C23         2.5574   -8.3143   -2.1710 C.3       1 <0>        -0.1362
     33 C24         2.5350   -9.8539   -2.3388 C.3       1 <0>        -0.1232
     34 C25         1.3149  -10.2734   -1.4819 C.3       1 <0>        -0.1255
     35 C26         1.3703   -9.3341   -0.2594 C.3       1 <0>        -0.1369
     36 H4         -5.7023   -3.0886   -5.9386 H         1 <0>         0.0996
     37 H5         -4.3662   -2.0959   -5.3080 H         1 <0>         0.0535
     38 H6         -4.1170   -3.8311   -5.6164 H         1 <0>         0.0546
     39 H7         -5.6275   -3.8847   -1.4039 H         1 <0>         0.1277
     40 H8         -3.8675   -3.9365    0.3160 H         1 <0>         0.1235
     41 H9         -0.9429   -2.9790   -2.6373 H         1 <0>         0.1111
     42 H10        -2.6956   -2.9357   -4.3650 H         1 <0>         0.1221
     43 H11         3.5373   -0.8053   -0.1841 H         1 <0>         0.1299
     44 H12         3.5972    1.6527   -0.2966 H         1 <0>         0.1195
     45 H13         1.5580    2.9732   -0.3311 H         1 <0>         0.1221
     46 H14        -0.6733    1.9147   -0.2606 H         1 <0>         0.1286
     47 H15         2.6559   -3.2973    0.6302 H         1 <0>         0.1003
     48 H16         2.1994   -3.6747   -1.0495 H         1 <0>         0.0791
     49 H17        -0.5190   -7.7122   -1.1129 H         1 <0>         0.1139
     50 H18         0.3435   -6.8763   -2.4187 H         1 <0>         0.1103
     51 H19         3.0531   -7.9771   -0.0823 H         1 <0>         0.1159
     52 H20         1.8322   -7.8473   -2.8375 H         1 <0>         0.0719
     53 H21         3.5575   -7.9244   -2.3607 H         1 <0>         0.0744
     54 H22         3.4513  -10.2982   -1.9499 H         1 <0>         0.0720
     55 H23         2.3868  -10.1294   -3.3829 H         1 <0>         0.0717
     56 H24         1.4082  -11.3132   -1.1685 H         1 <0>         0.0704
     57 H25         0.3879  -10.1245   -2.0357 H         1 <0>         0.0672
     58 H26         1.8802   -9.8277    0.5680 H         1 <0>         0.0762
     59 H27         0.3615   -9.0501    0.0402 H         1 <0>         0.0701
@<TRIPOS>BOND
     1    1    2 1
     2    1   36 1
     3    1   37 1
     4    1   38 1
     5    2    3 1
     6    3    8 ar
     7    3    4 ar
     8    4    5 ar
     9    4   39 1
    10    5    6 ar
    11    5   40 1
    12    6    7 ar
    13    6    9 1
    14    7    8 ar
    15    7   41 1
    16    8   42 1
    17    9   10 1
    18    9   24 1
    19    9   11 1
    20   11   19 1
    21   11   12 2
    22   12   13 1
    23   12   21 1
    24   13   18 ar
    25   13   14 ar
    26   14   15 ar
    27   14   43 1
    28   15   16 ar
    29   15   44 1
    30   16   17 ar
    31   16   45 1
    32   17   18 ar
    33   17   46 1
    34   18   19 1
    35   19   20 1
    36   21   22 1
    37   21   47 1
    38   21   48 1
    39   22   23 1
    40   22   29 1
    41   22   24 1
    42   24   25 am
    43   25   26 2
    44   25   27 1
    45   27   28 1
    46   27   49 1
    47   27   50 1
    48   28   29 am
    49   28   31 1
    50   29   30 2
    51   31   35 1
    52   31   32 1
    53   31   51 1
    54   32   33 1
    55   32   52 1
    56   32   53 1
    57   33   34 1
    58   33   54 1
    59   33   55 1
    60   34   35 1
    61   34   56 1
    62   34   57 1
    63   35   58 1
    64   35   59 1
@<TRIPOS>MOLECULE
ZINC13527964
   56    61     0     0     0
SMALL
USER_CHARGES
benzyl-(4-methoxyphenyl)BLAHdione
@<TRIPOS>ATOM
      1 C1          4.4438   -0.2391    6.8860 C.3       1 <0>         0.0265
      2 O1          5.1438   -0.6646    5.7150 O.3       1 <0>        -0.3165
      3 C2          4.4989   -0.5273    4.5267 C.ar      1 <0>         0.1428
      4 C3          5.1196   -0.9202    3.3498 C.ar      1 <0>        -0.1559
      5 C4          4.4618   -0.7800    2.1432 C.ar      1 <0>        -0.0627
      6 C5          3.1858   -0.2485    2.1078 C.ar      1 <0>        -0.1459
      7 C6          2.5672    0.1490    3.2787 C.ar      1 <0>        -0.0106
      8 C7          3.2186    0.0057    4.4885 C.ar      1 <0>        -0.2062
      9 C8          2.4705   -0.0967    0.7901 C.3       1 <0>         0.3073
     10 H1          2.9369   -0.7307    0.0360 H         1 <0>         0.1064
     11 C9          2.4991    1.3517    0.3430 C.2       1 <0>         0.0624
     12 C10         1.3963    2.0499   -0.0003 C.2       1 <0>        -0.1539
     13 C11         1.8431    3.3801   -0.3717 C.ar      1 <0>        -0.1005
     14 C12         1.1597    4.5176   -0.8118 C.ar      1 <0>        -0.0656
     15 C13         1.9165    5.6328   -1.0742 C.ar      1 <0>        -0.1473
     16 C14         3.2925    5.6425   -0.9143 C.ar      1 <0>        -0.0957
     17 C15         3.9941    4.5304   -0.4819 C.ar      1 <0>        -0.1301
     18 C16         3.2516    3.3833   -0.2086 C.ar      1 <0>         0.1064
     19 N1          3.6125    2.1399    0.2236 N.pl3     1 <0>        -0.5714
     20 H2          4.5200    1.8574    0.4171 H         1 <0>         0.4187
     21 C17        -0.0187    1.5291    0.0104 C.3       1 <0>        -0.0391
     22 C18         0.0021   -0.0041    0.0020 C.3       1 <0>         0.0905
     23 H3          0.1622   -0.3978   -1.0017 H         1 <0>         0.1369
     24 N2          1.0541   -0.4515    0.9413 N.am      1 <0>        -0.6218
     25 C19         0.4206   -1.1752    1.8988 C.2       1 <0>         0.7076
     26 O2          0.9971   -1.7340    2.8113 O.2       1 <0>        -0.5158
     27 N3         -0.9071   -1.2144    1.7170 N.am      1 <0>        -0.5705
     28 C20        -1.2794   -0.5331    0.6142 C.2       1 <0>         0.5300
     29 O3         -2.4073   -0.3756    0.1984 O.2       1 <0>        -0.4580
     30 C21        -1.8389   -1.9122    2.6064 C.3       1 <0>         0.1622
     31 C22        -2.0163   -3.3322    2.1339 C.ar      1 <0>        -0.1229
     32 C23        -3.0172   -3.6405    1.2317 C.ar      1 <0>        -0.0963
     33 C24        -3.1768   -4.9422    0.7947 C.ar      1 <0>        -0.1245
     34 C25        -2.3422   -5.9374    1.2678 C.ar      1 <0>        -0.1083
     35 C26        -1.3446   -5.6300    2.1740 C.ar      1 <0>        -0.1245
     36 C27        -1.1816   -4.3274    2.6071 C.ar      1 <0>        -0.0904
     37 H4          4.2068    0.8215    6.8022 H         1 <0>         0.0558
     38 H5          3.5212   -0.8108    6.9856 H         1 <0>         0.0572
     39 H6          5.0696   -0.4034    7.7632 H         1 <0>         0.1019
     40 H7          6.1164   -1.3350    3.3770 H         1 <0>         0.1334
     41 H8          4.9444   -1.0860    1.2268 H         1 <0>         0.1303
     42 H9          1.5724    0.5682    3.2479 H         1 <0>         0.1127
     43 H10         2.7332    0.3122    5.4033 H         1 <0>         0.1271
     44 H11         0.0873    4.5189   -0.9397 H         1 <0>         0.1302
     45 H12         1.4235    6.5307   -1.4165 H         1 <0>         0.1197
     46 H13         3.8366    6.5492   -1.1342 H         1 <0>         0.1223
     47 H14         5.0672    4.5509   -0.3617 H         1 <0>         0.1290
     48 H15        -0.5457    1.8903   -0.8727 H         1 <0>         0.0995
     49 H16        -0.5287    1.8807    0.9073 H         1 <0>         0.0810
     50 H17        -1.4404   -1.9139    3.6209 H         1 <0>         0.1052
     51 H18        -2.8024   -1.4026    2.5953 H         1 <0>         0.1051
     52 H19        -3.6721   -2.8638    0.8655 H         1 <0>         0.1262
     53 H20        -3.9564   -5.1824    0.0869 H         1 <0>         0.1246
     54 H21        -2.4697   -6.9552    0.9297 H         1 <0>         0.1235
     55 H22        -0.6927   -6.4076    2.5439 H         1 <0>         0.1240
     56 H23        -0.4025   -4.0873    3.3153 H         1 <0>         0.1278
@<TRIPOS>BOND
     1    1    2 1
     2    1   37 1
     3    1   38 1
     4    1   39 1
     5    2    3 1
     6    3    8 ar
     7    3    4 ar
     8    4    5 ar
     9    4   40 1
    10    5    6 ar
    11    5   41 1
    12    6    7 ar
    13    6    9 1
    14    7    8 ar
    15    7   42 1
    16    8   43 1
    17    9   10 1
    18    9   24 1
    19    9   11 1
    20   11   19 1
    21   11   12 2
    22   12   13 1
    23   12   21 1
    24   13   18 ar
    25   13   14 ar
    26   14   15 ar
    27   14   44 1
    28   15   16 ar
    29   15   45 1
    30   16   17 ar
    31   16   46 1
    32   17   18 ar
    33   17   47 1
    34   18   19 1
    35   19   20 1
    36   21   22 1
    37   21   48 1
    38   21   49 1
    39   22   23 1
    40   22   28 1
    41   22   24 1
    42   24   25 am
    43   25   26 2
    44   25   27 am
    45   27   28 am
    46   27   30 1
    47   28   29 2
    48   30   31 1
    49   30   50 1
    50   30   51 1
    51   31   36 ar
    52   31   32 ar
    53   32   33 ar
    54   32   52 1
    55   33   34 ar
    56   33   53 1
    57   34   35 ar
    58   34   54 1
    59   35   36 ar
    60   35   55 1
    61   36   56 1
@<TRIPOS>MOLECULE
ZINC02107885
   54    58     0     0     0
SMALL
USER_CHARGES
butyl-(4-chlorophenyl)-BLAHdione
@<TRIPOS>ATOM
      1 C1         -6.4046   -5.6808   -2.9926 C.3       1 <0>        -0.1530
      2 C2         -7.0767   -4.9038   -1.8589 C.3       1 <0>        -0.1213
      3 C3         -6.4441   -3.5151   -1.7474 C.3       1 <0>        -0.1346
      4 C4         -7.1162   -2.7381   -0.6137 C.3       1 <0>         0.1060
      5 N1         -6.5105   -1.4084   -0.5070 N.am      1 <0>        -0.6018
      6 C5         -7.0916   -0.3268   -1.2848 C.3       1 <0>         0.1036
      7 C6         -6.4178    0.9801   -1.0199 C.2       1 <0>         0.5102
      8 O1         -6.8379    1.9602   -1.5977 O.2       1 <0>        -0.4963
      9 N2         -5.3846    1.1417   -0.1908 N.am      1 <0>        -0.5923
     10 C7         -4.7347    0.0304    0.5026 C.3       1 <0>         0.1336
     11 H1         -4.7039    0.2508    1.5696 H         1 <0>         0.1208
     12 C8         -5.4591   -1.2607    0.2967 C.2       1 <0>         0.5204
     13 O2         -5.0638   -2.2360    0.8995 O.2       1 <0>        -0.5208
     14 C9         -3.2906   -0.1027   -0.0012 C.3       1 <0>        -0.0434
     15 C10        -2.6637    1.2672   -0.0488 C.2       1 <0>        -0.1513
     16 C11        -1.2578    1.6096   -0.1228 C.ar      1 <0>        -0.0998
     17 C12        -0.0948    0.8346   -0.1661 C.ar      1 <0>        -0.0645
     18 C13         1.0982    1.5099   -0.2423 C.ar      1 <0>        -0.1471
     19 C14         1.1602    2.8936   -0.2696 C.ar      1 <0>        -0.0947
     20 C15         0.0257    3.6850   -0.2224 C.ar      1 <0>        -0.1302
     21 C16        -1.2001    3.0267   -0.1454 C.ar      1 <0>         0.1073
     22 N3         -2.4840    3.4866   -0.0850 N.pl3     1 <0>        -0.5716
     23 H2         -2.7427    4.4215   -0.0877 H         1 <0>         0.4183
     24 C17        -3.3526    2.4288   -0.0339 C.2       1 <0>         0.0569
     25 C18        -4.8605    2.5039    0.0452 C.3       1 <0>         0.2517
     26 H3         -5.1627    2.8523    1.0328 H         1 <0>         0.1070
     27 C19        -5.3826    3.4436   -1.0110 C.ar      1 <0>        -0.0369
     28 C20        -4.9786    3.2990   -2.3252 C.ar      1 <0>        -0.0770
     29 C21        -5.4615    4.1570   -3.2952 C.ar      1 <0>        -0.1011
     30 C22        -6.3404    5.1678   -2.9489 C.ar      1 <0>        -0.0356
     31 C23        -6.7399    5.3155   -1.6326 C.ar      1 <0>        -0.0996
     32 C24        -6.2608    4.4533   -0.6643 C.ar      1 <0>        -0.1039
     33 Cl1        -6.9414    6.2506   -4.1654 Cl        1 <0>        -0.0751
     34 H4         -6.5398   -5.1436   -3.9314 H         1 <0>         0.0534
     35 H5         -5.3399   -5.7824   -2.7822 H         1 <0>         0.0546
     36 H6         -6.8552   -6.6701   -3.0721 H         1 <0>         0.0561
     37 H7         -6.9415   -5.4410   -0.9202 H         1 <0>         0.0656
     38 H8         -8.1413   -4.8022   -2.0693 H         1 <0>         0.0633
     39 H9         -6.5793   -2.9779   -2.6861 H         1 <0>         0.0632
     40 H10        -5.3794   -3.6167   -1.5370 H         1 <0>         0.0691
     41 H11        -6.9810   -3.2753    0.3250 H         1 <0>         0.0948
     42 H12        -8.1809   -2.6365   -0.8241 H         1 <0>         0.0831
     43 H13        -8.1485   -0.2378   -1.0332 H         1 <0>         0.1150
     44 H14        -6.9989   -0.5648   -2.3444 H         1 <0>         0.1108
     45 H15        -3.2909   -0.5391   -1.0001 H         1 <0>         0.0801
     46 H16        -2.7243   -0.7402    0.6777 H         1 <0>         0.1015
     47 H17        -0.1333   -0.2445   -0.1450 H         1 <0>         0.1303
     48 H18         2.0175    0.9445   -0.2819 H         1 <0>         0.1200
     49 H19         2.1270    3.3712   -0.3302 H         1 <0>         0.1227
     50 H20         0.0876    4.7630   -0.2439 H         1 <0>         0.1291
     51 H21        -4.2891    2.5127   -2.5946 H         1 <0>         0.1186
     52 H22        -5.1493    4.0412   -4.3226 H         1 <0>         0.1277
     53 H23        -7.4263    6.1041   -1.3617 H         1 <0>         0.1307
     54 H24        -6.5728    4.5683    0.3632 H         1 <0>         0.1265
@<TRIPOS>BOND
     1    1    2 1
     2    1   34 1
     3    1   35 1
     4    1   36 1
     5    2    3 1
     6    2   37 1
     7    2   38 1
     8    3    4 1
     9    3   39 1
    10    3   40 1
    11    4    5 1
    12    4   41 1
    13    4   42 1
    14    5   12 am
    15    5    6 1
    16    6    7 1
    17    6   43 1
    18    6   44 1
    19    7    8 2
    20    7    9 am
    21    9   25 1
    22    9   10 1
    23   10   11 1
    24   10   12 1
    25   10   14 1
    26   12   13 2
    27   14   15 1
    28   14   45 1
    29   14   46 1
    30   15   24 2
    31   15   16 1
    32   16   21 ar
    33   16   17 ar
    34   17   18 ar
    35   17   47 1
    36   18   19 ar
    37   18   48 1
    38   19   20 ar
    39   19   49 1
    40   20   21 ar
    41   20   50 1
    42   21   22 1
    43   22   23 1
    44   22   24 1
    45   24   25 1
    46   25   26 1
    47   25   27 1
    48   27   32 ar
    49   27   28 ar
    50   28   29 ar
    51   28   51 1
    52   29   30 ar
    53   29   52 1
    54   30   31 ar
    55   30   33 1
    56   31   32 ar
    57   31   53 1
    58   32   54 1
@<TRIPOS>MOLECULE
ZINC02107888
   54    58     0     0     0
SMALL
USER_CHARGES
butyl-(4-chlorophenyl)-BLAHdione
@<TRIPOS>ATOM
      1 C1          0.2718   13.3925    0.2393 C.3       1 <0>        -0.1531
      2 C2          0.9128   12.3131    1.1138 C.3       1 <0>        -0.1212
      3 C3          0.3262   10.9475    0.7505 C.3       1 <0>        -0.1352
      4 C4          0.9672    9.8681    1.6251 C.3       1 <0>         0.1058
      5 N1          0.4056    8.5605    1.2772 N.am      1 <0>        -0.6015
      6 C5         -0.7788    8.1124    1.9906 C.3       1 <0>         0.1036
      7 C6         -1.2773    6.7993    1.4814 C.2       1 <0>         0.5194
      8 O1         -2.2791    6.3399    1.9877 O.2       1 <0>        -0.5250
      9 N2         -0.6949    6.0979    0.5068 N.am      1 <0>        -0.5913
     10 C7          0.5575    6.5017   -0.1309 C.3       1 <0>         0.1220
     11 H1          0.4114    6.5255   -1.2108 H         1 <0>         0.1253
     12 C8          1.0095    7.8517    0.3255 C.2       1 <0>         0.5189
     13 O2          1.9885    8.3321   -0.2053 O.2       1 <0>        -0.5185
     14 C9          1.6423    5.4622    0.1837 C.3       1 <0>        -0.0431
     15 C10         1.0676    4.0824   -0.0097 C.2       1 <0>        -0.1489
     16 C11         1.7761    2.8271   -0.1580 C.ar      1 <0>        -0.0989
     17 C12         3.1361    2.5034   -0.1806 C.ar      1 <0>        -0.0642
     18 C13         3.4558    1.1774   -0.3377 C.ar      1 <0>        -0.1470
     19 C14         2.4857    0.1970   -0.4686 C.ar      1 <0>        -0.0947
     20 C15         1.1330    0.4894   -0.4515 C.ar      1 <0>        -0.1306
     21 C16         0.7786    1.8278   -0.2943 C.ar      1 <0>         0.1072
     22 N3         -0.4335    2.4537   -0.2421 N.pl3     1 <0>        -0.5748
     23 H2         -1.2937    2.0115   -0.3162 H         1 <0>         0.4162
     24 C17        -0.2518    3.7998   -0.0671 C.2       1 <0>         0.0609
     25 C18        -1.3350    4.8487    0.0423 C.3       1 <0>         0.2504
     26 H3         -2.0891    4.5291    0.7616 H         1 <0>         0.1345
     27 C19        -1.9720    5.0699   -1.3054 C.ar      1 <0>        -0.0888
     28 C20        -1.7548    6.2531   -1.9865 C.ar      1 <0>        -0.1002
     29 C21        -2.3342    6.4542   -3.2251 C.ar      1 <0>        -0.1013
     30 C22        -3.1408    5.4757   -3.7783 C.ar      1 <0>        -0.0307
     31 C23        -3.3623    4.2940   -3.0936 C.ar      1 <0>        -0.1007
     32 C24        -2.7778    4.0918   -1.8576 C.ar      1 <0>        -0.0948
     33 Cl1        -3.8750    5.7307   -5.3305 Cl        1 <0>        -0.0624
     34 H4          0.4742   13.1776   -0.8100 H         1 <0>         0.0543
     35 H5         -0.8053   13.4035    0.4066 H         1 <0>         0.0535
     36 H6          0.6896   14.3653    0.4981 H         1 <0>         0.0561
     37 H7          0.7103   12.5280    2.1631 H         1 <0>         0.0636
     38 H8          1.9898   12.3021    0.9465 H         1 <0>         0.0657
     39 H9          0.5287   10.7326   -0.2987 H         1 <0>         0.0689
     40 H10        -0.7508   10.9585    0.9178 H         1 <0>         0.0637
     41 H11         0.7647   10.0829    2.6743 H         1 <0>         0.0843
     42 H12         2.0442    9.8571    1.4578 H         1 <0>         0.0956
     43 H13        -0.5383    8.0134    3.0492 H         1 <0>         0.1155
     44 H14        -1.5654    8.8579    1.8746 H         1 <0>         0.1168
     45 H15         1.9713    5.5792    1.2162 H         1 <0>         0.0822
     46 H16         2.4885    5.6027   -0.4889 H         1 <0>         0.1019
     47 H17         3.8993    3.2608   -0.0789 H         1 <0>         0.1307
     48 H18         4.4965    0.8894   -0.3595 H         1 <0>         0.1203
     49 H19         2.7957   -0.8306   -0.5885 H         1 <0>         0.1229
     50 H20         0.3865   -0.2843   -0.5549 H         1 <0>         0.1292
     51 H21        -1.1287    7.0187   -1.5526 H         1 <0>         0.1325
     52 H22        -2.1609    7.3769   -3.7590 H         1 <0>         0.1378
     53 H23        -3.9922    3.5299   -3.5248 H         1 <0>         0.1387
     54 H24        -2.9510    3.1695   -1.3229 H         1 <0>         0.1282
@<TRIPOS>BOND
     1    1    2 1
     2    1   34 1
     3    1   35 1
     4    1   36 1
     5    2    3 1
     6    2   37 1
     7    2   38 1
     8    3    4 1
     9    3   39 1
    10    3   40 1
    11    4    5 1
    12    4   41 1
    13    4   42 1
    14    5   12 am
    15    5    6 1
    16    6    7 1
    17    6   43 1
    18    6   44 1
    19    7    8 2
    20    7    9 am
    21    9   25 1
    22    9   10 1
    23   10   11 1
    24   10   12 1
    25   10   14 1
    26   12   13 2
    27   14   15 1
    28   14   45 1
    29   14   46 1
    30   15   24 2
    31   15   16 1
    32   16   21 ar
    33   16   17 ar
    34   17   18 ar
    35   17   47 1
    36   18   19 ar
    37   18   48 1
    38   19   20 ar
    39   19   49 1
    40   20   21 ar
    41   20   50 1
    42   21   22 1
    43   22   23 1
    44   22   24 1
    45   24   25 1
    46   25   26 1
    47   25   27 1
    48   27   32 ar
    49   27   28 ar
    50   28   29 ar
    51   28   51 1
    52   29   30 ar
    53   29   52 1
    54   30   31 ar
    55   30   33 1
    56   31   32 ar
    57   31   53 1
    58   32   54 1
@<TRIPOS>MOLECULE
ZINC09224016
   25    26     0     0     0
SMALL
USER_CHARGES

@<TRIPOS>ATOM
      1 C1         -0.0184    1.5028    0.0103 C.3       1 <0>        -0.1391
      2 C2          0.0021   -0.0041    0.0020 C.2       1 <0>         0.2276
      3 C3         -1.1906   -0.6918    0.0041 C.2       1 <0>        -0.1838
      4 C4         -1.1990   -2.0975   -0.0031 C.2       1 <0>         0.0727
      5 C5          0.0161   -2.7742   -0.0126 C.2       1 <0>        -0.1606
      6 C6          1.2525   -1.9900   -0.0149 C.2       1 <0>         0.5412
      7 N1          1.1865   -0.6449   -0.0127 N.am      1 <0>        -0.5906
      8 O1          2.3345   -2.5509   -0.0232 O.2       1 <0>        -0.5158
      9 C7          0.0570   -4.2056   -0.0197 C.1       1 <0>         0.2716
     10 N2          0.0895   -5.3411   -0.0253 N.1       1 <0>        -0.4064
     11 C8         -2.4728    0.0540    0.0144 C.ar      1 <0>         0.0158
     12 C9         -2.8306    0.8519    1.1050 C.ar      1 <0>        -0.1625
     13 C10        -4.0319    1.5289    1.0733 C.ar      1 <0>         0.1042
     14 N3         -4.8375    1.4306    0.0329 N.ar      1 <0>        -0.4835
     15 C11        -4.5375    0.6886   -1.0161 C.ar      1 <0>         0.1054
     16 C12        -3.3536   -0.0172   -1.0689 C.ar      1 <0>        -0.1591
     17 H1          1.0042    1.8801    0.0026 H         1 <0>         0.0841
     18 H2         -0.5455    1.8639   -0.8728 H         1 <0>         0.1024
     19 H3         -0.5286    1.8543    0.9071 H         1 <0>         0.1042
     20 H4         -2.1318   -2.6419   -0.0008 H         1 <0>         0.1516
     21 H5         -2.1762    0.9367    1.9600 H         1 <0>         0.1377
     22 H6         -4.3172    2.1475    1.9114 H         1 <0>         0.1588
     23 H7         -5.2263    0.6366   -1.8464 H         1 <0>         0.1591
     24 H8         -3.1125   -0.6192   -1.9325 H         1 <0>         0.1389
     25 H9          2.0073   -0.1280   -0.0178 H         1 <0>         0.4261
@<TRIPOS>BOND
     1    1    2 1
     2    1   17 1
     3    1   18 1
     4    1   19 1
     5    2    7 1
     6    2    3 2
     7    3    4 1
     8    3   11 1
     9    4    5 2
    10    4   20 1
    11    5    6 1
    12    5    9 1
    13    6    7 am
    14    6    8 2
    15    7   25 1
    16    9   10 3
    17   11   16 ar
    18   11   12 ar
    19   12   13 ar
    20   12   21 1
    21   13   14 ar
    22   13   22 1
    23   14   15 ar
    24   15   16 ar
    25   15   23 1
    26   16   24 1
@<TRIPOS>MOLECULE
ZINC19796168
   63    66     0     0     0
SMALL
USER_CHARGES

@<TRIPOS>ATOM
      1 C1         -0.0187    1.5258    0.0104 C.3       1 <0>        -0.1516
      2 C2          0.0021   -0.0041    0.0020 C.3       1 <0>        -0.1160
      3 C3          0.7182   -0.4975   -1.2568 C.3       1 <0>        -0.0368
      4 C4          0.7386   -2.0043   -1.2651 C.2       1 <0>         0.1083
      5 C5          1.7436   -2.8145   -0.7017 C.2       1 <0>         0.0436
      6 C6          1.3716   -4.1454   -0.9309 C.2       1 <0>        -0.0357
      7 C7          2.2155   -5.1793   -0.4631 C.2       1 <0>         0.5719
      8 O1          1.9272   -6.3498   -0.6430 O.2       1 <0>        -0.5217
      9 N1          3.3497   -4.8379    0.1877 N.am      1 <0>        -0.6330
     10 H1          3.9439   -5.5300    0.5176 H         1 <0>         0.4219
     11 C8          3.6639   -3.5203    0.3833 C.2       1 <0>         0.3994
     12 N2          2.8908   -2.5515   -0.0437 N.2       1 <0>        -0.4298
     13 C9          4.9101   -3.1798    1.0980 C.ar      1 <0>        -0.1126
     14 C10         5.7536   -4.1922    1.5597 C.ar      1 <0>         0.0399
     15 C11         6.9158   -3.8678    2.2265 C.ar      1 <0>        -0.7185
     16 C12         7.2508   -2.5412    2.4411 C.ar      1 <0>         0.0430
     17 C13         6.4250   -1.5305    1.9894 C.ar      1 <0>        -0.2315
     18 C14         5.2556   -1.8391    1.3116 C.ar      1 <0>         0.2415
     19 O2          4.4461   -0.8467    0.8623 O.3       1 <0>        -0.2578
     20 C15         4.8632    0.4961    1.1168 C.3       1 <0>         0.0414
     21 C16         3.8319    1.4685    0.5407 C.3       1 <0>        -0.1519
     22 S1          7.9793   -5.1464    2.8085 S.o2      1 <0>         2.6926
     23 O3          8.7312   -4.5930    3.8798 O.2       1 <0>        -0.9482
     24 O4          7.1730   -6.3063    2.9631 O.2       1 <0>        -0.9501
     25 N3          9.0568   -5.4772    1.5953 N.pl3     1 <0>        -0.9979
     26 C17         8.7556   -6.4921    0.5742 C.3       1 <0>         0.1239
     27 C18         8.9742   -5.8704   -0.8093 C.3       1 <0>         0.0382
     28 N4         10.3268   -5.3015   -0.8788 N.3       1 <0>        -0.5395
     29 C19        10.4964   -4.2104    0.0900 C.3       1 <0>         0.0386
     30 C20        10.3376   -4.7598    1.5068 C.3       1 <0>         0.1243
     31 C21        10.6381   -4.8489   -2.2412 C.3       1 <0>         0.0245
     32 N5          0.1842   -4.1164   -1.6082 N.pl3     1 <0>        -0.3299
     33 N6         -0.1751   -2.7746   -1.7907 N.2       1 <0>        -0.2328
     34 C22        -0.5794   -5.2824   -2.0596 C.3       1 <0>         0.0994
     35 H2          1.0039    1.9031    0.0027 H         1 <0>         0.0577
     36 H3         -0.5459    1.8868   -0.8726 H         1 <0>         0.0559
     37 H4         -0.5289    1.8773    0.9072 H         1 <0>         0.0565
     38 H5          0.5293   -0.3651    0.8851 H         1 <0>         0.0665
     39 H6         -1.0205   -0.3814    0.0098 H         1 <0>         0.0628
     40 H7          0.1910   -0.1364   -2.1398 H         1 <0>         0.0831
     41 H8          1.7408   -0.1202   -1.2645 H         1 <0>         0.0935
     42 H9          5.4957   -5.2279    1.3950 H         1 <0>         0.1438
     43 H10         8.1628   -2.2958    2.9650 H         1 <0>         0.1492
     44 H11         6.6926   -0.4983    2.1608 H         1 <0>         0.1488
     45 H12         4.9489    0.6524    2.1922 H         1 <0>         0.0678
     46 H13         5.8306    0.6715    0.6460 H         1 <0>         0.0666
     47 H14         3.7463    1.3123   -0.5346 H         1 <0>         0.0692
     48 H15         2.8646    1.2931    1.0115 H         1 <0>         0.0720
     49 H16         4.1502    2.4927    0.7349 H         1 <0>         0.0796
     50 H17         9.4199   -7.3470    0.7005 H         1 <0>         0.0879
     51 H18         7.7185   -6.8131    0.6717 H         1 <0>         0.0935
     52 H19         8.8627   -6.6382   -1.5748 H         1 <0>         0.0901
     53 H20         8.2393   -5.0824   -0.9741 H         1 <0>         0.0394
     54 H21        11.4890   -3.7744   -0.0233 H         1 <0>         0.0905
     55 H22         9.7403   -3.4456   -0.0874 H         1 <0>         0.0393
     56 H23        10.3460   -3.9360    2.2206 H         1 <0>         0.0948
     57 H24        11.1569   -5.4449    1.7245 H         1 <0>         0.0867
     58 H25         9.9216   -4.0848   -2.5429 H         1 <0>         0.0257
     59 H26        11.6450   -4.4322   -2.2645 H         1 <0>         0.0713
     60 H27        10.5786   -5.6939   -2.9273 H         1 <0>         0.0713
     61 H28        -1.2781   -5.5834   -1.2791 H         1 <0>         0.0824
     62 H29        -1.1323   -5.0268   -2.9634 H         1 <0>         0.0965
     63 H30         0.1042   -6.1043   -2.2721 H         1 <0>         0.1003
@<TRIPOS>BOND
     1    1    2 1
     2    1   35 1
     3    1   36 1
     4    1   37 1
     5    2    3 1
     6    2   38 1
     7    2   39 1
     8    3    4 1
     9    3   40 1
    10    3   41 1
    11    4   33 2
    12    4    5 1
    13    5   12 1
    14    5    6 2
    15    6    7 1
    16    6   32 1
    17    7    8 2
    18    7    9 am
    19    9   10 1
    20    9   11 1
    21   11   12 2
    22   11   13 1
    23   13   18 ar
    24   13   14 ar
    25   14   15 ar
    26   14   42 1
    27   15   16 ar
    28   15   22 1
    29   16   17 ar
    30   16   43 1
    31   17   18 ar
    32   17   44 1
    33   18   19 1
    34   19   20 1
    35   20   21 1
    36   20   45 1
    37   20   46 1
    38   21   47 1
    39   21   48 1
    40   21   49 1
    41   22   23 2
    42   22   24 2
    43   22   25 1
    44   25   30 1
    45   25   26 1
    46   26   27 1
    47   26   50 1
    48   26   51 1
    49   27   28 1
    50   27   52 1
    51   27   53 1
    52   28   29 1
    53   28   31 1
    54   29   30 1
    55   29   54 1
    56   29   55 1
    57   30   56 1
    58   30   57 1
    59   31   58 1
    60   31   59 1
    61   31   60 1
    62   32   33 1
    63   32   34 1
    64   34   61 1
    65   34   62 1
    66   34   63 1
@<TRIPOS>MOLECULE
ZINC19796168
   63    66     0     0     0
SMALL
USER_CHARGES

@<TRIPOS>ATOM
      1 C1         -0.0187    1.5258    0.0104 C.3       1 <0>        -0.1539
      2 C2          0.0021   -0.0041    0.0020 C.3       1 <0>        -0.1188
      3 C3          0.7182   -0.4975   -1.2568 C.3       1 <0>        -0.0455
      4 C4          0.7386   -2.0043   -1.2651 C.2       1 <0>         0.0795
      5 C5          1.7371   -2.8090   -0.7054 C.2       1 <0>         0.0226
      6 C6          1.3740   -4.1350   -0.9304 C.2       1 <0>        -0.0270
      7 C7          2.2608   -5.1909   -0.4384 C.2       1 <0>         0.5560
      8 O1          1.9844   -6.3672   -0.6123 O.2       1 <0>        -0.4907
      9 N1          3.3842   -4.8398    0.2075 N.2       1 <0>        -0.5489
     10 C8          3.6977   -3.5767    0.4033 C.2       1 <0>         0.4949
     11 N2          2.9154   -2.5523   -0.0295 N.pl3     1 <0>        -0.5912
     12 C9          4.9471   -3.2598    1.1207 C.ar      1 <0>        -0.1387
     13 C10         5.3072   -1.9297    1.3507 C.ar      1 <0>         0.0502
     14 C11         6.4754   -1.6404    2.0219 C.ar      1 <0>        -0.7241
     15 C12         7.2958   -2.6630    2.4697 C.ar      1 <0>         0.0516
     16 C13         6.9520   -3.9820    2.2486 C.ar      1 <0>        -0.2347
     17 C14         5.7769   -4.2915    1.5805 C.ar      1 <0>         0.2542
     18 O2          5.4349   -5.5872    1.3679 O.3       1 <0>        -0.2513
     19 C15         6.3296   -6.5843    1.8652 C.3       1 <0>         0.0415
     20 C16         5.7806   -7.9733    1.5332 C.3       1 <0>        -0.1498
     21 S1          6.9282    0.0377    2.3112 S.o2      1 <0>         2.6935
     22 O3          8.3389    0.0542    2.4813 O.2       1 <0>        -0.9470
     23 O4          6.2716    0.8126    1.3174 O.2       1 <0>        -0.9501
     24 N3          6.2708    0.4783    3.7659 N.pl3     1 <0>        -0.9978
     25 C17         4.9211    1.0580    3.8397 C.3       1 <0>         0.1243
     26 C18         4.1139    0.2804    4.8848 C.3       1 <0>         0.0380
     27 N4          4.8523    0.2619    6.1546 N.3       1 <0>        -0.5392
     28 C19         6.1314   -0.4472    6.0169 C.3       1 <0>         0.0382
     29 C20         7.0189    0.2948    5.0189 C.3       1 <0>         0.1242
     30 C21         4.0386   -0.3238    7.2283 C.3       1 <0>         0.0243
     31 N5          0.1890   -4.1166   -1.6070 N.pl3     1 <0>        -0.3265
     32 N6         -0.1769   -2.7759   -1.7917 N.2       1 <0>        -0.2363
     33 C22        -0.5677   -5.2881   -2.0556 C.3       1 <0>         0.1018
     34 H1          1.0039    1.9031    0.0027 H         1 <0>         0.0587
     35 H2         -0.5459    1.8868   -0.8726 H         1 <0>         0.0584
     36 H3         -0.5289    1.8773    0.9072 H         1 <0>         0.0590
     37 H4          0.5293   -0.3651    0.8851 H         1 <0>         0.0617
     38 H5         -1.0205   -0.3814    0.0098 H         1 <0>         0.0685
     39 H6          0.1910   -0.1364   -2.1398 H         1 <0>         0.0924
     40 H7          1.7408   -0.1202   -1.2645 H         1 <0>         0.0851
     41 H8          4.6710   -1.1293    1.0027 H         1 <0>         0.1448
     42 H9          8.2097   -2.4272    2.9946 H         1 <0>         0.1511
     43 H10         7.5970   -4.7736    2.6002 H         1 <0>         0.1511
     44 H11         7.3075   -6.4595    1.4002 H         1 <0>         0.0690
     45 H12         6.4252   -6.4802    2.9460 H         1 <0>         0.0679
     46 H13         6.4630   -8.7339    1.9125 H         1 <0>         0.0796
     47 H14         4.8027   -8.0982    1.9981 H         1 <0>         0.0699
     48 H15         5.6850   -8.0774    0.4524 H         1 <0>         0.0705
     49 H16         4.9880    2.1054    4.1338 H         1 <0>         0.0882
     50 H17         4.4346    0.9780    2.8676 H         1 <0>         0.0929
     51 H18         3.1485    0.7644    5.0325 H         1 <0>         0.0901
     52 H19         3.9598   -0.7416    4.5387 H         1 <0>         0.0392
     53 H20         6.6291   -0.4910    6.9857 H         1 <0>         0.0908
     54 H21         5.9492   -1.4591    5.6551 H         1 <0>         0.0394
     55 H22         7.9186   -0.2894    4.8260 H         1 <0>         0.0949
     56 H23         7.2913    1.2675    5.4285 H         1 <0>         0.0873
     57 H24         3.7712   -1.3470    6.9645 H         1 <0>         0.0259
     58 H25         4.6091   -0.3253    8.1570 H         1 <0>         0.0715
     59 H26         3.1316    0.2663    7.3599 H         1 <0>         0.0715
     60 H27        -1.2651   -5.5910   -1.2745 H         1 <0>         0.0826
     61 H28        -1.1218   -5.0381   -2.9604 H         1 <0>         0.0959
     62 H29         0.1207   -6.1067   -2.2656 H         1 <0>         0.1018
     63 H30         3.1857   -1.6357    0.1370 H         1 <0>         0.4171
@<TRIPOS>BOND
     1    1    2 1
     2    1   34 1
     3    1   35 1
     4    1   36 1
     5    2    3 1
     6    2   37 1
     7    2   38 1
     8    3    4 1
     9    3   39 1
    10    3   40 1
    11    4   32 2
    12    4    5 1
    13    5   11 1
    14    5    6 2
    15    6    7 1
    16    6   31 1
    17    7    8 2
    18    7    9 1
    19    9   10 2
    20   10   11 1
    21   10   12 1
    22   11   63 1
    23   12   17 ar
    24   12   13 ar
    25   13   14 ar
    26   13   41 1
    27   14   15 ar
    28   14   21 1
    29   15   16 ar
    30   15   42 1
    31   16   17 ar
    32   16   43 1
    33   17   18 1
    34   18   19 1
    35   19   20 1
    36   19   44 1
    37   19   45 1
    38   20   46 1
    39   20   47 1
    40   20   48 1
    41   21   22 2
    42   21   23 2
    43   21   24 1
    44   24   29 1
    45   24   25 1
    46   25   26 1
    47   25   49 1
    48   25   50 1
    49   26   27 1
    50   26   51 1
    51   26   52 1
    52   27   28 1
    53   27   30 1
    54   28   29 1
    55   28   53 1
    56   28   54 1
    57   29   55 1
    58   29   56 1
    59   30   57 1
    60   30   58 1
    61   30   59 1
    62   31   32 1
    63   31   33 1
    64   33   60 1
    65   33   61 1
    66   33   62 1
@<TRIPOS>MOLECULE
ZINC19796168
   62    65     0     0     0
SMALL
USER_CHARGES

@<TRIPOS>ATOM
      1 C1         -0.0187    1.5258    0.0104 C.3       1 <0>        -0.1485
      2 C2          0.0021   -0.0041    0.0020 C.3       1 <0>        -0.1148
      3 C3         -1.4333   -0.5336    0.0129 C.3       1 <0>        -0.0265
      4 C4         -1.4129   -2.0405    0.0046 C.2       1 <0>         0.0755
      5 C5         -1.4070   -2.8569   -1.1475 C.ar      1 <0>         0.0668
      6 C6         -1.3869   -4.1920   -0.7014 C.ar      1 <0>        -0.0515
      7 C7         -1.3777   -5.2165   -1.6565 C.ar      1 <0>         0.4648
      8 O1         -1.3588   -6.5164   -1.2751 O.3       1 <0>        -0.6909
      9 N1         -1.3884   -4.8893   -2.9402 N.ar      1 <0>        -0.5725
     10 C8         -1.4074   -3.6162   -3.3266 C.ar      1 <0>         0.3612
     11 N2         -1.4163   -2.6161   -2.4630 N.ar      1 <0>        -0.5554
     12 C9         -1.4186   -3.3091   -4.7764 C.ar      1 <0>        -0.0636
     13 C10        -1.4328   -1.9850   -5.2116 C.ar      1 <0>         0.0543
     14 C11        -1.4432   -1.7045   -6.5622 C.ar      1 <0>        -0.7317
     15 C12        -1.4396   -2.7334   -7.4883 C.ar      1 <0>         0.0205
     16 C13        -1.4256   -4.0494   -7.0685 C.ar      1 <0>        -0.2451
     17 C14        -1.4092   -4.3463   -5.7145 C.ar      1 <0>         0.2216
     18 O2         -1.3897   -5.6394   -5.3005 O.3       1 <0>        -0.2427
     19 C15        -1.3811   -6.6454   -6.3153 C.3       1 <0>         0.0442
     20 C16        -1.3591   -8.0288   -5.6620 C.3       1 <0>        -0.1464
     21 S1         -1.4617   -0.0302   -7.1108 S.o2      1 <0>         2.6962
     22 O3         -2.0201   -0.0370   -8.4174 O.2       1 <0>        -0.9629
     23 O4         -2.0135    0.7385   -6.0505 O.2       1 <0>        -0.9522
     24 N3          0.1150    0.4496   -7.2724 N.pl3     1 <0>        -1.0004
     25 C17         0.8390    1.0557   -6.1447 C.3       1 <0>         0.1268
     26 C18         2.1670    0.3130   -5.9632 C.3       1 <0>         0.0372
     27 N4          2.8976    0.3041   -7.2376 N.3       1 <0>        -0.5398
     28 C19         2.1569   -0.4314   -8.2713 C.3       1 <0>         0.0376
     29 C20         0.8304    0.2753   -8.5456 C.3       1 <0>         0.1276
     30 C21         4.2487   -0.2463   -7.0660 C.3       1 <0>         0.0248
     31 N5         -1.3812   -4.1504    0.6672 N.pl3     1 <0>        -0.3678
     32 N6         -1.3920   -2.8055    1.0596 N.2       1 <0>        -0.2631
     33 C22        -1.3618   -5.3088    1.5638 C.3       1 <0>         0.1224
     34 H1          1.0039    1.9031    0.0027 H         1 <0>         0.0507
     35 H2         -0.5459    1.8868   -0.8726 H         1 <0>         0.0575
     36 H3         -0.5289    1.8773    0.9072 H         1 <0>         0.0512
     37 H4          0.5123   -0.3556   -0.8948 H         1 <0>         0.0656
     38 H5          0.5293   -0.3651    0.8851 H         1 <0>         0.0578
     39 H6         -1.9435   -0.1821    0.9097 H         1 <0>         0.0708
     40 H7         -1.9605   -0.1726   -0.8702 H         1 <0>         0.0861
     41 H8         -1.4360   -1.1795   -4.4922 H         1 <0>         0.1566
     42 H9         -1.4482   -2.5062   -8.5441 H         1 <0>         0.1359
     43 H10        -1.4233   -4.8477   -7.7959 H         1 <0>         0.1361
     44 H11        -2.2755   -6.5484   -6.9307 H         1 <0>         0.0581
     45 H12        -0.4957   -6.5243   -6.9395 H         1 <0>         0.0570
     46 H13        -1.3526   -8.7961   -6.4360 H         1 <0>         0.0694
     47 H14        -0.4647   -8.1258   -5.0466 H         1 <0>         0.0690
     48 H15        -2.2445   -8.1499   -5.0378 H         1 <0>         0.0696
     49 H16         1.0335    2.1070   -6.3571 H         1 <0>         0.0814
     50 H17         0.2427    0.9670   -5.2366 H         1 <0>         0.0979
     51 H18         2.7652    0.8176   -5.2045 H         1 <0>         0.0879
     52 H19         1.9704   -0.7122   -5.6495 H         1 <0>         0.0449
     53 H20         2.7478   -0.4666   -9.1865 H         1 <0>         0.0858
     54 H21         1.9605   -1.4462   -7.9254 H         1 <0>         0.0417
     55 H22         0.2284   -0.3292   -9.2240 H         1 <0>         0.0922
     56 H23         1.0240    1.2501   -8.9932 H         1 <0>         0.0807
     57 H24         4.1801   -1.2690   -6.6954 H         1 <0>         0.0264
     58 H25         4.7675   -0.2413   -8.0246 H         1 <0>         0.0675
     59 H26         4.8011    0.3631   -6.3508 H         1 <0>         0.0692
     60 H27        -0.3294   -5.5825    1.7815 H         1 <0>         0.0592
     61 H28        -1.8748   -5.0582    2.4923 H         1 <0>         0.0722
     62 H29        -1.8667   -6.1476    1.0847 H         1 <0>         0.0961
@<TRIPOS>BOND
     1    1    2 1
     2    1   34 1
     3    1   35 1
     4    1   36 1
     5    2    3 1
     6    2   37 1
     7    2   38 1
     8    3    4 1
     9    3   39 1
    10    3   40 1
    11    4   32 2
    12    4    5 1
    13    5   11 ar
    14    5    6 ar
    15    6    7 ar
    16    6   31 1
    17    7    8 1
    18    7    9 ar
    19    9   10 ar
    20   10   11 ar
    21   10   12 1
    22   12   17 ar
    23   12   13 ar
    24   13   14 ar
    25   13   41 1
    26   14   15 ar
    27   14   21 1
    28   15   16 ar
    29   15   42 1
    30   16   17 ar
    31   16   43 1
    32   17   18 1
    33   18   19 1
    34   19   20 1
    35   19   44 1
    36   19   45 1
    37   20   46 1
    38   20   47 1
    39   20   48 1
    40   21   22 2
    41   21   23 2
    42   21   24 1
    43   24   29 1
    44   24   25 1
    45   25   26 1
    46   25   49 1
    47   25   50 1
    48   26   27 1
    49   26   51 1
    50   26   52 1
    51   27   28 1
    52   27   30 1
    53   28   29 1
    54   28   53 1
    55   28   54 1
    56   29   55 1
    57   29   56 1
    58   30   57 1
    59   30   58 1
    60   30   59 1
    61   31   32 1
    62   31   33 1
    63   33   60 1
    64   33   61 1
    65   33   62 1
@<TRIPOS>MOLECULE
ZINC19796168
   64    67     0     0     0
SMALL
USER_CHARGES

@<TRIPOS>ATOM
      1 C1         -0.0187    1.5258    0.0104 C.3       1 <0>        -0.1524
      2 C2          0.0021   -0.0041    0.0020 C.3       1 <0>        -0.1163
      3 C3         -1.4333   -0.5336    0.0129 C.3       1 <0>        -0.0382
      4 C4         -1.4129   -2.0405    0.0046 C.2       1 <0>         0.1125
      5 C5         -1.4070   -2.8548   -1.1446 C.2       1 <0>         0.0358
      6 C6         -1.3861   -4.1841   -0.7032 C.2       1 <0>        -0.0303
      7 C7         -1.3769   -5.2214   -1.6643 C.2       1 <0>         0.5721
      8 O1         -1.3591   -6.3907   -1.3206 O.2       1 <0>        -0.5177
      9 N1         -1.3887   -4.8848   -2.9731 N.am      1 <0>        -0.6346
     10 H1         -1.3827   -5.5793   -3.6502 H         1 <0>         0.4185
     11 C8         -1.4095   -3.5686   -3.3476 C.2       1 <0>         0.3827
     12 N2         -1.4171   -2.5966   -2.4679 N.2       1 <0>        -0.4195
     13 C9         -1.4219   -3.2333   -4.7854 C.ar      1 <0>        -0.1025
     14 C10        -1.4183   -4.2493   -5.7432 C.ar      1 <0>         0.0333
     15 C11        -1.4299   -3.9298   -7.0842 C.ar      1 <0>        -0.7276
     16 C12        -1.4448   -2.6046   -7.4863 C.ar      1 <0>         0.0370
     17 C13        -1.4485   -1.5903   -6.5488 C.ar      1 <0>        -0.2285
     18 C14        -1.4433   -1.8942   -5.1961 C.ar      1 <0>         0.2470
     19 O2         -1.4527   -0.8984   -4.2738 O.3       1 <0>        -0.2539
     20 C15        -1.4745    0.4426   -4.7671 C.3       1 <0>         0.0414
     21 C16        -1.4823    1.4191   -3.5893 C.3       1 <0>        -0.1545
     22 S1         -1.4253   -5.2129   -8.2917 S.o2      1 <0>         2.6914
     23 O3         -0.8874   -4.6500   -9.4805 O.2       1 <0>        -0.9316
     24 O4         -0.8594   -6.3568   -7.6667 O.2       1 <0>        -0.9334
     25 N3         -3.0059   -5.5847   -8.6172 N.pl3     1 <0>        -1.0127
     26 C17        -3.7155   -6.6148   -7.8430 C.3       1 <0>         0.0947
     27 C18        -5.0462   -6.0287   -7.3599 C.3       1 <0>        -0.0248
     28 N4         -5.7976   -5.5098   -8.5098 N.4       1 <0>        -0.3832
     29 C19        -5.0699   -4.3889   -9.1182 C.3       1 <0>        -0.0235
     30 C20        -3.7420   -4.8899   -9.6846 C.3       1 <0>         0.0949
     31 C21        -7.1182   -5.0483   -8.0616 C.3       1 <0>        -0.0476
     32 N5         -1.3799   -4.1501    0.6637 N.pl3     1 <0>        -0.3251
     33 N6         -1.3920   -2.8068    1.0614 N.2       1 <0>        -0.2289
     34 C22        -1.3598   -5.3128    1.5547 C.3       1 <0>         0.0963
     35 H2          1.0039    1.9031    0.0027 H         1 <0>         0.0582
     36 H3         -0.5459    1.8868   -0.8726 H         1 <0>         0.0570
     37 H4         -0.5289    1.8773    0.9072 H         1 <0>         0.0575
     38 H5          0.5123   -0.3556   -0.8948 H         1 <0>         0.0655
     39 H6          0.5293   -0.3651    0.8851 H         1 <0>         0.0644
     40 H7         -1.9435   -0.1821    0.9097 H         1 <0>         0.0854
     41 H8         -1.9605   -0.1726   -0.8702 H         1 <0>         0.0931
     42 H9         -1.4060   -5.2840   -5.4339 H         1 <0>         0.1444
     43 H10        -1.4531   -2.3629   -8.5389 H         1 <0>         0.1495
     44 H11        -1.4598   -0.5592   -6.8698 H         1 <0>         0.1518
     45 H12        -0.5902    0.6189   -5.3794 H         1 <0>         0.0706
     46 H13        -2.3699    0.5934   -5.3701 H         1 <0>         0.0677
     47 H14        -1.4990    2.4420   -3.9655 H         1 <0>         0.0830
     48 H15        -2.3667    1.2428   -2.9770 H         1 <0>         0.0703
     49 H16        -0.5869    1.2683   -2.9863 H         1 <0>         0.0743
     50 H17        -3.9053   -7.4822   -8.4752 H         1 <0>         0.1071
     51 H18        -3.1115   -6.9087   -6.9845 H         1 <0>         0.1349
     52 H19        -5.6284   -6.8070   -6.8666 H         1 <0>         0.1469
     53 H20        -4.8527   -5.2186   -6.6568 H         1 <0>         0.1345
     54 H21        -5.6695   -3.9589   -9.9204 H         1 <0>         0.1472
     55 H22        -4.8756   -3.6285   -8.3618 H         1 <0>         0.1345
     56 H23        -3.1556   -4.0439  -10.0432 H         1 <0>         0.1362
     57 H24        -3.9345   -5.5801  -10.5059 H         1 <0>         0.1058
     58 H25        -6.9949   -4.2582   -7.3209 H         1 <0>         0.1220
     59 H26        -7.6771   -4.6629   -8.9144 H         1 <0>         0.1268
     60 H27        -7.6626   -5.8814   -7.6170 H         1 <0>         0.1264
     61 H28        -0.3273   -5.5873    1.7707 H         1 <0>         0.0857
     62 H29        -1.8725   -5.0668    2.4846 H         1 <0>         0.0997
     63 H30        -1.8648   -6.1494    1.0718 H         1 <0>         0.1010
     64 H31        -5.9143   -6.2436   -9.1925 H         1 <0>         0.4277
@<TRIPOS>BOND
     1    1    2 1
     2    1   35 1
     3    1   36 1
     4    1   37 1
     5    2    3 1
     6    2   38 1
     7    2   39 1
     8    3    4 1
     9    3   40 1
    10    3   41 1
    11    4   33 2
    12    4    5 1
    13    5   12 1
    14    5    6 2
    15    6    7 1
    16    6   32 1
    17    7    8 2
    18    7    9 am
    19    9   10 1
    20    9   11 1
    21   11   12 2
    22   11   13 1
    23   13   18 ar
    24   13   14 ar
    25   14   15 ar
    26   14   42 1
    27   15   16 ar
    28   15   22 1
    29   16   17 ar
    30   16   43 1
    31   17   18 ar
    32   17   44 1
    33   18   19 1
    34   19   20 1
    35   20   21 1
    36   20   45 1
    37   20   46 1
    38   21   47 1
    39   21   48 1
    40   21   49 1
    41   22   23 2
    42   22   24 2
    43   22   25 1
    44   25   30 1
    45   25   26 1
    46   26   27 1
    47   26   50 1
    48   26   51 1
    49   27   28 1
    50   27   52 1
    51   27   53 1
    52   28   29 1
    53   28   31 1
    54   28   64 1
    55   29   30 1
    56   29   54 1
    57   29   55 1
    58   30   56 1
    59   30   57 1
    60   31   58 1
    61   31   59 1
    62   31   60 1
    63   32   33 1
    64   32   34 1
    65   34   61 1
    66   34   62 1
    67   34   63 1
@<TRIPOS>MOLECULE
ZINC14953365
   31    33     0     0     0
SMALL
USER_CHARGES

@<TRIPOS>ATOM
      1 C1         -0.0187    1.5258    0.0104 C.3       1 <0>        -0.1423
      2 C2          0.0021   -0.0041    0.0020 C.3       1 <0>        -0.1231
      3 C3          0.7421   -0.5109    1.2415 C.3       1 <0>         0.0541
      4 O1          0.7614   -1.9398    1.2337 O.3       1 <0>        -0.2395
      5 C4          1.3846   -2.5535    2.2722 C.ar      1 <0>         0.1595
      6 C5          1.9611   -1.7987    3.2821 C.ar      1 <0>        -0.2333
      7 C6          2.5948   -2.4244    4.3380 C.ar      1 <0>        -0.0982
      8 C7          2.6582   -3.8062    4.3957 C.ar      1 <0>        -0.1779
      9 C8          2.0888   -4.5703    3.3986 C.ar      1 <0>        -0.0533
     10 C9          1.4423   -3.9501    2.3303 C.ar      1 <0>        -0.0190
     11 C10         0.8245   -4.7657    1.2592 C.ar      1 <0>         0.3508
     12 N1          0.2275   -4.1264    0.2544 N.ar      1 <0>        -0.6291
     13 C11        -0.3501   -4.7739   -0.7445 C.ar      1 <0>         0.5035
     14 O2         -0.9512   -4.1076   -1.7566 O.3       1 <0>        -0.7157
     15 C12        -0.3151   -6.2310   -0.7156 C.ar      1 <0>        -0.1910
     16 N2         -0.7406   -7.2297   -1.4617 N.2       1 <0>        -0.3291
     17 N3         -0.3994   -8.3395   -0.9027 N.2       1 <0>        -0.1963
     18 N4          0.2445   -8.1643    0.1989 N.2       1 <0>        -0.3779
     19 C13         0.3620   -6.8697    0.4258 C.ar      1 <0>         0.1454
     20 N5          0.9051   -6.0766    1.3584 N.ar      1 <0>        -0.5680
     21 H1          1.0039    1.9031    0.0027 H         1 <0>         0.0496
     22 H2         -0.5459    1.8868   -0.8726 H         1 <0>         0.0570
     23 H3         -0.5289    1.8773    0.9072 H         1 <0>         0.0496
     24 H4         -1.0205   -0.3814    0.0098 H         1 <0>         0.0770
     25 H5          0.5123   -0.3556   -0.8948 H         1 <0>         0.0771
     26 H6          1.7647   -0.1336    1.2338 H         1 <0>         0.0463
     27 H7          0.2319   -0.1594    2.1383 H         1 <0>         0.0462
     28 H8          1.9151   -0.7204    3.2430 H         1 <0>         0.1171
     29 H9          3.0433   -1.8327    5.1223 H         1 <0>         0.1089
     30 H10         3.1558   -4.2876    5.2246 H         1 <0>         0.1125
     31 H11         2.1408   -5.6480    3.4470 H         1 <0>         0.1392
@<TRIPOS>BOND
     1    1    2 1
     2    1   21 1
     3    1   22 1
     4    1   23 1
     5    2    3 1
     6    2   24 1
     7    2   25 1
     8    3    4 1
     9    3   26 1
    10    3   27 1
    11    4    5 1
    12    5   10 ar
    13    5    6 ar
    14    6    7 ar
    15    6   28 1
    16    7    8 ar
    17    7   29 1
    18    8    9 ar
    19    8   30 1
    20    9   10 ar
    21    9   31 1
    22   10   11 1
    23   11   20 ar
    24   11   12 ar
    25   12   13 ar
    26   13   14 1
    27   13   15 ar
    28   15   19 ar
    29   15   16 2
    30   16   17 1
    31   17   18 1
    32   18   19 2
    33   19   20 ar
@<TRIPOS>MOLECULE
ZINC14953365
   32    34     0     0     0
SMALL
USER_CHARGES

@<TRIPOS>ATOM
      1 C1         -0.0187    1.5258    0.0104 C.3       1 <0>        -0.1458
      2 C2          0.0021   -0.0041    0.0020 C.3       1 <0>        -0.1216
      3 C3         -1.4333   -0.5336    0.0129 C.3       1 <0>         0.0534
      4 O1         -1.4139   -1.9625    0.0050 O.3       1 <0>        -0.2533
      5 C4         -2.6153   -2.5953    0.0131 C.ar      1 <0>         0.1746
      6 C5         -3.7897   -1.8588    0.0225 C.ar      1 <0>        -0.2311
      7 C6         -5.0111   -2.5039    0.0312 C.ar      1 <0>        -0.0713
      8 C7         -5.0711   -3.8869    0.0301 C.ar      1 <0>        -0.1782
      9 C8         -3.9107   -4.6328    0.0203 C.ar      1 <0>        -0.0340
     10 C9         -2.6726   -3.9927    0.0061 C.ar      1 <0>        -0.0608
     11 C10        -1.4229   -4.7891   -0.0106 C.ar      1 <0>         0.4081
     12 N1         -0.2554   -4.1511   -0.0133 N.ar      1 <0>        -0.5727
     13 C11         0.8902   -4.8180   -0.0276 C.ar      1 <0>         0.4867
     14 O2          2.0741   -4.1594   -0.0298 O.3       1 <0>        -0.6795
     15 C12         0.8508   -6.2155   -0.0399 C.ar      1 <0>        -0.1593
     16 C13        -0.4029   -6.8559   -0.0366 C.ar      1 <0>         0.2596
     17 N2         -1.5075   -6.1089   -0.0169 N.ar      1 <0>        -0.5690
     18 N3         -0.1345   -8.1734   -0.0512 N.2       1 <0>        -0.2773
     19 N4          1.1405   -8.3484   -0.0624 N.2       1 <0>        -0.0384
     20 N5          1.7753   -7.2265   -0.0565 N.pl3     1 <0>        -0.3729
     21 H1          2.7391   -7.1171   -0.0631 H         1 <0>         0.4476
     22 H2          1.0039    1.9031    0.0027 H         1 <0>         0.0602
     23 H3         -0.5459    1.8868   -0.8726 H         1 <0>         0.0527
     24 H4         -0.5289    1.8773    0.9072 H         1 <0>         0.0527
     25 H5          0.5123   -0.3556   -0.8948 H         1 <0>         0.0759
     26 H6          0.5293   -0.3651    0.8851 H         1 <0>         0.0760
     27 H7         -1.9435   -0.1821    0.9097 H         1 <0>         0.0536
     28 H8         -1.9605   -0.1726   -0.8702 H         1 <0>         0.0536
     29 H9         -3.7496   -0.7795    0.0234 H         1 <0>         0.1258
     30 H10        -5.9238   -1.9264    0.0393 H         1 <0>         0.1192
     31 H11        -6.0299   -4.3838    0.0374 H         1 <0>         0.1223
     32 H12        -3.9616   -5.7116    0.0195 H         1 <0>         0.1433
@<TRIPOS>BOND
     1    1    2 1
     2    1   22 1
     3    1   23 1
     4    1   24 1
     5    2    3 1
     6    2   25 1
     7    2   26 1
     8    3    4 1
     9    3   27 1
    10    3   28 1
    11    4    5 1
    12    5   10 ar
    13    5    6 ar
    14    6    7 ar
    15    6   29 1
    16    7    8 ar
    17    7   30 1
    18    8    9 ar
    19    8   31 1
    20    9   10 ar
    21    9   32 1
    22   10   11 1
    23   11   17 ar
    24   11   12 ar
    25   12   13 ar
    26   13   14 1
    27   13   15 ar
    28   15   16 ar
    29   15   20 1
    30   16   17 ar
    31   16   18 1
    32   18   19 2
    33   19   20 1
    34   20   21 1
@<TRIPOS>MOLECULE
ZINC14953365
   32    34     0     0     0
SMALL
USER_CHARGES

@<TRIPOS>ATOM
      1 C1         -0.0187    1.5258    0.0104 C.3       1 <0>        -0.1457
      2 C2          0.0021   -0.0041    0.0020 C.3       1 <0>        -0.1224
      3 C3         -1.4333   -0.5336    0.0129 C.3       1 <0>         0.0532
      4 O1         -1.4139   -1.9625    0.0050 O.3       1 <0>        -0.2520
      5 C4         -2.6152   -2.5953    0.0131 C.ar      1 <0>         0.1789
      6 C5         -3.7896   -1.8588    0.0225 C.ar      1 <0>        -0.2310
      7 C6         -5.0111   -2.5039    0.0308 C.ar      1 <0>        -0.0680
      8 C7         -5.0712   -3.8870    0.0297 C.ar      1 <0>        -0.1802
      9 C8         -3.9111   -4.6331    0.0208 C.ar      1 <0>        -0.0323
     10 C9         -2.6726   -3.9930    0.0061 C.ar      1 <0>        -0.0665
     11 C10        -1.4235   -4.7891   -0.0106 C.ar      1 <0>         0.4378
     12 N1         -0.2555   -4.1526   -0.0133 N.ar      1 <0>        -0.5853
     13 C11         0.8886   -4.8183   -0.0276 C.ar      1 <0>         0.5093
     14 O2          2.0713   -4.1592   -0.0297 O.3       1 <0>        -0.6423
     15 C12         0.8505   -6.2267   -0.0400 C.ar      1 <0>        -0.1919
     16 C13        -0.4080   -6.8564   -0.0366 C.ar      1 <0>         0.3382
     17 N2         -1.5070   -6.1104   -0.0169 N.ar      1 <0>        -0.6189
     18 N3         -0.1580   -8.2010   -0.0510 N.pl3     1 <0>        -0.5059
     19 N4          1.2372   -8.3495   -0.0627 N.2       1 <0>        -0.0830
     20 N5          1.7907   -7.1872   -0.0559 N.2       1 <0>        -0.1662
     21 H1         -0.8167   -8.9130   -0.0527 H         1 <0>         0.4358
     22 H2          1.0039    1.9031    0.0027 H         1 <0>         0.0608
     23 H3         -0.5459    1.8868   -0.8726 H         1 <0>         0.0526
     24 H4         -0.5289    1.8773    0.9072 H         1 <0>         0.0526
     25 H5          0.5123   -0.3556   -0.8948 H         1 <0>         0.0768
     26 H6          0.5293   -0.3651    0.8851 H         1 <0>         0.0769
     27 H7         -1.9435   -0.1821    0.9097 H         1 <0>         0.0542
     28 H8         -1.9605   -0.1726   -0.8702 H         1 <0>         0.0542
     29 H9         -3.7496   -0.7795    0.0238 H         1 <0>         0.1271
     30 H10        -5.9237   -1.9264    0.0385 H         1 <0>         0.1201
     31 H11        -6.0302   -4.3837    0.0362 H         1 <0>         0.1222
     32 H12        -3.9622   -5.7119    0.0203 H         1 <0>         0.1409
@<TRIPOS>BOND
     1    1    2 1
     2    1   22 1
     3    1   23 1
     4    1   24 1
     5    2    3 1
     6    2   25 1
     7    2   26 1
     8    3    4 1
     9    3   27 1
    10    3   28 1
    11    4    5 1
    12    5   10 ar
    13    5    6 ar
    14    6    7 ar
    15    6   29 1
    16    7    8 ar
    17    7   30 1
    18    8    9 ar
    19    8   31 1
    20    9   10 ar
    21    9   32 1
    22   10   11 1
    23   11   17 ar
    24   11   12 ar
    25   12   13 ar
    26   13   14 1
    27   13   15 ar
    28   15   16 ar
    29   15   20 1
    30   16   17 ar
    31   16   18 1
    32   18   21 1
    33   18   19 1
    34   19   20 2
@<TRIPOS>MOLECULE
ZINC14953365
   32    34     0     0     0
SMALL
USER_CHARGES

@<TRIPOS>ATOM
      1 C1         -0.0187    1.5258    0.0104 C.3       1 <0>        -0.1457
      2 C2          0.0021   -0.0041    0.0020 C.3       1 <0>        -0.1218
      3 C3          0.7421   -0.5109    1.2415 C.3       1 <0>         0.0528
      4 O1          0.7614   -1.9398    1.2337 O.3       1 <0>        -0.2494
      5 C4          1.3846   -2.5535    2.2722 C.ar      1 <0>         0.1779
      6 C5          1.9611   -1.7987    3.2821 C.ar      1 <0>        -0.2330
      7 C6          2.5948   -2.4244    4.3380 C.ar      1 <0>        -0.0705
      8 C7          2.6582   -3.8062    4.3957 C.ar      1 <0>        -0.1809
      9 C8          2.0888   -4.5703    3.3986 C.ar      1 <0>        -0.0318
     10 C9          1.4423   -3.9501    2.3303 C.ar      1 <0>        -0.0655
     11 C10         0.8245   -4.7657    1.2592 C.ar      1 <0>         0.4409
     12 N1          0.2275   -4.1264    0.2544 N.ar      1 <0>        -0.6040
     13 C11        -0.3501   -4.7739   -0.7445 C.ar      1 <0>         0.5269
     14 O2         -0.9512   -4.1076   -1.7566 O.3       1 <0>        -0.6419
     15 C12        -0.3151   -6.2310   -0.7156 C.ar      1 <0>        -0.1264
     16 N2         -0.7406   -7.2297   -1.4617 N.2       1 <0>        -0.2278
     17 N3         -0.3994   -8.3395   -0.9027 N.pl3     1 <0>        -0.2462
     18 N4          0.2445   -8.1643    0.1989 N.2       1 <0>        -0.3215
     19 C13         0.3620   -6.8697    0.4258 C.ar      1 <0>         0.2652
     20 N5          0.9051   -6.0766    1.3584 N.ar      1 <0>        -0.5901
     21 H1          1.0039    1.9031    0.0027 H         1 <0>         0.0523
     22 H2         -0.5459    1.8868   -0.8726 H         1 <0>         0.0600
     23 H3         -0.5289    1.8773    0.9072 H         1 <0>         0.0523
     24 H4         -1.0205   -0.3814    0.0098 H         1 <0>         0.0764
     25 H5          0.5123   -0.3556   -0.8948 H         1 <0>         0.0765
     26 H6          1.7647   -0.1336    1.2338 H         1 <0>         0.0531
     27 H7          0.2319   -0.1594    2.1383 H         1 <0>         0.0530
     28 H8          1.9151   -0.7204    3.2430 H         1 <0>         0.1254
     29 H9          3.0433   -1.8327    5.1223 H         1 <0>         0.1184
     30 H10         3.1558   -4.2876    5.2246 H         1 <0>         0.1211
     31 H11         2.1408   -5.6480    3.4470 H         1 <0>         0.1429
     32 H12        -0.6055   -9.2126   -1.2715 H         1 <0>         0.4610
@<TRIPOS>BOND
     1    1    2 1
     2    1   21 1
     3    1   22 1
     4    1   23 1
     5    2    3 1
     6    2   24 1
     7    2   25 1
     8    3    4 1
     9    3   26 1
    10    3   27 1
    11    4    5 1
    12    5   10 ar
    13    5    6 ar
    14    6    7 ar
    15    6   28 1
    16    7    8 ar
    17    7   29 1
    18    8    9 ar
    19    8   30 1
    20    9   10 ar
    21    9   31 1
    22   10   11 1
    23   11   20 ar
    24   11   12 ar
    25   12   13 ar
    26   13   14 1
    27   13   15 ar
    28   15   19 ar
    29   15   16 2
    30   16   17 1
    31   17   18 1
    32   17   32 1
    33   18   19 2
    34   19   20 ar
@<TRIPOS>MOLECULE
ZINC36268618
   58    61     0     0     0
SMALL
USER_CHARGES

@<TRIPOS>ATOM
      1 C1         -4.5012   -0.9534   -0.2463 C.3       1 <0>        -0.1268
      2 C2         -3.2042   -1.7050   -0.0914 C.ar      1 <0>        -0.0515
      3 C3         -2.0046   -1.0754   -0.3690 C.ar      1 <0>        -0.1090
      4 C4         -0.8142   -1.7611   -0.2277 C.ar      1 <0>        -0.0728
      5 C5         -0.8227   -3.0846    0.1939 C.ar      1 <0>         0.0852
      6 C6         -2.0294   -3.7140    0.4719 C.ar      1 <0>        -0.0744
      7 C7         -3.2159   -3.0209    0.3336 C.ar      1 <0>        -0.1097
      8 C8         -2.0434   -5.1497    0.9296 C.3       1 <0>        -0.1249
      9 N1          0.3805   -3.7818    0.3376 N.pl3     1 <0>        -0.6590
     10 C9          0.7060   -4.3483    1.5460 C.2       1 <0>         0.5430
     11 C10         1.0395   -5.6875    1.6308 C.2       1 <0>        -0.2926
     12 C11         1.3682   -6.2231    2.8799 C.2       1 <0>         0.3757
     13 N2          1.3939   -5.4405    3.9585 N.am      1 <0>        -0.4716
     14 C12         1.0547   -4.1543    3.8640 C.2       1 <0>         0.6742
     15 O1          1.0598   -3.4634    4.8695 O.2       1 <0>        -0.4806
     16 N3          0.7126   -3.5979    2.6899 N.am      1 <0>        -0.4984
     17 C13         0.3394   -2.1822    2.6355 C.3       1 <0>         0.0439
     18 C14         1.8361   -5.9629    5.2532 C.3       1 <0>         0.0844
     19 C15         1.3548   -7.3947    5.4680 C.3       1 <0>        -0.1039
     20 C16         1.7162   -8.2404    4.2747 C.ar      1 <0>        -0.0191
     21 C17         1.7088   -7.6567    3.0061 C.ar      1 <0>        -0.1341
     22 C18         2.0214   -8.4213    1.8843 C.ar      1 <0>        -0.1073
     23 C19         2.3480   -9.7569    2.0364 C.ar      1 <0>         0.0994
     24 C20         2.3636  -10.3313    3.3059 C.ar      1 <0>         0.1761
     25 C21         2.0469   -9.5682    4.4223 C.ar      1 <0>        -0.1794
     26 O2          2.6898  -11.6421    3.4521 O.3       1 <0>        -0.2868
     27 C22         2.6862  -12.1672    4.7810 C.3       1 <0>         0.0160
     28 O3          2.6538  -10.5100    0.9461 O.3       1 <0>        -0.2932
     29 C23         2.6176   -9.8569   -0.3244 C.3       1 <0>         0.0191
     30 C24         0.4925   -1.0744   -0.5310 C.3       1 <0>        -0.1247
     31 H1         -4.7481   -0.4576    0.6925 H         1 <0>         0.0805
     32 H2         -4.3972   -0.2078   -1.0346 H         1 <0>         0.0757
     33 H3         -5.2963   -1.6512   -0.5088 H         1 <0>         0.0747
     34 H4         -1.9988   -0.0465   -0.6971 H         1 <0>         0.1379
     35 H5         -4.1542   -3.5084    0.5535 H         1 <0>         0.1357
     36 H6         -1.8916   -5.1887    2.0083 H         1 <0>         0.0609
     37 H7         -3.0042   -5.6008    0.6814 H         1 <0>         0.0845
     38 H8         -1.2447   -5.6981    0.4303 H         1 <0>         0.0736
     39 H9          1.0462   -6.3090    0.7476 H         1 <0>         0.1978
     40 H10        -0.7440   -2.0890    2.7102 H         1 <0>         0.0988
     41 H11         0.8078   -1.6509    3.4640 H         1 <0>         0.1188
     42 H12         0.6768   -1.7536    1.6918 H         1 <0>         0.1126
     43 H13         2.9252   -5.9429    5.2928 H         1 <0>         0.1161
     44 H14         1.4396   -5.3303    6.0474 H         1 <0>         0.1370
     45 H15         1.8278   -7.8058    6.3599 H         1 <0>         0.1288
     46 H16         0.2728   -7.3972    5.5994 H         1 <0>         0.1065
     47 H17         2.0085   -7.9740    0.9014 H         1 <0>         0.1541
     48 H18         2.0601  -10.0162    5.4050 H         1 <0>         0.1586
     49 H19         3.4029  -11.6173    5.3910 H         1 <0>         0.0658
     50 H20         1.6895  -12.0639    5.2099 H         1 <0>         0.0658
     51 H21         2.9636  -13.2211    4.7560 H         1 <0>         0.1151
     52 H22         2.8810  -10.5689   -1.1066 H         1 <0>         0.1127
     53 H23         1.6144   -9.4717   -0.5065 H         1 <0>         0.0600
     54 H24         3.3300   -9.0319   -0.3292 H         1 <0>         0.0601
     55 H25         0.8708   -0.5976    0.3732 H         1 <0>         0.0785
     56 H26         1.2158   -1.8094   -0.8840 H         1 <0>         0.0667
     57 H27         0.3360   -0.3195   -1.3016 H         1 <0>         0.0850
     58 H28         0.9855   -3.8656   -0.4160 H         1 <0>         0.4407
@<TRIPOS>BOND
     1    1    2 1
     2    1   31 1
     3    1   32 1
     4    1   33 1
     5    2    7 ar
     6    2    3 ar
     7    3    4 ar
     8    3   34 1
     9    4    5 ar
    10    4   30 1
    11    5    6 ar
    12    5    9 1
    13    6    7 ar
    14    6    8 1
    15    7   35 1
    16    8   36 1
    17    8   37 1
    18    8   38 1
    19    9   10 1
    20    9   58 1
    21   10   16 1
    22   10   11 2
    23   11   12 1
    24   11   39 1
    25   12   21 1
    26   12   13 2
    27   13   14 am
    28   13   18 1
    29   14   15 2
    30   14   16 am
    31   16   17 1
    32   17   40 1
    33   17   41 1
    34   17   42 1
    35   18   19 1
    36   18   43 1
    37   18   44 1
    38   19   20 1
    39   19   45 1
    40   19   46 1
    41   20   25 ar
    42   20   21 ar
    43   21   22 ar
    44   22   23 ar
    45   22   47 1
    46   23   24 ar
    47   23   28 1
    48   24   25 ar
    49   24   26 1
    50   25   48 1
    51   26   27 1
    52   27   49 1
    53   27   50 1
    54   27   51 1
    55   28   29 1
    56   29   52 1
    57   29   53 1
    58   29   54 1
    59   30   55 1
    60   30   56 1
    61   30   57 1
@<TRIPOS>MOLECULE
ZINC14806781
   37    38     0     0     0
SMALL
USER_CHARGES

@<TRIPOS>ATOM
      1 C1         -0.0187    1.5258    0.0104 C.3       1 <0>        -0.1420
      2 C2          0.0021   -0.0041    0.0020 C.3       1 <0>        -0.1122
      3 C3         -1.4333   -0.5336    0.0129 C.3       1 <0>        -0.1431
      4 C4          0.7182   -0.4975   -1.2568 C.3       1 <0>         0.1227
      5 N1          2.1249   -0.0911   -1.2094 N.am      1 <0>        -0.5056
      6 C5          2.5108    1.1285   -1.7415 C.2       1 <0>         0.3305
      7 C6          3.8506    1.4913   -1.6844 C.2       1 <0>        -0.1524
      8 C7          4.7770    0.6092   -1.0875 C.2       1 <0>         0.5939
      9 O1          5.9569    0.9048   -1.0250 O.2       1 <0>        -0.5120
     10 N2          4.3401   -0.5650   -0.5866 N.am      1 <0>        -0.5516
     11 C8          3.0398   -0.9009   -0.6438 C.2       1 <0>         0.7073
     12 O2          2.6815   -1.9651   -0.1771 O.2       1 <0>        -0.5283
     13 C9          5.2963   -1.4850    0.0342 C.3       1 <0>         0.0828
     14 N3          3.9403    2.7335   -2.2798 N.pl3     1 <0>        -0.4977
     15 H1          4.7463    3.2601   -2.3977 H         1 <0>         0.4422
     16 C10         2.6958    3.0753   -2.6668 C.2       1 <0>         0.2969
     17 N4          1.8568    2.1236   -2.3461 N.2       1 <0>        -0.4859
     18 C11         2.3259    4.3597   -3.3630 C.3       1 <0>         0.1403
     19 O3          3.4980    5.1560   -3.5478 O.3       1 <0>        -0.3994
     20 C12         3.2562    6.4028   -4.2029 C.3       1 <0>         0.0354
     21 H2          1.0039    1.9031    0.0027 H         1 <0>         0.0473
     22 H3         -0.5459    1.8868   -0.8726 H         1 <0>         0.0649
     23 H4         -0.5289    1.8773    0.9072 H         1 <0>         0.0534
     24 H5          0.5293   -0.3651    0.8851 H         1 <0>         0.0747
     25 H6         -1.9605   -0.1726   -0.8702 H         1 <0>         0.0594
     26 H7         -1.4185   -1.6235    0.0069 H         1 <0>         0.0592
     27 H8         -1.9435   -0.1821    0.9097 H         1 <0>         0.0612
     28 H9          0.6556   -1.5845   -1.3079 H         1 <0>         0.1009
     29 H10         0.2444   -0.0644   -2.1377 H         1 <0>         0.0998
     30 H11         6.2954   -1.0508   -0.0037 H         1 <0>         0.1036
     31 H12         5.0138   -1.6563    1.0730 H         1 <0>         0.0826
     32 H13         5.2912   -2.4325   -0.5046 H         1 <0>         0.0829
     33 H14         1.8840    4.1329   -4.3332 H         1 <0>         0.0955
     34 H15         1.6062    4.9081   -2.7552 H         1 <0>         0.0954
     35 H16         2.5558    6.9936   -3.6125 H         1 <0>         0.0510
     36 H17         4.1948    6.9475   -4.3052 H         1 <0>         0.0953
     37 H18         2.8337    6.2184   -5.1906 H         1 <0>         0.0511
@<TRIPOS>BOND
     1    1    2 1
     2    1   21 1
     3    1   22 1
     4    1   23 1
     5    2    3 1
     6    2    4 1
     7    2   24 1
     8    3   25 1
     9    3   26 1
    10    3   27 1
    11    4    5 1
    12    4   28 1
    13    4   29 1
    14    5   11 am
    15    5    6 1
    16    6   17 1
    17    6    7 2
    18    7    8 1
    19    7   14 1
    20    8    9 2
    21    8   10 am
    22   10   11 am
    23   10   13 1
    24   11   12 2
    25   13   30 1
    26   13   31 1
    27   13   32 1
    28   14   15 1
    29   14   16 1
    30   16   17 2
    31   16   18 1
    32   18   19 1
    33   18   33 1
    34   18   34 1
    35   19   20 1
    36   20   35 1
    37   20   36 1
    38   20   37 1
@<TRIPOS>MOLECULE
ZINC12360812
   45    50     0     0     0
SMALL
USER_CHARGES
1,3-benzodioxol-5-ylBLAHdione
@<TRIPOS>ATOM
      1 C1         -3.5337   -2.1372    5.1035 C.ar      1 <0>        -0.1472
      2 C2         -3.2537   -0.9222    5.7072 C.ar      1 <0>        -0.0948
      3 C3         -2.9340    0.2093    4.9771 C.ar      1 <0>        -0.1300
      4 C4         -2.9033    0.0776    3.5903 C.ar      1 <0>         0.1074
      5 C5         -3.1892   -1.1694    2.9776 C.ar      1 <0>        -0.0997
      6 C6         -3.5113   -2.2964    3.7399 C.ar      1 <0>        -0.0646
      7 C7         -3.0656   -0.9522    1.5504 C.2       1 <0>        -0.1512
      8 C8         -2.7328    0.3451    1.3760 C.2       1 <0>         0.0576
      9 N1         -2.6327    0.9682    2.5915 N.pl3     1 <0>        -0.5710
     10 H1         -2.4032    1.9014    2.7230 H         1 <0>         0.4188
     11 C9         -2.5128    0.9748    0.0192 C.3       1 <0>         0.2571
     12 H2         -3.3428    1.6391   -0.2212 H         1 <0>         0.1087
     13 N2         -2.4435   -0.1216   -0.9703 N.am      1 <0>        -0.5927
     14 C10        -3.4456   -1.1831   -0.8842 C.3       1 <0>         0.1324
     15 H3         -4.4378   -0.7318   -0.8791 H         1 <0>         0.1229
     16 C11        -3.2581   -1.9468    0.4345 C.3       1 <0>        -0.0445
     17 C12        -3.3536   -2.1361   -2.0322 C.2       1 <0>         0.5243
     18 O1         -4.1968   -3.0035   -2.1189 O.2       1 <0>        -0.5250
     19 N3         -2.4047   -2.0938   -2.9652 N.am      1 <0>        -0.7154
     20 C13        -1.3394   -1.1053   -2.9904 C.3       1 <0>         0.1003
     21 C14        -1.4784   -0.1023   -1.8918 C.2       1 <0>         0.5085
     22 O2         -0.6585    0.7895   -1.8333 O.2       1 <0>        -0.4973
     23 C15        -1.2200    1.7492    0.0173 C.ar      1 <0>        -0.0340
     24 C16        -0.0580    1.1528    0.4706 C.ar      1 <0>        -0.0796
     25 C17         1.1315    1.8571    0.4655 C.ar      1 <0>        -0.0895
     26 C18         1.1606    3.1654    0.0105 C.ar      1 <0>         0.0287
     27 C19        -0.0109    3.7680   -0.4411 C.ar      1 <0>         0.0414
     28 C20        -1.1996    3.0562   -0.4324 C.ar      1 <0>        -0.0947
     29 O3          0.2773    5.0437   -0.8320 O.3       1 <0>        -0.3110
     30 C21         1.7070    5.0810   -0.9985 C.3       1 <0>         0.2148
     31 O4          2.1828    4.0635   -0.0975 O.3       1 <0>        -0.3109
     32 H4         -3.7775   -2.9861    5.7251 H         1 <0>         0.1199
     33 H5         -3.2857   -0.8558    6.7847 H         1 <0>         0.1224
     34 H6         -2.7179    1.1508    5.4600 H         1 <0>         0.1291
     35 H7         -3.7312   -3.2476    3.2779 H         1 <0>         0.1306
     36 H8         -4.1417   -2.5530    0.6342 H         1 <0>         0.1022
     37 H9         -2.3807   -2.5895    0.3627 H         1 <0>         0.0815
     38 H10        -2.4258   -2.7609   -3.6691 H         1 <0>         0.4135
     39 H11        -0.3813   -1.6145   -2.8861 H         1 <0>         0.1134
     40 H12        -1.3614   -0.5852   -3.9481 H         1 <0>         0.1162
     41 H13        -0.0788    0.1329    0.8253 H         1 <0>         0.1256
     42 H14         2.0385    1.3872    0.8160 H         1 <0>         0.1310
     43 H15        -2.1096    3.5210   -0.7820 H         1 <0>         0.1302
     44 H16         1.9794    4.8404   -2.0261 H         1 <0>         0.0835
     45 H17         2.0999    6.0583   -0.7180 H         1 <0>         0.1310
@<TRIPOS>BOND
     1    1    6 ar
     2    1    2 ar
     3    1   32 1
     4    2    3 ar
     5    2   33 1
     6    3    4 ar
     7    3   34 1
     8    4    9 1
     9    4    5 ar
    10    5    6 ar
    11    5    7 1
    12    6   35 1
    13    7   16 1
    14    7    8 2
    15    8    9 1
    16    8   11 1
    17    9   10 1
    18   11   12 1
    19   11   13 1
    20   11   23 1
    21   13   21 am
    22   13   14 1
    23   14   15 1
    24   14   16 1
    25   14   17 1
    26   16   36 1
    27   16   37 1
    28   17   18 2
    29   17   19 am
    30   19   20 1
    31   19   38 1
    32   20   21 1
    33   20   39 1
    34   20   40 1
    35   21   22 2
    36   23   28 ar
    37   23   24 ar
    38   24   25 ar
    39   24   41 1
    40   25   26 ar
    41   25   42 1
    42   26   31 1
    43   26   27 ar
    44   27   28 ar
    45   27   29 1
    46   28   43 1
    47   29   30 1
    48   30   31 1
    49   30   44 1
    50   30   45 1
@<TRIPOS>MOLECULE
ZINC06310440
   58    62     0     0     0
SMALL
USER_CHARGES
butyl-(4-methoxyphenyl)-BLAHdione
@<TRIPOS>ATOM
      1 C1          4.1689   10.7032    3.7820 C.3       1 <0>        -0.1529
      2 C2          3.1355   10.8896    2.6693 C.3       1 <0>        -0.1212
      3 C3          2.4330    9.5579    2.3973 C.3       1 <0>        -0.1348
      4 C4          1.3997    9.7444    1.2845 C.3       1 <0>         0.1060
      5 N1          0.7270    8.4692    1.0241 N.am      1 <0>        -0.6020
      6 C5         -0.4776    8.1642    1.7778 C.3       1 <0>         0.1040
      7 C6         -1.0886    6.8665    1.3594 C.2       1 <0>         0.5196
      8 O1         -2.1124    6.5200    1.9095 O.2       1 <0>        -0.5304
      9 N2         -0.5835    6.0628    0.4213 N.am      1 <0>        -0.5867
     10 C7          0.6842    6.3255   -0.2584 C.3       1 <0>         0.1234
     11 H1          0.5152    6.3141   -1.3351 H         1 <0>         0.1220
     12 C8          1.2548    7.6566    0.1108 C.2       1 <0>         0.5202
     13 O2          2.2631    8.0195   -0.4573 O.2       1 <0>        -0.5214
     14 C9          1.6856    5.2176    0.0974 C.3       1 <0>        -0.0423
     15 C10         0.9951    3.8829   -0.0216 C.2       1 <0>        -0.1570
     16 C11         1.5941    2.5678   -0.1248 C.ar      1 <0>        -0.0980
     17 C12         2.9221    2.1308   -0.1489 C.ar      1 <0>        -0.0651
     18 C13         3.1279    0.7778   -0.2595 C.ar      1 <0>        -0.1474
     19 C14         2.0778   -0.1219   -0.3433 C.ar      1 <0>        -0.0961
     20 C15         0.7545    0.2830   -0.3213 C.ar      1 <0>        -0.1302
     21 C16         0.5150    1.6511   -0.2097 C.ar      1 <0>         0.1057
     22 N3         -0.6399    2.3770   -0.1532 N.pl3     1 <0>        -0.5728
     23 H2         -1.5351    2.0048   -0.1856 H         1 <0>         0.4177
     24 C17        -0.3442    3.7101   -0.0468 C.2       1 <0>         0.0657
     25 C18        -1.3348    4.8492    0.0355 C.3       1 <0>         0.2547
     26 H3         -2.0921    4.6278    0.7875 H         1 <0>         0.1269
     27 C19        -1.9905    5.0575   -1.3053 C.ar      1 <0>        -0.1462
     28 C20        -3.3695    5.0750   -1.4039 C.ar      1 <0>        -0.0547
     29 C21        -3.9730    5.2714   -2.6310 C.ar      1 <0>        -0.2078
     30 C22        -3.1941    5.4393   -3.7667 C.ar      1 <0>         0.1401
     31 C23        -1.8107    5.4157   -3.6659 C.ar      1 <0>        -0.1502
     32 C24        -1.2120    5.2251   -2.4356 C.ar      1 <0>        -0.0608
     33 O3         -3.7854    5.6263   -4.9759 O.3       1 <0>        -0.3151
     34 C25        -5.2141    5.6392   -5.0045 C.3       1 <0>         0.0255
     35 H4          4.9048    9.9605    3.4738 H         1 <0>         0.0546
     36 H5          4.6694   11.6519    3.9758 H         1 <0>         0.0558
     37 H6          3.6687   10.3643    4.6893 H         1 <0>         0.0535
     38 H7          3.6357   11.2285    1.7620 H         1 <0>         0.0655
     39 H8          2.3997   11.6323    2.9775 H         1 <0>         0.0632
     40 H9          1.9329    9.2190    3.3045 H         1 <0>         0.0636
     41 H10         3.1689    8.8152    2.0891 H         1 <0>         0.0694
     42 H11         1.8998   10.0832    0.3773 H         1 <0>         0.0948
     43 H12         0.6638   10.4870    1.5927 H         1 <0>         0.0831
     44 H13        -1.2032    8.9630    1.6244 H         1 <0>         0.1155
     45 H14        -0.2273    8.1123    2.8374 H         1 <0>         0.1129
     46 H15         2.0371    5.3572    1.1197 H         1 <0>         0.0816
     47 H16         2.5307    5.2543   -0.5899 H         1 <0>         0.1011
     48 H17         3.7470    2.8247   -0.0837 H         1 <0>         0.1303
     49 H18         4.1406    0.4030   -0.2814 H         1 <0>         0.1196
     50 H19         2.2994   -1.1754   -0.4292 H         1 <0>         0.1221
     51 H20        -0.0552   -0.4287   -0.3873 H         1 <0>         0.1285
     52 H21        -3.9754    4.9390   -0.5202 H         1 <0>         0.1300
     53 H22        -5.0501    5.2890   -2.7068 H         1 <0>         0.1325
     54 H23        -1.2022    5.5466   -4.5486 H         1 <0>         0.1351
     55 H24        -0.1351    5.2067   -2.3567 H         1 <0>         0.1318
     56 H25        -5.5829    6.4454   -4.3704 H         1 <0>         0.0574
     57 H26        -5.5557    5.7964   -6.0275 H         1 <0>         0.1030
     58 H27        -5.5935    4.6856   -4.6372 H         1 <0>         0.0571
@<TRIPOS>BOND
     1    1    2 1
     2    1   35 1
     3    1   36 1
     4    1   37 1
     5    2    3 1
     6    2   38 1
     7    2   39 1
     8    3    4 1
     9    3   40 1
    10    3   41 1
    11    4    5 1
    12    4   42 1
    13    4   43 1
    14    5   12 am
    15    5    6 1
    16    6    7 1
    17    6   44 1
    18    6   45 1
    19    7    8 2
    20    7    9 am
    21    9   25 1
    22    9   10 1
    23   10   11 1
    24   10   12 1
    25   10   14 1
    26   12   13 2
    27   14   15 1
    28   14   46 1
    29   14   47 1
    30   15   24 2
    31   15   16 1
    32   16   21 ar
    33   16   17 ar
    34   17   18 ar
    35   17   48 1
    36   18   19 ar
    37   18   49 1
    38   19   20 ar
    39   19   50 1
    40   20   21 ar
    41   20   51 1
    42   21   22 1
    43   22   23 1
    44   22   24 1
    45   24   25 1
    46   25   26 1
    47   25   27 1
    48   27   32 ar
    49   27   28 ar
    50   28   29 ar
    51   28   52 1
    52   29   30 ar
    53   29   53 1
    54   30   31 ar
    55   30   33 1
    56   31   32 ar
    57   31   54 1
    58   32   55 1
    59   33   34 1
    60   34   56 1
    61   34   57 1
    62   34   58 1
@<TRIPOS>MOLECULE
ZINC06310444
   58    62     0     0     0
SMALL
USER_CHARGES
butyl-(4-methoxyphenyl)-BLAHdione
@<TRIPOS>ATOM
      1 C1         -7.3042   -2.5696    4.3182 C.3       1 <0>        -0.1530
      2 C2         -5.8348   -2.6271    4.7407 C.3       1 <0>        -0.1212
      3 C3         -4.9613   -2.0409    3.6297 C.3       1 <0>        -0.1346
      4 C4         -3.4920   -2.0984    4.0523 C.3       1 <0>         0.1060
      5 N1         -2.6556   -1.5371    2.9885 N.am      1 <0>        -0.6016
      6 C5         -2.3715   -0.1121    3.0209 C.3       1 <0>         0.1028
      7 C6         -1.4510    0.3020    1.9193 C.2       1 <0>         0.5093
      8 O1         -1.1240    1.4686    1.8641 O.2       1 <0>        -0.4949
      9 N2         -0.9648   -0.5252    0.9917 N.am      1 <0>        -0.5932
     10 C7         -1.3440   -1.9345    0.8992 C.3       1 <0>         0.1337
     11 H1         -0.4395   -2.5427    0.8884 H         1 <0>         0.1197
     12 C8         -2.2001   -2.3619    2.0476 C.2       1 <0>         0.5204
     13 O2         -2.4991   -3.5346    2.1272 O.2       1 <0>        -0.5223
     14 C9         -2.0954   -2.1686   -0.4189 C.3       1 <0>        -0.0426
     15 C10        -1.3509   -1.4791   -1.5334 C.2       1 <0>        -0.1548
     16 C11        -1.4725   -1.6925   -2.9614 C.ar      1 <0>        -0.0991
     17 C12        -2.2648   -2.5537   -3.7267 C.ar      1 <0>        -0.0651
     18 C13        -2.1177   -2.4846   -5.0901 C.ar      1 <0>        -0.1476
     19 C14        -1.2296   -1.6075   -5.6910 C.ar      1 <0>        -0.0958
     20 C15        -0.4336   -0.7444   -4.9580 C.ar      1 <0>        -0.1302
     21 C16        -0.5610   -0.7928   -3.5713 C.ar      1 <0>         0.1062
     22 N3          0.0563   -0.0992   -2.5705 N.pl3     1 <0>        -0.5710
     23 H2          0.7306    0.5860   -2.7000 H         1 <0>         0.4182
     24 C17        -0.4205   -0.5162   -1.3562 C.2       1 <0>         0.0610
     25 C18         0.0021   -0.0041    0.0020 C.3       1 <0>         0.2564
     26 H3          1.0040   -0.3621    0.2389 H         1 <0>         0.1034
     27 C19        -0.0184    1.5028    0.0103 C.ar      1 <0>        -0.0805
     28 C20         1.0805    2.2054    0.4692 C.ar      1 <0>        -0.0728
     29 C21         1.0664    3.5868    0.4725 C.ar      1 <0>        -0.1989
     30 C22        -0.0559    4.2689    0.0255 C.ar      1 <0>         0.1264
     31 C23        -1.1593    3.5615   -0.4291 C.ar      1 <0>        -0.1424
     32 C24        -1.1381    2.1803   -0.4357 C.ar      1 <0>        -0.0477
     33 O3         -0.0741    5.6278    0.0326 O.3       1 <0>        -0.3199
     34 C25         1.0971    6.2898    0.5142 C.3       1 <0>         0.0283
     35 H4         -7.4423   -3.1474    3.4043 H         1 <0>         0.0546
     36 H5         -7.9265   -2.9872    5.1097 H         1 <0>         0.0559
     37 H6         -7.5906   -1.5331    4.1395 H         1 <0>         0.0534
     38 H7         -5.5484   -3.6635    4.9194 H         1 <0>         0.0655
     39 H8         -5.6966   -2.0493    5.6546 H         1 <0>         0.0631
     40 H9         -5.2477   -1.0045    3.4511 H         1 <0>         0.0633
     41 H10        -5.0995   -2.6187    2.7159 H         1 <0>         0.0691
     42 H11        -3.2056   -3.1349    4.2309 H         1 <0>         0.0945
     43 H12        -3.3538   -1.5206    4.9661 H         1 <0>         0.0826
     44 H13        -1.9126    0.1359    3.9779 H         1 <0>         0.1135
     45 H14        -3.3083    0.4368    2.9248 H         1 <0>         0.1098
     46 H15        -2.1500   -3.2379   -0.6231 H         1 <0>         0.1001
     47 H16        -3.1028   -1.7595   -0.3426 H         1 <0>         0.0794
     48 H17        -2.9600   -3.2406   -3.2670 H         1 <0>         0.1299
     49 H18        -2.7129   -3.1351   -5.7138 H         1 <0>         0.1195
     50 H19        -1.1562   -1.5964   -6.7684 H         1 <0>         0.1221
     51 H20         0.2549   -0.0653   -5.4387 H         1 <0>         0.1286
     52 H21         1.9522    1.6738    0.8213 H         1 <0>         0.1188
     53 H22         1.9267    4.1352    0.8269 H         1 <0>         0.1248
     54 H23        -2.0343    4.0903   -0.7773 H         1 <0>         0.1249
     55 H24        -1.9967    1.6291   -0.7899 H         1 <0>         0.1157
     56 H25         0.9502    7.3688    0.4662 H         1 <0>         0.0993
     57 H26         1.2830    5.9940    1.5467 H         1 <0>         0.0550
     58 H27         1.9514    6.0116   -0.1029 H         1 <0>         0.0541
@<TRIPOS>BOND
     1    1    2 1
     2    1   35 1
     3    1   36 1
     4    1   37 1
     5    2    3 1
     6    2   38 1
     7    2   39 1
     8    3    4 1
     9    3   40 1
    10    3   41 1
    11    4    5 1
    12    4   42 1
    13    4   43 1
    14    5   12 am
    15    5    6 1
    16    6    7 1
    17    6   44 1
    18    6   45 1
    19    7    8 2
    20    7    9 am
    21    9   25 1
    22    9   10 1
    23   10   11 1
    24   10   12 1
    25   10   14 1
    26   12   13 2
    27   14   15 1
    28   14   46 1
    29   14   47 1
    30   15   24 2
    31   15   16 1
    32   16   21 ar
    33   16   17 ar
    34   17   18 ar
    35   17   48 1
    36   18   19 ar
    37   18   49 1
    38   19   20 ar
    39   19   50 1
    40   20   21 ar
    41   20   51 1
    42   21   22 1
    43   22   23 1
    44   22   24 1
    45   24   25 1
    46   25   26 1
    47   25   27 1
    48   27   32 ar
    49   27   28 ar
    50   28   29 ar
    51   28   52 1
    52   29   30 ar
    53   29   53 1
    54   30   31 ar
    55   30   33 1
    56   31   32 ar
    57   31   54 1
    58   32   55 1
    59   33   34 1
    60   34   56 1
    61   34   57 1
    62   34   58 1
@<TRIPOS>MOLECULE
ZINC13527967
   56    61     0     0     0
SMALL
USER_CHARGES
benzyl-(4-methoxyphenyl)BLAHdione
@<TRIPOS>ATOM
      1 C1         -6.5085    7.4135   -4.8143 C.3       1 <0>         0.0253
      2 O1         -5.0825    7.3318   -4.8580 O.3       1 <0>        -0.3150
      3 C2         -4.4378    7.1603   -3.6740 C.ar      1 <0>         0.1404
      4 C3         -3.0536    7.0728   -3.6429 C.ar      1 <0>        -0.1499
      5 C4         -2.4006    6.8990   -2.4380 C.ar      1 <0>        -0.0571
      6 C5         -3.1254    6.8122   -1.2638 C.ar      1 <0>        -0.1484
      7 C6         -4.5053    6.8934   -1.2927 C.ar      1 <0>        -0.0570
      8 C7         -5.1627    7.0729   -2.4944 C.ar      1 <0>        -0.2063
      9 C8         -2.4104    6.6225    0.0492 C.3       1 <0>         0.3003
     10 H1         -3.1178    6.7008    0.8748 H         1 <0>         0.1208
     11 C9         -1.7218    5.2722    0.0768 C.2       1 <0>         0.0641
     12 C10        -0.3812    5.1160    0.0609 C.2       1 <0>        -0.1520
     13 C11        -0.1267    3.6873    0.0886 C.ar      1 <0>        -0.0997
     14 C12         1.0535    2.9377    0.0854 C.ar      1 <0>        -0.0650
     15 C13         0.9200    1.5715    0.1206 C.ar      1 <0>        -0.1470
     16 C14        -0.3195    0.9539    0.1575 C.ar      1 <0>        -0.0952
     17 C15        -1.5030    1.6715    0.1560 C.ar      1 <0>        -0.1303
     18 C16        -1.3981    3.0608    0.1262 C.ar      1 <0>         0.1071
     19 N1         -2.3383    4.0502    0.1188 N.pl3     1 <0>        -0.5726
     20 H2         -3.2977    3.9092    0.1398 H         1 <0>         0.4184
     21 C17         0.6372    6.2279    0.0310 C.3       1 <0>        -0.0395
     22 C18        -0.0310    7.5165   -0.4630 C.3       1 <0>         0.0849
     23 H3         -0.1194    7.5315   -1.5493 H         1 <0>         0.1383
     24 N2         -1.3508    7.6280    0.1962 N.am      1 <0>        -0.6097
     25 C19        -1.3427    8.7536    0.9126 C.2       1 <0>         0.7148
     26 O2         -2.2995    9.1664    1.5382 O.2       1 <0>        -0.5346
     27 N3         -0.1566    9.3767    0.8620 N.am      1 <0>        -0.5715
     28 C20         0.7192    8.7178    0.0758 C.2       1 <0>         0.5308
     29 O3          1.8698    9.0237   -0.1528 O.2       1 <0>        -0.4571
     30 C21         0.1507   10.6197    1.5737 C.3       1 <0>         0.1611
     31 C22         0.6982   10.2944    2.9395 C.ar      1 <0>        -0.1226
     32 C23        -0.1598   10.1681    4.0159 C.ar      1 <0>        -0.0918
     33 C24         0.3418    9.8644    5.2678 C.ar      1 <0>        -0.1245
     34 C25         1.7026    9.6979    5.4453 C.ar      1 <0>        -0.1084
     35 C26         2.5612    9.8299    4.3699 C.ar      1 <0>        -0.1242
     36 C27         2.0589   10.1279    3.1170 C.ar      1 <0>        -0.0957
     37 H4         -6.9124    6.4936   -4.3915 H         1 <0>         0.0572
     38 H5         -6.8052    8.2593   -4.1941 H         1 <0>         0.0578
     39 H6         -6.8957    7.5498   -5.8241 H         1 <0>         0.1031
     40 H7         -2.4870    7.1409   -4.5598 H         1 <0>         0.1352
     41 H8         -1.3230    6.8311   -2.4132 H         1 <0>         0.1286
     42 H9         -5.0695    6.8206   -0.3747 H         1 <0>         0.1295
     43 H10        -6.2404    7.1408   -2.5160 H         1 <0>         0.1330
     44 H11         2.0240    3.4107    0.0569 H         1 <0>         0.1306
     45 H12         1.8095    0.9590    0.1190 H         1 <0>         0.1199
     46 H13        -0.3639   -0.1249    0.1838 H         1 <0>         0.1224
     47 H14        -2.4632    1.1778    0.1804 H         1 <0>         0.1289
     48 H15         1.0334    6.3853    1.0342 H         1 <0>         0.0839
     49 H16         1.4503    5.9582   -0.6429 H         1 <0>         0.1007
     50 H17         0.8920   11.1870    1.0108 H         1 <0>         0.1053
     51 H18        -0.7579   11.2127    1.6782 H         1 <0>         0.1068
     52 H19        -1.2225   10.3025    3.8781 H         1 <0>         0.1276
     53 H20        -0.3290    9.7610    6.1078 H         1 <0>         0.1239
     54 H21         2.0949    9.4644    6.4240 H         1 <0>         0.1233
     55 H22         3.6243    9.6998    4.5086 H         1 <0>         0.1246
     56 H23         2.7297   10.2310    2.2769 H         1 <0>         0.1265
@<TRIPOS>BOND
     1    1    2 1
     2    1   37 1
     3    1   38 1
     4    1   39 1
     5    2    3 1
     6    3    8 ar
     7    3    4 ar
     8    4    5 ar
     9    4   40 1
    10    5    6 ar
    11    5   41 1
    12    6    7 ar
    13    6    9 1
    14    7    8 ar
    15    7   42 1
    16    8   43 1
    17    9   10 1
    18    9   24 1
    19    9   11 1
    20   11   19 1
    21   11   12 2
    22   12   13 1
    23   12   21 1
    24   13   18 ar
    25   13   14 ar
    26   14   15 ar
    27   14   44 1
    28   15   16 ar
    29   15   45 1
    30   16   17 ar
    31   16   46 1
    32   17   18 ar
    33   17   47 1
    34   18   19 1
    35   19   20 1
    36   21   22 1
    37   21   48 1
    38   21   49 1
    39   22   23 1
    40   22   28 1
    41   22   24 1
    42   24   25 am
    43   25   26 2
    44   25   27 am
    45   27   28 am
    46   27   30 1
    47   28   29 2
    48   30   31 1
    49   30   50 1
    50   30   51 1
    51   31   36 ar
    52   31   32 ar
    53   32   33 ar
    54   32   52 1
    55   33   34 ar
    56   33   53 1
    57   34   35 ar
    58   34   54 1
    59   35   36 ar
    60   35   55 1
    61   36   56 1
@<TRIPOS>MOLECULE
ZINC13527994
   54    58     0     0     0
SMALL
USER_CHARGES
butyl-phenyl-BLAHdione
@<TRIPOS>ATOM
      1 C1         -9.0573   -0.7602    3.0432 C.3       1 <0>        -0.1530
      2 C2         -8.7231   -1.7259    1.9045 C.3       1 <0>        -0.1212
      3 C3         -7.2046   -1.8750    1.7914 C.3       1 <0>        -0.1346
      4 C4         -6.8704   -2.8407    0.6527 C.3       1 <0>         0.1059
      5 N1         -5.4164   -2.9835    0.5444 N.am      1 <0>        -0.6018
      6 C5         -4.7721   -4.0327    1.3167 C.3       1 <0>         0.1034
      7 C6         -3.3028   -4.1017    1.0544 C.2       1 <0>         0.5086
      8 O1         -2.6647   -4.9562    1.6320 O.2       1 <0>        -0.4941
      9 N2         -2.6451   -3.2862    0.2277 N.am      1 <0>        -0.5929
     10 C7         -3.2819   -2.1668   -0.4650 C.3       1 <0>         0.1337
     11 H1         -3.0904   -2.2597   -1.5340 H         1 <0>         0.1193
     12 C8         -4.7615   -2.1445   -0.2558 C.2       1 <0>         0.5198
     13 O2         -5.4068   -1.3091   -0.8529 O.2       1 <0>        -0.5218
     14 C9         -2.6692   -0.8510    0.0352 C.3       1 <0>        -0.0416
     15 C10        -1.1694   -0.9973    0.0720 C.2       1 <0>        -0.1546
     16 C11        -0.1663    0.0463    0.1341 C.ar      1 <0>        -0.0992
     17 C12        -0.2513    1.4414    0.1739 C.ar      1 <0>        -0.0650
     18 C13         0.9330    2.1337    0.2306 C.ar      1 <0>        -0.1475
     19 C14         2.1606    1.4919    0.2469 C.ar      1 <0>        -0.0957
     20 C15         2.2739    0.1130    0.2089 C.ar      1 <0>        -0.1302
     21 C16         1.0879   -0.6162    0.1521 C.ar      1 <0>         0.1062
     22 N3          0.8393   -1.9578    0.1049 N.pl3     1 <0>        -0.5712
     23 H2          1.5174   -2.6514    0.1060 H         1 <0>         0.4182
     24 C17        -0.5118   -2.1768    0.0552 C.2       1 <0>         0.0612
     25 C18        -1.2052   -3.5185   -0.0142 C.3       1 <0>         0.2515
     26 H3         -1.0617   -3.9590   -1.0008 H         1 <0>         0.1038
     27 C19        -0.6499   -4.4371    1.0436 C.ar      1 <0>        -0.0433
     28 C20        -0.2206   -5.7057    0.7012 C.ar      1 <0>        -0.1144
     29 C21         0.2928   -6.5468    1.6708 C.ar      1 <0>        -0.1111
     30 C22         0.3684   -6.1226    2.9842 C.ar      1 <0>        -0.1214
     31 C23        -0.0659   -4.8559    3.3275 C.ar      1 <0>        -0.1125
     32 C24        -0.5752   -4.0133    2.3573 C.ar      1 <0>        -0.0871
     33 H4         -8.6599   -1.1514    3.9798 H         1 <0>         0.0534
     34 H5         -8.6110    0.2127    2.8373 H         1 <0>         0.0545
     35 H6        -10.1391   -0.6539    3.1238 H         1 <0>         0.0560
     36 H7         -9.1205   -1.3347    0.9679 H         1 <0>         0.0656
     37 H8         -9.1694   -2.6988    2.1104 H         1 <0>         0.0632
     38 H9         -6.8072   -2.2662    2.7280 H         1 <0>         0.0631
     39 H10        -6.7583   -0.9021    1.5855 H         1 <0>         0.0691
     40 H11        -7.2678   -2.4495   -0.2838 H         1 <0>         0.0946
     41 H12        -7.3167   -3.8136    0.8586 H         1 <0>         0.0828
     42 H13        -5.2233   -4.9907    1.0581 H         1 <0>         0.1140
     43 H14        -4.9338   -3.8402    2.3773 H         1 <0>         0.1100
     44 H15        -3.0398   -0.6328    1.0368 H         1 <0>         0.0797
     45 H16        -2.9408   -0.0409   -0.6417 H         1 <0>         0.1007
     46 H17        -1.2036    1.9505    0.1563 H         1 <0>         0.1301
     47 H18         0.9067    3.2129    0.2626 H         1 <0>         0.1197
     48 H19         3.0601    2.0880    0.2913 H         1 <0>         0.1223
     49 H20         3.2371   -0.3753    0.2230 H         1 <0>         0.1288
     50 H21        -0.2831   -6.0385   -0.3243 H         1 <0>         0.1154
     51 H22         0.6324   -7.5363    1.4025 H         1 <0>         0.1187
     52 H23         0.7670   -6.7806    3.7422 H         1 <0>         0.1172
     53 H24        -0.0069   -4.5244    4.3537 H         1 <0>         0.1157
     54 H25        -0.9145   -3.0236    2.6255 H         1 <0>         0.1079
@<TRIPOS>BOND
     1    1    2 1
     2    1   33 1
     3    1   34 1
     4    1   35 1
     5    2    3 1
     6    2   36 1
     7    2   37 1
     8    3    4 1
     9    3   38 1
    10    3   39 1
    11    4    5 1
    12    4   40 1
    13    4   41 1
    14    5   12 am
    15    5    6 1
    16    6    7 1
    17    6   42 1
    18    6   43 1
    19    7    8 2
    20    7    9 am
    21    9   25 1
    22    9   10 1
    23   10   11 1
    24   10   12 1
    25   10   14 1
    26   12   13 2
    27   14   15 1
    28   14   44 1
    29   14   45 1
    30   15   24 2
    31   15   16 1
    32   16   21 ar
    33   16   17 ar
    34   17   18 ar
    35   17   46 1
    36   18   19 ar
    37   18   47 1
    38   19   20 ar
    39   19   48 1
    40   20   21 ar
    41   20   49 1
    42   21   22 1
    43   22   23 1
    44   22   24 1
    45   24   25 1
    46   25   26 1
    47   25   27 1
    48   27   32 ar
    49   27   28 ar
    50   28   29 ar
    51   28   50 1
    52   29   30 ar
    53   29   51 1
    54   30   31 ar
    55   30   52 1
    56   31   32 ar
    57   31   53 1
    58   32   54 1
@<TRIPOS>MOLECULE
ZINC16042697
   54    58     0     0     0
SMALL
USER_CHARGES
butyl-phenyl-BLAHdione
@<TRIPOS>ATOM
      1 C1         10.0135    4.3179    3.3476 C.3       1 <0>        -0.1530
      2 C2          8.5587    4.7094    3.6143 C.3       1 <0>        -0.1210
      3 C3          7.6309    3.8208    2.7833 C.3       1 <0>        -0.1351
      4 C4          6.1761    4.2123    3.0499 C.3       1 <0>         0.1066
      5 N1          5.2877    3.3615    2.2542 N.am      1 <0>        -0.5954
      6 C5          4.8211    2.1178    2.8441 C.3       1 <0>         0.0999
      7 C6          3.8692    1.3938    1.9487 C.2       1 <0>         0.5190
      8 O1          3.3959    0.3520    2.3507 O.2       1 <0>        -0.5261
      9 N2          3.5048    1.8158    0.7361 N.am      1 <0>        -0.5909
     10 C7          4.0640    3.0102    0.1044 C.3       1 <0>         0.1257
     11 H1          3.2462    3.6647   -0.1971 H         1 <0>         0.1264
     12 C8          4.9594    3.7562    1.0403 C.2       1 <0>         0.5151
     13 O2          5.4205    4.8128    0.6637 O.2       1 <0>        -0.5258
     14 C9          4.8539    2.5964   -1.1453 C.3       1 <0>        -0.0415
     15 C10         4.0334    1.6066   -1.9322 C.2       1 <0>        -0.1522
     16 C11         4.1915    1.2076   -3.3159 C.ar      1 <0>        -0.0984
     17 C12         5.0943    1.5865   -4.3142 C.ar      1 <0>        -0.0647
     18 C13         4.9461    0.9917   -5.5428 C.ar      1 <0>        -0.1474
     19 C14         3.9533    0.0587   -5.7939 C.ar      1 <0>        -0.0956
     20 C15         3.0477   -0.3354   -4.8243 C.ar      1 <0>        -0.1304
     21 C16         3.1736    0.2521   -3.5671 C.ar      1 <0>         0.1063
     22 N3          2.4664    0.0982   -2.4095 N.pl3     1 <0>        -0.5745
     23 H2          1.7104   -0.4981   -2.2925 H         1 <0>         0.4161
     24 C17         2.9853    0.9127   -1.4382 C.2       1 <0>         0.0644
     25 C18         2.4902    1.0476   -0.0161 C.3       1 <0>         0.2502
     26 H3          2.3674    0.0599    0.4284 H         1 <0>         0.1312
     27 C19         1.1750    1.7832    0.0004 C.ar      1 <0>        -0.0934
     28 C20         1.1097    3.0710    0.4986 C.ar      1 <0>        -0.1129
     29 C21        -0.0978    3.7437    0.5191 C.ar      1 <0>        -0.1114
     30 C22        -1.2378    3.1327    0.0312 C.ar      1 <0>        -0.1145
     31 C23        -1.1725    1.8447   -0.4666 C.ar      1 <0>        -0.1107
     32 C24         0.0340    1.1701   -0.4822 C.ar      1 <0>        -0.1081
     33 H4         10.6745    4.9509    3.9397 H         1 <0>         0.0560
     34 H5         10.1656    3.2746    3.6244 H         1 <0>         0.0535
     35 H6         10.2369    4.4492    2.2889 H         1 <0>         0.0546
     36 H7          8.4066    5.7526    3.3375 H         1 <0>         0.0656
     37 H8          8.3353    4.5781    4.6730 H         1 <0>         0.0634
     38 H9          7.7830    2.7776    3.0600 H         1 <0>         0.0637
     39 H10         7.8543    3.9521    1.7245 H         1 <0>         0.0699
     40 H11         6.0240    5.2555    2.7732 H         1 <0>         0.0963
     41 H12         5.9527    4.0810    4.1087 H         1 <0>         0.0843
     42 H13         4.3216    2.3388    3.7874 H         1 <0>         0.1178
     43 H14         5.6802    1.4763    3.0405 H         1 <0>         0.1143
     44 H15         5.7951    2.1351   -0.8465 H         1 <0>         0.0811
     45 H16         5.0558    3.4738   -1.7597 H         1 <0>         0.1013
     46 H17         5.8717    2.3126   -4.1276 H         1 <0>         0.1304
     47 H18         5.6249    1.2600   -6.3389 H         1 <0>         0.1200
     48 H19         3.8839   -0.3764   -6.7799 H         1 <0>         0.1226
     49 H20         2.2784   -1.0642   -5.0327 H         1 <0>         0.1289
     50 H21         2.0011    3.5499    0.8760 H         1 <0>         0.1226
     51 H22        -0.1497    4.7482    0.9124 H         1 <0>         0.1261
     52 H23        -2.1803    3.6599    0.0430 H         1 <0>         0.1258
     53 H24        -2.0640    1.3657   -0.8436 H         1 <0>         0.1267
     54 H25         0.0850    0.1638   -0.8711 H         1 <0>         0.1174
@<TRIPOS>BOND
     1    1    2 1
     2    1   33 1
     3    1   34 1
     4    1   35 1
     5    2    3 1
     6    2   36 1
     7    2   37 1
     8    3    4 1
     9    3   38 1
    10    3   39 1
    11    4    5 1
    12    4   40 1
    13    4   41 1
    14    5   12 am
    15    5    6 1
    16    6    7 1
    17    6   42 1
    18    6   43 1
    19    7    8 2
    20    7    9 am
    21    9   25 1
    22    9   10 1
    23   10   11 1
    24   10   12 1
    25   10   14 1
    26   12   13 2
    27   14   15 1
    28   14   44 1
    29   14   45 1
    30   15   24 2
    31   15   16 1
    32   16   21 ar
    33   16   17 ar
    34   17   18 ar
    35   17   46 1
    36   18   19 ar
    37   18   47 1
    38   19   20 ar
    39   19   48 1
    40   20   21 ar
    41   20   49 1
    42   21   22 1
    43   22   23 1
    44   22   24 1
    45   24   25 1
    46   25   26 1
    47   25   27 1
    48   27   32 ar
    49   27   28 ar
    50   28   29 ar
    51   28   50 1
    52   29   30 ar
    53   29   51 1
    54   30   31 ar
    55   30   52 1
    56   31   32 ar
    57   31   53 1
    58   32   54 1
@<TRIPOS>MOLECULE
ZINC02895814
   55    59     0     0     0
SMALL
USER_CHARGES
butyl-(2-methoxyphenyl)-BLAHdione
@<TRIPOS>ATOM
      1 C1          0.1219    1.5163    0.0502 C.3       1 <0>        -0.1525
      2 C2          0.1241   -0.0136    0.0350 C.3       1 <0>        -0.1204
      3 C3          0.8177   -0.5101   -1.2351 C.3       1 <0>        -0.1363
      4 C4          0.8199   -2.0400   -1.2502 C.3       1 <0>         0.1176
      5 N1          1.4840   -2.5154   -2.4665 N.am      1 <0>        -0.5757
      6 C5          2.8061   -2.7650   -2.5591 C.2       1 <0>         0.5281
      7 O1          3.6336   -2.6570   -1.6797 O.2       1 <0>        -0.4575
      8 C6          3.0444   -3.2089   -3.9883 C.3       1 <0>         0.0837
      9 H1          3.7236   -2.5359   -4.5117 H         1 <0>         0.1397
     10 C7          3.5605   -4.6527   -3.9991 C.3       1 <0>        -0.0374
     11 C8          3.2049   -5.3019   -5.3130 C.2       1 <0>        -0.1565
     12 C9          3.8053   -6.4842   -5.9033 C.ar      1 <0>        -0.0994
     13 C10         4.8320   -7.3336   -5.4803 C.ar      1 <0>        -0.0651
     14 C11         5.1484   -8.3832   -6.3073 C.ar      1 <0>        -0.1480
     15 C12         4.4887   -8.6002   -7.5060 C.ar      1 <0>        -0.0961
     16 C13         3.4700   -7.7745   -7.9490 C.ar      1 <0>        -0.1306
     17 C14         3.1276   -6.7003   -7.1298 C.ar      1 <0>         0.1048
     18 N2          2.1935   -5.7132   -7.2565 N.pl3     1 <0>        -0.5682
     19 H2          1.5827   -5.6148   -8.0036 H         1 <0>         0.4208
     20 C15         2.2495   -4.8827   -6.1693 C.2       1 <0>         0.0708
     21 C16         1.3880   -3.6580   -5.9320 C.3       1 <0>         0.3051
     22 H3          0.3336   -3.9186   -6.0229 H         1 <0>         0.1259
     23 N3          1.6826   -3.2068   -4.5663 N.am      1 <0>        -0.6116
     24 C17         0.8512   -2.7613   -3.6226 C.2       1 <0>         0.7128
     25 O2         -0.3407   -2.5950   -3.7923 O.2       1 <0>        -0.5319
     26 C18         1.7407   -2.5774   -6.9215 C.ar      1 <0>        -0.1322
     27 C19         2.5476   -1.5240   -6.5365 C.ar      1 <0>        -0.0679
     28 C20         2.8753   -0.5349   -7.4451 C.ar      1 <0>        -0.1490
     29 C21         2.3883   -0.5916   -8.7382 C.ar      1 <0>        -0.0723
     30 C22         1.5770   -1.6399   -9.1264 C.ar      1 <0>        -0.2003
     31 C23         1.2509   -2.6366   -8.2179 C.ar      1 <0>         0.1397
     32 O3          0.4525   -3.6688   -8.5974 O.3       1 <0>        -0.3245
     33 C24        -0.0153   -3.6647   -9.9477 C.3       1 <0>         0.0241
     34 H4          1.1487    1.8813    0.0306 H         1 <0>         0.0545
     35 H5         -0.4125    1.8875   -0.8244 H         1 <0>         0.0546
     36 H6         -0.3723    1.8700    0.9551 H         1 <0>         0.0572
     37 H7          0.6584   -0.3849    0.9096 H         1 <0>         0.0661
     38 H8         -0.9028   -0.3787    0.0546 H         1 <0>         0.0666
     39 H9          0.2833   -0.1389   -2.1097 H         1 <0>         0.0709
     40 H10         1.8445   -0.1451   -1.2547 H         1 <0>         0.0682
     41 H11         1.3542   -2.4113   -0.3757 H         1 <0>         0.0970
     42 H12        -0.2070   -2.4051   -1.2306 H         1 <0>         0.0979
     43 H13         4.6434   -4.6526   -3.8749 H         1 <0>         0.1006
     44 H14         3.1009   -5.2091   -3.1822 H         1 <0>         0.0835
     45 H15         5.3519   -7.1718   -4.5476 H         1 <0>         0.1304
     46 H16         5.9361   -9.0612   -6.0138 H         1 <0>         0.1195
     47 H17         4.7791   -9.4429   -8.1158 H         1 <0>         0.1219
     48 H18         2.9641   -7.9541   -8.8861 H         1 <0>         0.1279
     49 H19         2.9258   -1.4753   -5.5261 H         1 <0>         0.1274
     50 H20         3.5095    0.2856   -7.1434 H         1 <0>         0.1290
     51 H21         2.6421    0.1846   -9.4449 H         1 <0>         0.1294
     52 H22         1.1972   -1.6839  -10.1365 H         1 <0>         0.1332
     53 H23        -0.5988   -2.7618  -10.1273 H         1 <0>         0.0611
     54 H24         0.8365   -3.6881  -10.6273 H         1 <0>         0.0588
     55 H25        -0.6404   -4.5412  -10.1183 H         1 <0>         0.1045
@<TRIPOS>BOND
     1    1    2 1
     2    1   34 1
     3    1   35 1
     4    1   36 1
     5    2    3 1
     6    2   37 1
     7    2   38 1
     8    3    4 1
     9    3   39 1
    10    3   40 1
    11    4    5 1
    12    4   41 1
    13    4   42 1
    14    5   24 am
    15    5    6 am
    16    6    7 2
    17    6    8 1
    18    8    9 1
    19    8   23 1
    20    8   10 1
    21   10   11 1
    22   10   43 1
    23   10   44 1
    24   11   20 2
    25   11   12 1
    26   12   17 ar
    27   12   13 ar
    28   13   14 ar
    29   13   45 1
    30   14   15 ar
    31   14   46 1
    32   15   16 ar
    33   15   47 1
    34   16   17 ar
    35   16   48 1
    36   17   18 1
    37   18   19 1
    38   18   20 1
    39   20   21 1
    40   21   22 1
    41   21   23 1
    42   21   26 1
    43   23   24 am
    44   24   25 2
    45   26   31 ar
    46   26   27 ar
    47   27   28 ar
    48   27   49 1
    49   28   29 ar
    50   28   50 1
    51   29   30 ar
    52   29   51 1
    53   30   31 ar
    54   30   52 1
    55   31   32 1
    56   32   33 1
    57   33   53 1
    58   33   54 1
    59   33   55 1
@<TRIPOS>MOLECULE
ZINC03993855
   48    53     0     0     0
SMALL
USER_CHARGES

@<TRIPOS>ATOM
      1 C1          0.1971    1.4693   -0.0381 C.3       1 <0>         0.0754
      2 N1          0.1624    0.0047   -0.0349 N.am      1 <0>        -0.6061
      3 C2          0.1593   -0.6830   -1.3153 C.3       1 <0>         0.1037
      4 C3          0.1968   -2.1680   -1.1556 C.2       1 <0>         0.5104
      5 O1          0.2214   -2.8446   -2.1619 O.2       1 <0>        -0.4975
      6 N2          0.2055   -2.8003    0.0198 N.am      1 <0>        -0.5933
      7 C4          0.0958   -2.1051    1.3015 C.3       1 <0>         0.1344
      8 H1          0.9317   -2.4015    1.9352 H         1 <0>         0.1216
      9 C5          0.1408   -0.6198    1.1410 C.2       1 <0>         0.5186
     10 O2          0.1544    0.0599    2.1454 O.2       1 <0>        -0.5227
     11 C6         -1.2150   -2.5155    1.9871 C.3       1 <0>        -0.0429
     12 C7         -1.3632   -4.0127    1.8945 C.2       1 <0>        -0.1514
     13 C8         -2.2230   -4.8804    2.6736 C.ar      1 <0>        -0.0996
     14 C9         -3.1375   -4.6335    3.7021 C.ar      1 <0>        -0.0645
     15 C10        -3.7920   -5.7215    4.2248 C.ar      1 <0>        -0.1473
     16 C11        -3.5654   -7.0080    3.7636 C.ar      1 <0>        -0.0949
     17 C12        -2.6672   -7.2807    2.7464 C.ar      1 <0>        -0.1301
     18 C13        -1.9885   -6.1954    2.1961 C.ar      1 <0>         0.1074
     19 N3         -1.0557   -6.1068    1.2031 N.pl3     1 <0>        -0.5711
     20 H2         -0.7080   -6.8568    0.6956 H         1 <0>         0.4186
     21 C14        -0.6852   -4.7995    1.0312 C.2       1 <0>         0.0564
     22 C15         0.3293   -4.2733    0.0414 C.3       1 <0>         0.2576
     23 H3          1.3341   -4.5559    0.3556 H         1 <0>         0.1111
     24 C16         0.0443   -4.8312   -1.3292 C.ar      1 <0>        -0.0344
     25 C17         1.0570   -5.4325   -2.0534 C.ar      1 <0>        -0.1044
     26 C18         0.8004   -5.9461   -3.3108 C.ar      1 <0>        -0.0896
     27 C19        -0.4734   -5.8589   -3.8488 C.ar      1 <0>         0.0282
     28 C20        -1.4934   -5.2531   -3.1194 C.ar      1 <0>         0.0412
     29 C21        -1.2303   -4.7456   -1.8573 C.ar      1 <0>        -0.0705
     30 O3         -2.6405   -5.2919   -3.8582 O.3       1 <0>        -0.3115
     31 C22        -2.2190   -5.5599   -5.2087 C.3       1 <0>         0.2147
     32 O4         -0.9814   -6.2773   -5.0447 O.3       1 <0>        -0.3107
     33 H4          1.2331    1.8082   -0.0330 H         1 <0>         0.0641
     34 H5         -0.3029    1.8426   -0.9318 H         1 <0>         0.0765
     35 H6         -0.3130    1.8468    0.8482 H         1 <0>         0.0875
     36 H7         -0.7424   -0.4084   -1.8626 H         1 <0>         0.1116
     37 H8          1.0302   -0.3665   -1.8893 H         1 <0>         0.1153
     38 H9         -1.1892   -2.2151    3.0345 H         1 <0>         0.1021
     39 H10        -2.0552   -2.0336    1.4872 H         1 <0>         0.0808
     40 H11        -3.3202   -3.6340    4.0684 H         1 <0>         0.1305
     41 H12        -4.5058   -5.5696    5.0209 H         1 <0>         0.1199
     42 H13        -4.1079   -7.8263    4.2135 H         1 <0>         0.1225
     43 H14        -2.5005   -8.2883    2.3951 H         1 <0>         0.1290
     44 H15         2.0507   -5.5007   -1.6359 H         1 <0>         0.1336
     45 H16         1.5933   -6.4154   -3.8743 H         1 <0>         0.1339
     46 H17        -2.0205   -4.2793   -1.2875 H         1 <0>         0.1222
     47 H18        -2.9544   -6.1777   -5.7240 H         1 <0>         0.1306
     48 H19        -2.0530   -4.6285   -5.7501 H         1 <0>         0.0836
@<TRIPOS>BOND
     1    1    2 1
     2    1   33 1
     3    1   34 1
     4    1   35 1
     5    2    9 am
     6    2    3 1
     7    3    4 1
     8    3   36 1
     9    3   37 1
    10    4    5 2
    11    4    6 am
    12    6   22 1
    13    6    7 1
    14    7    8 1
    15    7    9 1
    16    7   11 1
    17    9   10 2
    18   11   12 1
    19   11   38 1
    20   11   39 1
    21   12   21 2
    22   12   13 1
    23   13   18 ar
    24   13   14 ar
    25   14   15 ar
    26   14   40 1
    27   15   16 ar
    28   15   41 1
    29   16   17 ar
    30   16   42 1
    31   17   18 ar
    32   17   43 1
    33   18   19 1
    34   19   20 1
    35   19   21 1
    36   21   22 1
    37   22   23 1
    38   22   24 1
    39   24   29 ar
    40   24   25 ar
    41   25   26 ar
    42   25   44 1
    43   26   27 ar
    44   26   45 1
    45   27   32 1
    46   27   28 ar
    47   28   29 ar
    48   28   30 1
    49   29   46 1
    50   30   31 1
    51   31   32 1
    52   31   47 1
    53   31   48 1
