@<TRIPOS>MOLECULE
ZINC19796168
   63    66     0     0     0
SMALL
USER_CHARGES

@<TRIPOS>ATOM
      1 C1         -0.0187    1.5258    0.0104 C.3       1 <0>        -0.1516
      2 C2          0.0021   -0.0041    0.0020 C.3       1 <0>        -0.1160
      3 C3          0.7182   -0.4975   -1.2568 C.3       1 <0>        -0.0368
      4 C4          0.7386   -2.0043   -1.2651 C.2       1 <0>         0.1083
      5 C5          1.7436   -2.8145   -0.7017 C.2       1 <0>         0.0436
      6 C6          1.3716   -4.1454   -0.9309 C.2       1 <0>        -0.0357
      7 C7          2.2155   -5.1793   -0.4631 C.2       1 <0>         0.5719
      8 O1          1.9272   -6.3498   -0.6430 O.2       1 <0>        -0.5217
      9 N1          3.3497   -4.8379    0.1877 N.am      1 <0>        -0.6330
     10 H1          3.9439   -5.5300    0.5176 H         1 <0>         0.4219
     11 C8          3.6639   -3.5203    0.3833 C.2       1 <0>         0.3994
     12 N2          2.8908   -2.5515   -0.0437 N.2       1 <0>        -0.4298
     13 C9          4.9101   -3.1798    1.0980 C.ar      1 <0>        -0.1126
     14 C10         5.7536   -4.1922    1.5597 C.ar      1 <0>         0.0399
     15 C11         6.9158   -3.8678    2.2265 C.ar      1 <0>        -0.7185
     16 C12         7.2508   -2.5412    2.4411 C.ar      1 <0>         0.0430
     17 C13         6.4250   -1.5305    1.9894 C.ar      1 <0>        -0.2315
     18 C14         5.2556   -1.8391    1.3116 C.ar      1 <0>         0.2415
     19 O2          4.4461   -0.8467    0.8623 O.3       1 <0>        -0.2578
     20 C15         4.8632    0.4961    1.1168 C.3       1 <0>         0.0414
     21 C16         3.8319    1.4685    0.5407 C.3       1 <0>        -0.1519
     22 S1          7.9793   -5.1464    2.8085 S.o2      1 <0>         2.6926
     23 O3          8.7312   -4.5930    3.8798 O.2       1 <0>        -0.9482
     24 O4          7.1730   -6.3063    2.9631 O.2       1 <0>        -0.9501
     25 N3          9.0568   -5.4772    1.5953 N.pl3     1 <0>        -0.9979
     26 C17         8.7556   -6.4921    0.5742 C.3       1 <0>         0.1239
     27 C18         8.9742   -5.8704   -0.8093 C.3       1 <0>         0.0382
     28 N4         10.3268   -5.3015   -0.8788 N.3       1 <0>        -0.5395
     29 C19        10.4964   -4.2104    0.0900 C.3       1 <0>         0.0386
     30 C20        10.3376   -4.7598    1.5068 C.3       1 <0>         0.1243
     31 C21        10.6381   -4.8489   -2.2412 C.3       1 <0>         0.0245
     32 N5          0.1842   -4.1164   -1.6082 N.pl3     1 <0>        -0.3299
     33 N6         -0.1751   -2.7746   -1.7907 N.2       1 <0>        -0.2328
     34 C22        -0.5794   -5.2824   -2.0596 C.3       1 <0>         0.0994
     35 H2          1.0039    1.9031    0.0027 H         1 <0>         0.0577
     36 H3         -0.5459    1.8868   -0.8726 H         1 <0>         0.0559
     37 H4         -0.5289    1.8773    0.9072 H         1 <0>         0.0565
     38 H5          0.5293   -0.3651    0.8851 H         1 <0>         0.0665
     39 H6         -1.0205   -0.3814    0.0098 H         1 <0>         0.0628
     40 H7          0.1910   -0.1364   -2.1398 H         1 <0>         0.0831
     41 H8          1.7408   -0.1202   -1.2645 H         1 <0>         0.0935
     42 H9          5.4957   -5.2279    1.3950 H         1 <0>         0.1438
     43 H10         8.1628   -2.2958    2.9650 H         1 <0>         0.1492
     44 H11         6.6926   -0.4983    2.1608 H         1 <0>         0.1488
     45 H12         4.9489    0.6524    2.1922 H         1 <0>         0.0678
     46 H13         5.8306    0.6715    0.6460 H         1 <0>         0.0666
     47 H14         3.7463    1.3123   -0.5346 H         1 <0>         0.0692
     48 H15         2.8646    1.2931    1.0115 H         1 <0>         0.0720
     49 H16         4.1502    2.4927    0.7349 H         1 <0>         0.0796
     50 H17         9.4199   -7.3470    0.7005 H         1 <0>         0.0879
     51 H18         7.7185   -6.8131    0.6717 H         1 <0>         0.0935
     52 H19         8.8627   -6.6382   -1.5748 H         1 <0>         0.0901
     53 H20         8.2393   -5.0824   -0.9741 H         1 <0>         0.0394
     54 H21        11.4890   -3.7744   -0.0233 H         1 <0>         0.0905
     55 H22         9.7403   -3.4456   -0.0874 H         1 <0>         0.0393
     56 H23        10.3460   -3.9360    2.2206 H         1 <0>         0.0948
     57 H24        11.1569   -5.4449    1.7245 H         1 <0>         0.0867
     58 H25         9.9216   -4.0848   -2.5429 H         1 <0>         0.0257
     59 H26        11.6450   -4.4322   -2.2645 H         1 <0>         0.0713
     60 H27        10.5786   -5.6939   -2.9273 H         1 <0>         0.0713
     61 H28        -1.2781   -5.5834   -1.2791 H         1 <0>         0.0824
     62 H29        -1.1323   -5.0268   -2.9634 H         1 <0>         0.0965
     63 H30         0.1042   -6.1043   -2.2721 H         1 <0>         0.1003
@<TRIPOS>BOND
     1    1    2 1
     2    1   35 1
     3    1   36 1
     4    1   37 1
     5    2    3 1
     6    2   38 1
     7    2   39 1
     8    3    4 1
     9    3   40 1
    10    3   41 1
    11    4   33 2
    12    4    5 1
    13    5   12 1
    14    5    6 2
    15    6    7 1
    16    6   32 1
    17    7    8 2
    18    7    9 am
    19    9   10 1
    20    9   11 1
    21   11   12 2
    22   11   13 1
    23   13   18 ar
    24   13   14 ar
    25   14   15 ar
    26   14   42 1
    27   15   16 ar
    28   15   22 1
    29   16   17 ar
    30   16   43 1
    31   17   18 ar
    32   17   44 1
    33   18   19 1
    34   19   20 1
    35   20   21 1
    36   20   45 1
    37   20   46 1
    38   21   47 1
    39   21   48 1
    40   21   49 1
    41   22   23 2
    42   22   24 2
    43   22   25 1
    44   25   30 1
    45   25   26 1
    46   26   27 1
    47   26   50 1
    48   26   51 1
    49   27   28 1
    50   27   52 1
    51   27   53 1
    52   28   29 1
    53   28   31 1
    54   29   30 1
    55   29   54 1
    56   29   55 1
    57   30   56 1
    58   30   57 1
    59   31   58 1
    60   31   59 1
    61   31   60 1
    62   32   33 1
    63   32   34 1
    64   34   61 1
    65   34   62 1
    66   34   63 1
@<TRIPOS>MOLECULE
ZINC19796168
   63    66     0     0     0
SMALL
USER_CHARGES

@<TRIPOS>ATOM
      1 C1         -0.0187    1.5258    0.0104 C.3       1 <0>        -0.1539
      2 C2          0.0021   -0.0041    0.0020 C.3       1 <0>        -0.1188
      3 C3          0.7182   -0.4975   -1.2568 C.3       1 <0>        -0.0455
      4 C4          0.7386   -2.0043   -1.2651 C.2       1 <0>         0.0795
      5 C5          1.7371   -2.8090   -0.7054 C.2       1 <0>         0.0226
      6 C6          1.3740   -4.1350   -0.9304 C.2       1 <0>        -0.0270
      7 C7          2.2608   -5.1909   -0.4384 C.2       1 <0>         0.5560
      8 O1          1.9844   -6.3672   -0.6123 O.2       1 <0>        -0.4907
      9 N1          3.3842   -4.8398    0.2075 N.2       1 <0>        -0.5489
     10 C8          3.6977   -3.5767    0.4033 C.2       1 <0>         0.4949
     11 N2          2.9154   -2.5523   -0.0295 N.pl3     1 <0>        -0.5912
     12 C9          4.9471   -3.2598    1.1207 C.ar      1 <0>        -0.1387
     13 C10         5.3072   -1.9297    1.3507 C.ar      1 <0>         0.0502
     14 C11         6.4754   -1.6404    2.0219 C.ar      1 <0>        -0.7241
     15 C12         7.2958   -2.6630    2.4697 C.ar      1 <0>         0.0516
     16 C13         6.9520   -3.9820    2.2486 C.ar      1 <0>        -0.2347
     17 C14         5.7769   -4.2915    1.5805 C.ar      1 <0>         0.2542
     18 O2          5.4349   -5.5872    1.3679 O.3       1 <0>        -0.2513
     19 C15         6.3296   -6.5843    1.8652 C.3       1 <0>         0.0415
     20 C16         5.7806   -7.9733    1.5332 C.3       1 <0>        -0.1498
     21 S1          6.9282    0.0377    2.3112 S.o2      1 <0>         2.6935
     22 O3          8.3389    0.0542    2.4813 O.2       1 <0>        -0.9470
     23 O4          6.2716    0.8126    1.3174 O.2       1 <0>        -0.9501
     24 N3          6.2708    0.4783    3.7659 N.pl3     1 <0>        -0.9978
     25 C17         4.9211    1.0580    3.8397 C.3       1 <0>         0.1243
     26 C18         4.1139    0.2804    4.8848 C.3       1 <0>         0.0380
     27 N4          4.8523    0.2619    6.1546 N.3       1 <0>        -0.5392
     28 C19         6.1314   -0.4472    6.0169 C.3       1 <0>         0.0382
     29 C20         7.0189    0.2948    5.0189 C.3       1 <0>         0.1242
     30 C21         4.0386   -0.3238    7.2283 C.3       1 <0>         0.0243
     31 N5          0.1890   -4.1166   -1.6070 N.pl3     1 <0>        -0.3265
     32 N6         -0.1769   -2.7759   -1.7917 N.2       1 <0>        -0.2363
     33 C22        -0.5677   -5.2881   -2.0556 C.3       1 <0>         0.1018
     34 H1          1.0039    1.9031    0.0027 H         1 <0>         0.0587
     35 H2         -0.5459    1.8868   -0.8726 H         1 <0>         0.0584
     36 H3         -0.5289    1.8773    0.9072 H         1 <0>         0.0590
     37 H4          0.5293   -0.3651    0.8851 H         1 <0>         0.0617
     38 H5         -1.0205   -0.3814    0.0098 H         1 <0>         0.0685
     39 H6          0.1910   -0.1364   -2.1398 H         1 <0>         0.0924
     40 H7          1.7408   -0.1202   -1.2645 H         1 <0>         0.0851
     41 H8          4.6710   -1.1293    1.0027 H         1 <0>         0.1448
     42 H9          8.2097   -2.4272    2.9946 H         1 <0>         0.1511
     43 H10         7.5970   -4.7736    2.6002 H         1 <0>         0.1511
     44 H11         7.3075   -6.4595    1.4002 H         1 <0>         0.0690
     45 H12         6.4252   -6.4802    2.9460 H         1 <0>         0.0679
     46 H13         6.4630   -8.7339    1.9125 H         1 <0>         0.0796
     47 H14         4.8027   -8.0982    1.9981 H         1 <0>         0.0699
     48 H15         5.6850   -8.0774    0.4524 H         1 <0>         0.0705
     49 H16         4.9880    2.1054    4.1338 H         1 <0>         0.0882
     50 H17         4.4346    0.9780    2.8676 H         1 <0>         0.0929
     51 H18         3.1485    0.7644    5.0325 H         1 <0>         0.0901
     52 H19         3.9598   -0.7416    4.5387 H         1 <0>         0.0392
     53 H20         6.6291   -0.4910    6.9857 H         1 <0>         0.0908
     54 H21         5.9492   -1.4591    5.6551 H         1 <0>         0.0394
     55 H22         7.9186   -0.2894    4.8260 H         1 <0>         0.0949
     56 H23         7.2913    1.2675    5.4285 H         1 <0>         0.0873
     57 H24         3.7712   -1.3470    6.9645 H         1 <0>         0.0259
     58 H25         4.6091   -0.3253    8.1570 H         1 <0>         0.0715
     59 H26         3.1316    0.2663    7.3599 H         1 <0>         0.0715
     60 H27        -1.2651   -5.5910   -1.2745 H         1 <0>         0.0826
     61 H28        -1.1218   -5.0381   -2.9604 H         1 <0>         0.0959
     62 H29         0.1207   -6.1067   -2.2656 H         1 <0>         0.1018
     63 H30         3.1857   -1.6357    0.1370 H         1 <0>         0.4171
@<TRIPOS>BOND
     1    1    2 1
     2    1   34 1
     3    1   35 1
     4    1   36 1
     5    2    3 1
     6    2   37 1
     7    2   38 1
     8    3    4 1
     9    3   39 1
    10    3   40 1
    11    4   32 2
    12    4    5 1
    13    5   11 1
    14    5    6 2
    15    6    7 1
    16    6   31 1
    17    7    8 2
    18    7    9 1
    19    9   10 2
    20   10   11 1
    21   10   12 1
    22   11   63 1
    23   12   17 ar
    24   12   13 ar
    25   13   14 ar
    26   13   41 1
    27   14   15 ar
    28   14   21 1
    29   15   16 ar
    30   15   42 1
    31   16   17 ar
    32   16   43 1
    33   17   18 1
    34   18   19 1
    35   19   20 1
    36   19   44 1
    37   19   45 1
    38   20   46 1
    39   20   47 1
    40   20   48 1
    41   21   22 2
    42   21   23 2
    43   21   24 1
    44   24   29 1
    45   24   25 1
    46   25   26 1
    47   25   49 1
    48   25   50 1
    49   26   27 1
    50   26   51 1
    51   26   52 1
    52   27   28 1
    53   27   30 1
    54   28   29 1
    55   28   53 1
    56   28   54 1
    57   29   55 1
    58   29   56 1
    59   30   57 1
    60   30   58 1
    61   30   59 1
    62   31   32 1
    63   31   33 1
    64   33   60 1
    65   33   61 1
    66   33   62 1
@<TRIPOS>MOLECULE
ZINC19796168
   62    65     0     0     0
SMALL
USER_CHARGES

@<TRIPOS>ATOM
      1 C1         -0.0187    1.5258    0.0104 C.3       1 <0>        -0.1485
      2 C2          0.0021   -0.0041    0.0020 C.3       1 <0>        -0.1148
      3 C3         -1.4333   -0.5336    0.0129 C.3       1 <0>        -0.0265
      4 C4         -1.4129   -2.0405    0.0046 C.2       1 <0>         0.0755
      5 C5         -1.4070   -2.8569   -1.1475 C.ar      1 <0>         0.0668
      6 C6         -1.3869   -4.1920   -0.7014 C.ar      1 <0>        -0.0515
      7 C7         -1.3777   -5.2165   -1.6565 C.ar      1 <0>         0.4648
      8 O1         -1.3588   -6.5164   -1.2751 O.3       1 <0>        -0.6909
      9 N1         -1.3884   -4.8893   -2.9402 N.ar      1 <0>        -0.5725
     10 C8         -1.4074   -3.6162   -3.3266 C.ar      1 <0>         0.3612
     11 N2         -1.4163   -2.6161   -2.4630 N.ar      1 <0>        -0.5554
     12 C9         -1.4186   -3.3091   -4.7764 C.ar      1 <0>        -0.0636
     13 C10        -1.4328   -1.9850   -5.2116 C.ar      1 <0>         0.0543
     14 C11        -1.4432   -1.7045   -6.5622 C.ar      1 <0>        -0.7317
     15 C12        -1.4396   -2.7334   -7.4883 C.ar      1 <0>         0.0205
     16 C13        -1.4256   -4.0494   -7.0685 C.ar      1 <0>        -0.2451
     17 C14        -1.4092   -4.3463   -5.7145 C.ar      1 <0>         0.2216
     18 O2         -1.3897   -5.6394   -5.3005 O.3       1 <0>        -0.2427
     19 C15        -1.3811   -6.6454   -6.3153 C.3       1 <0>         0.0442
     20 C16        -1.3591   -8.0288   -5.6620 C.3       1 <0>        -0.1464
     21 S1         -1.4617   -0.0302   -7.1108 S.o2      1 <0>         2.6962
     22 O3         -2.0201   -0.0370   -8.4174 O.2       1 <0>        -0.9629
     23 O4         -2.0135    0.7385   -6.0505 O.2       1 <0>        -0.9522
     24 N3          0.1150    0.4496   -7.2724 N.pl3     1 <0>        -1.0004
     25 C17         0.8390    1.0557   -6.1447 C.3       1 <0>         0.1268
     26 C18         2.1670    0.3130   -5.9632 C.3       1 <0>         0.0372
     27 N4          2.8976    0.3041   -7.2376 N.3       1 <0>        -0.5398
     28 C19         2.1569   -0.4314   -8.2713 C.3       1 <0>         0.0376
     29 C20         0.8304    0.2753   -8.5456 C.3       1 <0>         0.1276
     30 C21         4.2487   -0.2463   -7.0660 C.3       1 <0>         0.0248
     31 N5         -1.3812   -4.1504    0.6672 N.pl3     1 <0>        -0.3678
     32 N6         -1.3920   -2.8055    1.0596 N.2       1 <0>        -0.2631
     33 C22        -1.3618   -5.3088    1.5638 C.3       1 <0>         0.1224
     34 H1          1.0039    1.9031    0.0027 H         1 <0>         0.0507
     35 H2         -0.5459    1.8868   -0.8726 H         1 <0>         0.0575
     36 H3         -0.5289    1.8773    0.9072 H         1 <0>         0.0512
     37 H4          0.5123   -0.3556   -0.8948 H         1 <0>         0.0656
     38 H5          0.5293   -0.3651    0.8851 H         1 <0>         0.0578
     39 H6         -1.9435   -0.1821    0.9097 H         1 <0>         0.0708
     40 H7         -1.9605   -0.1726   -0.8702 H         1 <0>         0.0861
     41 H8         -1.4360   -1.1795   -4.4922 H         1 <0>         0.1566
     42 H9         -1.4482   -2.5062   -8.5441 H         1 <0>         0.1359
     43 H10        -1.4233   -4.8477   -7.7959 H         1 <0>         0.1361
     44 H11        -2.2755   -6.5484   -6.9307 H         1 <0>         0.0581
     45 H12        -0.4957   -6.5243   -6.9395 H         1 <0>         0.0570
     46 H13        -1.3526   -8.7961   -6.4360 H         1 <0>         0.0694
     47 H14        -0.4647   -8.1258   -5.0466 H         1 <0>         0.0690
     48 H15        -2.2445   -8.1499   -5.0378 H         1 <0>         0.0696
     49 H16         1.0335    2.1070   -6.3571 H         1 <0>         0.0814
     50 H17         0.2427    0.9670   -5.2366 H         1 <0>         0.0979
     51 H18         2.7652    0.8176   -5.2045 H         1 <0>         0.0879
     52 H19         1.9704   -0.7122   -5.6495 H         1 <0>         0.0449
     53 H20         2.7478   -0.4666   -9.1865 H         1 <0>         0.0858
     54 H21         1.9605   -1.4462   -7.9254 H         1 <0>         0.0417
     55 H22         0.2284   -0.3292   -9.2240 H         1 <0>         0.0922
     56 H23         1.0240    1.2501   -8.9932 H         1 <0>         0.0807
     57 H24         4.1801   -1.2690   -6.6954 H         1 <0>         0.0264
     58 H25         4.7675   -0.2413   -8.0246 H         1 <0>         0.0675
     59 H26         4.8011    0.3631   -6.3508 H         1 <0>         0.0692
     60 H27        -0.3294   -5.5825    1.7815 H         1 <0>         0.0592
     61 H28        -1.8748   -5.0582    2.4923 H         1 <0>         0.0722
     62 H29        -1.8667   -6.1476    1.0847 H         1 <0>         0.0961
@<TRIPOS>BOND
     1    1    2 1
     2    1   34 1
     3    1   35 1
     4    1   36 1
     5    2    3 1
     6    2   37 1
     7    2   38 1
     8    3    4 1
     9    3   39 1
    10    3   40 1
    11    4   32 2
    12    4    5 1
    13    5   11 ar
    14    5    6 ar
    15    6    7 ar
    16    6   31 1
    17    7    8 1
    18    7    9 ar
    19    9   10 ar
    20   10   11 ar
    21   10   12 1
    22   12   17 ar
    23   12   13 ar
    24   13   14 ar
    25   13   41 1
    26   14   15 ar
    27   14   21 1
    28   15   16 ar
    29   15   42 1
    30   16   17 ar
    31   16   43 1
    32   17   18 1
    33   18   19 1
    34   19   20 1
    35   19   44 1
    36   19   45 1
    37   20   46 1
    38   20   47 1
    39   20   48 1
    40   21   22 2
    41   21   23 2
    42   21   24 1
    43   24   29 1
    44   24   25 1
    45   25   26 1
    46   25   49 1
    47   25   50 1
    48   26   27 1
    49   26   51 1
    50   26   52 1
    51   27   28 1
    52   27   30 1
    53   28   29 1
    54   28   53 1
    55   28   54 1
    56   29   55 1
    57   29   56 1
    58   30   57 1
    59   30   58 1
    60   30   59 1
    61   31   32 1
    62   31   33 1
    63   33   60 1
    64   33   61 1
    65   33   62 1
@<TRIPOS>MOLECULE
ZINC19796168
   64    67     0     0     0
SMALL
USER_CHARGES

@<TRIPOS>ATOM
      1 C1         -0.0187    1.5258    0.0104 C.3       1 <0>        -0.1524
      2 C2          0.0021   -0.0041    0.0020 C.3       1 <0>        -0.1163
      3 C3         -1.4333   -0.5336    0.0129 C.3       1 <0>        -0.0382
      4 C4         -1.4129   -2.0405    0.0046 C.2       1 <0>         0.1125
      5 C5         -1.4070   -2.8548   -1.1446 C.2       1 <0>         0.0358
      6 C6         -1.3861   -4.1841   -0.7032 C.2       1 <0>        -0.0303
      7 C7         -1.3769   -5.2214   -1.6643 C.2       1 <0>         0.5721
      8 O1         -1.3591   -6.3907   -1.3206 O.2       1 <0>        -0.5177
      9 N1         -1.3887   -4.8848   -2.9731 N.am      1 <0>        -0.6346
     10 H1         -1.3827   -5.5793   -3.6502 H         1 <0>         0.4185
     11 C8         -1.4095   -3.5686   -3.3476 C.2       1 <0>         0.3827
     12 N2         -1.4171   -2.5966   -2.4679 N.2       1 <0>        -0.4195
     13 C9         -1.4219   -3.2333   -4.7854 C.ar      1 <0>        -0.1025
     14 C10        -1.4183   -4.2493   -5.7432 C.ar      1 <0>         0.0333
     15 C11        -1.4299   -3.9298   -7.0842 C.ar      1 <0>        -0.7276
     16 C12        -1.4448   -2.6046   -7.4863 C.ar      1 <0>         0.0370
     17 C13        -1.4485   -1.5903   -6.5488 C.ar      1 <0>        -0.2285
     18 C14        -1.4433   -1.8942   -5.1961 C.ar      1 <0>         0.2470
     19 O2         -1.4527   -0.8984   -4.2738 O.3       1 <0>        -0.2539
     20 C15        -1.4745    0.4426   -4.7671 C.3       1 <0>         0.0414
     21 C16        -1.4823    1.4191   -3.5893 C.3       1 <0>        -0.1545
     22 S1         -1.4253   -5.2129   -8.2917 S.o2      1 <0>         2.6914
     23 O3         -0.8874   -4.6500   -9.4805 O.2       1 <0>        -0.9316
     24 O4         -0.8594   -6.3568   -7.6667 O.2       1 <0>        -0.9334
     25 N3         -3.0059   -5.5847   -8.6172 N.pl3     1 <0>        -1.0127
     26 C17        -3.7155   -6.6148   -7.8430 C.3       1 <0>         0.0947
     27 C18        -5.0462   -6.0287   -7.3599 C.3       1 <0>        -0.0248
     28 N4         -5.7976   -5.5098   -8.5098 N.4       1 <0>        -0.3832
     29 C19        -5.0699   -4.3889   -9.1182 C.3       1 <0>        -0.0235
     30 C20        -3.7420   -4.8899   -9.6846 C.3       1 <0>         0.0949
     31 C21        -7.1182   -5.0483   -8.0616 C.3       1 <0>        -0.0476
     32 N5         -1.3799   -4.1501    0.6637 N.pl3     1 <0>        -0.3251
     33 N6         -1.3920   -2.8068    1.0614 N.2       1 <0>        -0.2289
     34 C22        -1.3598   -5.3128    1.5547 C.3       1 <0>         0.0963
     35 H2          1.0039    1.9031    0.0027 H         1 <0>         0.0582
     36 H3         -0.5459    1.8868   -0.8726 H         1 <0>         0.0570
     37 H4         -0.5289    1.8773    0.9072 H         1 <0>         0.0575
     38 H5          0.5123   -0.3556   -0.8948 H         1 <0>         0.0655
     39 H6          0.5293   -0.3651    0.8851 H         1 <0>         0.0644
     40 H7         -1.9435   -0.1821    0.9097 H         1 <0>         0.0854
     41 H8         -1.9605   -0.1726   -0.8702 H         1 <0>         0.0931
     42 H9         -1.4060   -5.2840   -5.4339 H         1 <0>         0.1444
     43 H10        -1.4531   -2.3629   -8.5389 H         1 <0>         0.1495
     44 H11        -1.4598   -0.5592   -6.8698 H         1 <0>         0.1518
     45 H12        -0.5902    0.6189   -5.3794 H         1 <0>         0.0706
     46 H13        -2.3699    0.5934   -5.3701 H         1 <0>         0.0677
     47 H14        -1.4990    2.4420   -3.9655 H         1 <0>         0.0830
     48 H15        -2.3667    1.2428   -2.9770 H         1 <0>         0.0703
     49 H16        -0.5869    1.2683   -2.9863 H         1 <0>         0.0743
     50 H17        -3.9053   -7.4822   -8.4752 H         1 <0>         0.1071
     51 H18        -3.1115   -6.9087   -6.9845 H         1 <0>         0.1349
     52 H19        -5.6284   -6.8070   -6.8666 H         1 <0>         0.1469
     53 H20        -4.8527   -5.2186   -6.6568 H         1 <0>         0.1345
     54 H21        -5.6695   -3.9589   -9.9204 H         1 <0>         0.1472
     55 H22        -4.8756   -3.6285   -8.3618 H         1 <0>         0.1345
     56 H23        -3.1556   -4.0439  -10.0432 H         1 <0>         0.1362
     57 H24        -3.9345   -5.5801  -10.5059 H         1 <0>         0.1058
     58 H25        -6.9949   -4.2582   -7.3209 H         1 <0>         0.1220
     59 H26        -7.6771   -4.6629   -8.9144 H         1 <0>         0.1268
     60 H27        -7.6626   -5.8814   -7.6170 H         1 <0>         0.1264
     61 H28        -0.3273   -5.5873    1.7707 H         1 <0>         0.0857
     62 H29        -1.8725   -5.0668    2.4846 H         1 <0>         0.0997
     63 H30        -1.8648   -6.1494    1.0718 H         1 <0>         0.1010
     64 H31        -5.9143   -6.2436   -9.1925 H         1 <0>         0.4277
@<TRIPOS>BOND
     1    1    2 1
     2    1   35 1
     3    1   36 1
     4    1   37 1
     5    2    3 1
     6    2   38 1
     7    2   39 1
     8    3    4 1
     9    3   40 1
    10    3   41 1
    11    4   33 2
    12    4    5 1
    13    5   12 1
    14    5    6 2
    15    6    7 1
    16    6   32 1
    17    7    8 2
    18    7    9 am
    19    9   10 1
    20    9   11 1
    21   11   12 2
    22   11   13 1
    23   13   18 ar
    24   13   14 ar
    25   14   15 ar
    26   14   42 1
    27   15   16 ar
    28   15   22 1
    29   16   17 ar
    30   16   43 1
    31   17   18 ar
    32   17   44 1
    33   18   19 1
    34   19   20 1
    35   20   21 1
    36   20   45 1
    37   20   46 1
    38   21   47 1
    39   21   48 1
    40   21   49 1
    41   22   23 2
    42   22   24 2
    43   22   25 1
    44   25   30 1
    45   25   26 1
    46   26   27 1
    47   26   50 1
    48   26   51 1
    49   27   28 1
    50   27   52 1
    51   27   53 1
    52   28   29 1
    53   28   31 1
    54   28   64 1
    55   29   30 1
    56   29   54 1
    57   29   55 1
    58   30   56 1
    59   30   57 1
    60   31   58 1
    61   31   59 1
    62   31   60 1
    63   32   33 1
    64   32   34 1
    65   34   61 1
    66   34   62 1
    67   34   63 1
@<TRIPOS>MOLECULE
ZINC03963610
   72    76     0     0     0
SMALL
USER_CHARGES
methyl 2-[(2-methyl-4-pyridyl)methyl]-1-oxo-8-(pyrimidin-2-ylmethoxy)-4-(3,4,5-trimethoxyphenyl)-[2,7]naphthyridine-3-carboxylate
@<TRIPOS>ATOM
      1 C1         -8.1183    2.2019   -3.4072 C.3       1 <0>        -0.1055
      2 C2         -7.0597    3.1962   -3.0052 C.ar      1 <0>         0.1226
      3 C3         -6.4969    3.1228   -1.7448 C.ar      1 <0>        -0.1669
      4 C4         -5.5239    4.0423   -1.3849 C.ar      1 <0>        -0.0634
      5 C5         -5.1554    5.0089   -2.3085 C.ar      1 <0>        -0.1550
      6 C6         -5.7582    5.0167   -3.5519 C.ar      1 <0>         0.1030
      7 N1         -6.6807    4.1259   -3.8599 N.ar      1 <0>        -0.4783
      8 C7         -4.8862    3.9965   -0.0203 C.3       1 <0>         0.1121
      9 N2         -3.6230    3.2583   -0.0961 N.am      1 <0>        -0.5060
     10 C8         -3.6401    1.8915    0.0813 C.2       1 <0>         0.1445
     11 C9         -2.4825    1.1392    0.0216 C.2       1 <0>        -0.0493
     12 C10        -1.2070    1.8202   -0.2377 C.ar      1 <0>         0.0751
     13 C11         0.0080    1.1400   -0.3148 C.ar      1 <0>        -0.2023
     14 C12         1.1552    1.8642   -0.5687 C.ar      1 <0>         0.1817
     15 N3          1.1240    3.1753   -0.7321 N.ar      1 <0>        -0.5445
     16 C13         0.0028    3.8744   -0.6645 C.ar      1 <0>         0.4014
     17 C14        -1.2100    3.2228   -0.4112 C.ar      1 <0>        -0.2117
     18 C15        -2.4844    3.9409   -0.3250 C.2       1 <0>         0.5594
     19 O1         -2.5162    5.1488   -0.4748 O.2       1 <0>        -0.4843
     20 O2          0.0284    5.2172   -0.8394 O.3       1 <0>        -0.2631
     21 C16         1.3016    5.8141   -1.0937 C.3       1 <0>         0.1388
     22 C17         1.1344    7.3025   -1.2602 C.ar      1 <0>         0.3153
     23 N4          0.9103    7.7921   -2.4632 N.ar      1 <0>        -0.4991
     24 C18         0.7536    9.0932   -2.6472 C.ar      1 <0>         0.1494
     25 C19         0.8385    9.9434   -1.5559 C.ar      1 <0>        -0.2180
     26 C20         1.0804    9.3917   -0.3077 C.ar      1 <0>         0.1492
     27 N5          1.2214    8.0803   -0.1999 N.ar      1 <0>        -0.4992
     28 C21        -2.5269   -0.3251    0.2157 C.ar      1 <0>         0.0439
     29 C22        -2.9035   -0.8558    1.4513 C.ar      1 <0>        -0.1867
     30 C23        -2.9502   -2.2266    1.6285 C.ar      1 <0>         0.1545
     31 C24        -2.6104   -3.0770    0.5803 C.ar      1 <0>         0.0396
     32 C25        -2.2292   -2.5505   -0.6505 C.ar      1 <0>         0.1517
     33 C26        -2.1868   -1.1805   -0.8346 C.ar      1 <0>        -0.2101
     34 O3         -1.8978   -3.3840   -1.6727 O.3       1 <0>        -0.3001
     35 C27        -1.5157   -2.7757   -2.9079 C.3       1 <0>         0.0235
     36 O4         -2.6513   -4.4245    0.7589 O.3       1 <0>        -0.3123
     37 C28        -1.4563   -5.0536    1.2261 C.3       1 <0>         0.0353
     38 O5         -3.3227   -2.7441    2.8298 O.3       1 <0>        -0.3001
     39 C29        -3.6581   -1.8136    3.8611 C.3       1 <0>         0.0253
     40 C30        -4.9201    1.2182    0.3407 C.2       1 <0>         0.4946
     41 O6         -4.9746    0.0040    0.3631 O.2       1 <0>        -0.4415
     42 O7         -6.0345    1.9474    0.5539 O.3       1 <0>        -0.3411
     43 C31        -7.2634    1.2154    0.8038 C.3       1 <0>         0.0137
     44 H1         -9.1015    2.5909   -3.1424 H         1 <0>         0.0803
     45 H2         -8.0710    2.0359   -4.4834 H         1 <0>         0.0790
     46 H3         -7.9481    1.2595   -2.8864 H         1 <0>         0.0722
     47 H4         -6.8110    2.3586   -1.0493 H         1 <0>         0.1479
     48 H5         -4.4036    5.7436   -2.0607 H         1 <0>         0.1411
     49 H6         -5.4739    5.7637   -4.2782 H         1 <0>         0.1577
     50 H7         -5.5577    3.4968    0.6780 H         1 <0>         0.1456
     51 H8         -4.6933    5.0122    0.3250 H         1 <0>         0.1146
     52 H9          0.0498    0.0689   -0.1832 H         1 <0>         0.1531
     53 H10         2.1011    1.3472   -0.6350 H         1 <0>         0.1742
     54 H11         1.9700    5.6151   -0.2560 H         1 <0>         0.0991
     55 H12         1.7254    5.3919   -2.0049 H         1 <0>         0.0990
     56 H13         0.5665    9.4876   -3.6350 H         1 <0>         0.1736
     57 H14         0.7186   11.0101   -1.6753 H         1 <0>         0.1533
     58 H15         1.1525   10.0235    0.5653 H         1 <0>         0.1735
     59 H16        -3.1626   -0.1964    2.2664 H         1 <0>         0.1289
     60 H17        -1.8914   -0.7725   -1.7899 H         1 <0>         0.1360
     61 H18        -1.2774   -3.5508   -3.6363 H         1 <0>         0.1043
     62 H19        -2.3379   -2.1657   -3.2822 H         1 <0>         0.0573
     63 H20        -0.6402   -2.1464   -2.7475 H         1 <0>         0.0577
     64 H21        -0.6504   -4.8768    0.5139 H         1 <0>         0.0449
     65 H22        -1.1821   -4.6378    2.1957 H         1 <0>         0.0445
     66 H23        -1.6251   -6.1259    1.3251 H         1 <0>         0.0927
     67 H24        -2.7981   -1.1774    4.0702 H         1 <0>         0.0562
     68 H25        -4.4958   -1.1968    3.5355 H         1 <0>         0.0556
     69 H26        -3.9364   -2.3569    4.7642 H         1 <0>         0.1040
     70 H27        -7.1434    0.5969    1.6932 H         1 <0>         0.0733
     71 H28        -8.0808    1.9197    0.9585 H         1 <0>         0.1111
     72 H29        -7.4885    0.5801   -0.0529 H         1 <0>         0.0730
@<TRIPOS>BOND
     1    1    2 1
     2    1   44 1
     3    1   45 1
     4    1   46 1
     5    2    7 ar
     6    2    3 ar
     7    3    4 ar
     8    3   47 1
     9    4    5 ar
    10    4    8 1
    11    5    6 ar
    12    5   48 1
    13    6    7 ar
    14    6   49 1
    15    8    9 1
    16    8   50 1
    17    8   51 1
    18    9   18 am
    19    9   10 1
    20   10   11 2
    21   10   40 1
    22   11   12 1
    23   11   28 1
    24   12   17 ar
    25   12   13 ar
    26   13   14 ar
    27   13   52 1
    28   14   15 ar
    29   14   53 1
    30   15   16 ar
    31   16   17 ar
    32   16   20 1
    33   17   18 1
    34   18   19 2
    35   20   21 1
    36   21   22 1
    37   21   54 1
    38   21   55 1
    39   22   27 ar
    40   22   23 ar
    41   23   24 ar
    42   24   25 ar
    43   24   56 1
    44   25   26 ar
    45   25   57 1
    46   26   27 ar
    47   26   58 1
    48   28   33 ar
    49   28   29 ar
    50   29   30 ar
    51   29   59 1
    52   30   31 ar
    53   30   38 1
    54   31   32 ar
    55   31   36 1
    56   32   33 ar
    57   32   34 1
    58   33   60 1
    59   34   35 1
    60   35   61 1
    61   35   62 1
    62   35   63 1
    63   36   37 1
    64   37   64 1
    65   37   65 1
    66   37   66 1
    67   38   39 1
    68   39   67 1
    69   39   68 1
    70   39   69 1
    71   40   41 2
    72   40   42 1
    73   42   43 1
    74   43   70 1
    75   43   71 1
    76   43   72 1
@<TRIPOS>MOLECULE
ZINC03993855
   48    53     0     0     0
SMALL
USER_CHARGES

@<TRIPOS>ATOM
      1 C1          0.1971    1.4693   -0.0381 C.3       1 <0>         0.0754
      2 N1          0.1624    0.0047   -0.0349 N.am      1 <0>        -0.6061
      3 C2          0.1593   -0.6830   -1.3153 C.3       1 <0>         0.1037
      4 C3          0.1968   -2.1680   -1.1556 C.2       1 <0>         0.5104
      5 O1          0.2214   -2.8446   -2.1619 O.2       1 <0>        -0.4975
      6 N2          0.2055   -2.8003    0.0198 N.am      1 <0>        -0.5933
      7 C4          0.0958   -2.1051    1.3015 C.3       1 <0>         0.1344
      8 H1          0.9317   -2.4015    1.9352 H         1 <0>         0.1216
      9 C5          0.1408   -0.6198    1.1410 C.2       1 <0>         0.5186
     10 O2          0.1544    0.0599    2.1454 O.2       1 <0>        -0.5227
     11 C6         -1.2150   -2.5155    1.9871 C.3       1 <0>        -0.0429
     12 C7         -1.3632   -4.0127    1.8945 C.2       1 <0>        -0.1514
     13 C8         -2.2230   -4.8804    2.6736 C.ar      1 <0>        -0.0996
     14 C9         -3.1375   -4.6335    3.7021 C.ar      1 <0>        -0.0645
     15 C10        -3.7920   -5.7215    4.2248 C.ar      1 <0>        -0.1473
     16 C11        -3.5654   -7.0080    3.7636 C.ar      1 <0>        -0.0949
     17 C12        -2.6672   -7.2807    2.7464 C.ar      1 <0>        -0.1301
     18 C13        -1.9885   -6.1954    2.1961 C.ar      1 <0>         0.1074
     19 N3         -1.0557   -6.1068    1.2031 N.pl3     1 <0>        -0.5711
     20 H2         -0.7080   -6.8568    0.6956 H         1 <0>         0.4186
     21 C14        -0.6852   -4.7995    1.0312 C.2       1 <0>         0.0564
     22 C15         0.3293   -4.2733    0.0414 C.3       1 <0>         0.2576
     23 H3          1.3341   -4.5559    0.3556 H         1 <0>         0.1111
     24 C16         0.0443   -4.8312   -1.3292 C.ar      1 <0>        -0.0344
     25 C17         1.0570   -5.4325   -2.0534 C.ar      1 <0>        -0.1044
     26 C18         0.8004   -5.9461   -3.3108 C.ar      1 <0>        -0.0896
     27 C19        -0.4734   -5.8589   -3.8488 C.ar      1 <0>         0.0282
     28 C20        -1.4934   -5.2531   -3.1194 C.ar      1 <0>         0.0412
     29 C21        -1.2303   -4.7456   -1.8573 C.ar      1 <0>        -0.0705
     30 O3         -2.6405   -5.2919   -3.8582 O.3       1 <0>        -0.3115
     31 C22        -2.2190   -5.5599   -5.2087 C.3       1 <0>         0.2147
     32 O4         -0.9814   -6.2773   -5.0447 O.3       1 <0>        -0.3107
     33 H4          1.2331    1.8082   -0.0330 H         1 <0>         0.0641
     34 H5         -0.3029    1.8426   -0.9318 H         1 <0>         0.0765
     35 H6         -0.3130    1.8468    0.8482 H         1 <0>         0.0875
     36 H7         -0.7424   -0.4084   -1.8626 H         1 <0>         0.1116
     37 H8          1.0302   -0.3665   -1.8893 H         1 <0>         0.1153
     38 H9         -1.1892   -2.2151    3.0345 H         1 <0>         0.1021
     39 H10        -2.0552   -2.0336    1.4872 H         1 <0>         0.0808
     40 H11        -3.3202   -3.6340    4.0684 H         1 <0>         0.1305
     41 H12        -4.5058   -5.5696    5.0209 H         1 <0>         0.1199
     42 H13        -4.1079   -7.8263    4.2135 H         1 <0>         0.1225
     43 H14        -2.5005   -8.2883    2.3951 H         1 <0>         0.1290
     44 H15         2.0507   -5.5007   -1.6359 H         1 <0>         0.1336
     45 H16         1.5933   -6.4154   -3.8743 H         1 <0>         0.1339
     46 H17        -2.0205   -4.2793   -1.2875 H         1 <0>         0.1222
     47 H18        -2.9544   -6.1777   -5.7240 H         1 <0>         0.1306
     48 H19        -2.0530   -4.6285   -5.7501 H         1 <0>         0.0836
@<TRIPOS>BOND
     1    1    2 1
     2    1   33 1
     3    1   34 1
     4    1   35 1
     5    2    9 am
     6    2    3 1
     7    3    4 1
     8    3   36 1
     9    3   37 1
    10    4    5 2
    11    4    6 am
    12    6   22 1
    13    6    7 1
    14    7    8 1
    15    7    9 1
    16    7   11 1
    17    9   10 2
    18   11   12 1
    19   11   38 1
    20   11   39 1
    21   12   21 2
    22   12   13 1
    23   13   18 ar
    24   13   14 ar
    25   14   15 ar
    26   14   40 1
    27   15   16 ar
    28   15   41 1
    29   16   17 ar
    30   16   42 1
    31   17   18 ar
    32   17   43 1
    33   18   19 1
    34   19   20 1
    35   19   21 1
    36   21   22 1
    37   22   23 1
    38   22   24 1
    39   24   29 ar
    40   24   25 ar
    41   25   26 ar
    42   25   44 1
    43   26   27 ar
    44   26   45 1
    45   27   32 1
    46   27   28 ar
    47   28   29 ar
    48   28   30 1
    49   29   46 1
    50   30   31 1
    51   31   32 1
    52   31   47 1
    53   31   48 1
@<TRIPOS>MOLECULE
ZINC01490579
   71    75     0     0     0
SMALL
USER_CHARGES

@<TRIPOS>ATOM
      1 C1        -11.7309    8.6432   -0.7715 C.3       1 <0>         0.0256
      2 O1        -11.7915    7.8281    0.4006 O.3       1 <0>        -0.3010
      3 C2        -10.6149    7.5598    1.0276 C.ar      1 <0>         0.1529
      4 C3         -9.4319    8.0702    0.5247 C.ar      1 <0>        -0.1816
      5 C4         -8.2240    7.7940    1.1688 C.ar      1 <0>         0.0441
      6 C5         -8.2133    6.9984    2.3165 C.ar      1 <0>        -0.2128
      7 C6         -9.3995    6.4948    2.8184 C.ar      1 <0>         0.1497
      8 C7        -10.6021    6.7716    2.1746 C.ar      1 <0>         0.0376
      9 O2        -11.7666    6.2706    2.6669 O.3       1 <0>        -0.3124
     10 C8        -12.1772    4.9898    2.1843 C.3       1 <0>         0.0354
     11 O3         -9.3904    5.7243    3.9390 O.3       1 <0>        -0.3011
     12 C9         -8.1210    5.4805    4.5484 C.3       1 <0>         0.0240
     13 C10        -6.9585    8.3376    0.6332 C.2       1 <0>        -0.0231
     14 C11        -5.9204    7.4354    0.1138 C.ar      1 <0>        -0.0413
     15 C12        -6.0907    6.0513    0.1090 C.ar      1 <0>        -0.0610
     16 C13        -5.0943    5.2437   -0.3920 C.ar      1 <0>        -0.1714
     17 C14        -3.9140    5.7965   -0.8838 C.ar      1 <0>         0.1364
     18 C15        -3.7270    7.1684   -0.8872 C.ar      1 <0>        -0.0844
     19 C16        -4.7268    7.9997   -0.3892 C.ar      1 <0>        -0.0870
     20 C17        -4.5731    9.4617   -0.3718 C.2       1 <0>         0.5503
     21 O4         -3.5543    9.9726   -0.7999 O.2       1 <0>        -0.4960
     22 N1         -5.5606   10.2347    0.1177 N.am      1 <0>        -0.4586
     23 C18        -6.7343    9.7019    0.6137 C.2       1 <0>         0.1106
     24 C19        -7.7671   10.6041    1.1312 C.2       1 <0>         0.4960
     25 O5         -8.7548   10.1491    1.6758 O.2       1 <0>        -0.4612
     26 O6         -7.6221   11.9394    1.0034 O.3       1 <0>        -0.3257
     27 C20        -8.6093   12.7619    1.6285 C.3       1 <0>         0.0316
     28 C21        -5.3919   11.6249    0.1246 C.ar      1 <0>         0.0587
     29 C22        -4.8210   12.2498    1.2261 C.ar      1 <0>        -0.0388
     30 C23        -4.6504   13.6194    1.2309 C.ar      1 <0>        -0.1891
     31 C24        -5.0593   14.3742    0.1387 C.ar      1 <0>         0.2332
     32 C25        -5.6351   13.7498   -0.9607 C.ar      1 <0>        -0.1886
     33 C26        -5.8008   12.3796   -0.9676 C.ar      1 <0>        -0.0308
     34 N2         -4.8918   15.7622    0.1460 N.pl3     1 <0>        -0.8753
     35 O7         -2.9406    4.9830   -1.3693 O.3       1 <0>        -0.3059
     36 C27        -3.1945    3.5771   -1.3379 C.3       1 <0>         0.1121
     37 C28        -2.0124    2.8402   -1.9128 C.ar      1 <0>         0.1187
     38 C29        -0.9168    3.5523   -2.3635 C.ar      1 <0>        -0.1492
     39 C30         0.1657    2.8647   -2.8902 C.ar      1 <0>        -0.0734
     40 C31         0.1054    1.4804   -2.9440 C.ar      1 <0>        -0.1702
     41 C32        -1.0235    0.8367   -2.4743 C.ar      1 <0>         0.1049
     42 N3         -2.0372    1.5238   -1.9846 N.ar      1 <0>        -0.4800
     43 H1        -11.3065    9.6144   -0.5171 H         1 <0>         0.0562
     44 H2        -11.1043    8.1577   -1.5197 H         1 <0>         0.0557
     45 H3        -12.7356    8.7793   -1.1718 H         1 <0>         0.1031
     46 H4         -9.4423    8.6815   -0.3656 H         1 <0>         0.1285
     47 H5         -7.2799    6.7800    2.8140 H         1 <0>         0.1363
     48 H6        -12.3114    5.0347    1.1035 H         1 <0>         0.0440
     49 H7        -11.4146    4.2491    2.4252 H         1 <0>         0.0442
     50 H8        -13.1188    4.7085    2.6559 H         1 <0>         0.0921
     51 H9         -8.2556    4.8544    5.4304 H         1 <0>         0.1033
     52 H10        -7.4687    4.9724    3.8382 H         1 <0>         0.0569
     53 H11        -7.6705    6.4289    4.8413 H         1 <0>         0.0575
     54 H12        -7.0014    5.6152    0.4924 H         1 <0>         0.1428
     55 H13        -5.2274    4.1719   -0.4001 H         1 <0>         0.1426
     56 H14        -2.8115    7.5911   -1.2740 H         1 <0>         0.1526
     57 H15        -8.6759   12.5092    2.6867 H         1 <0>         0.0620
     58 H16        -8.3293   13.8100    1.5222 H         1 <0>         0.1018
     59 H17        -9.5759   12.5941    1.1534 H         1 <0>         0.0611
     60 H18        -4.5072   11.6635    2.0770 H         1 <0>         0.1208
     61 H19        -4.2024   14.1047    2.0855 H         1 <0>         0.1260
     62 H20        -5.9533   14.3365   -1.8097 H         1 <0>         0.1260
     63 H21        -6.2488   11.8942   -1.8221 H         1 <0>         0.1209
     64 H22        -5.1776   16.2892   -0.6165 H         1 <0>         0.4000
     65 H23        -4.4898   16.1982    0.9136 H         1 <0>         0.4000
     66 H24        -4.0833    3.3551   -1.9285 H         1 <0>         0.0900
     67 H25        -3.3544    3.2598   -0.3074 H         1 <0>         0.0900
     68 H26        -0.9043    4.6307   -2.3065 H         1 <0>         0.1453
     69 H27         1.0351    3.3947   -3.2503 H         1 <0>         0.1384
     70 H28         0.9303    0.9124   -3.3483 H         1 <0>         0.1385
     71 H29        -1.0783   -0.2412   -2.5127 H         1 <0>         0.1614
@<TRIPOS>BOND
     1    1    2 1
     2    1   43 1
     3    1   44 1
     4    1   45 1
     5    2    3 1
     6    3    8 ar
     7    3    4 ar
     8    4    5 ar
     9    4   46 1
    10    5    6 ar
    11    5   13 1
    12    6    7 ar
    13    6   47 1
    14    7    8 ar
    15    7   11 1
    16    8    9 1
    17    9   10 1
    18   10   48 1
    19   10   49 1
    20   10   50 1
    21   11   12 1
    22   12   51 1
    23   12   52 1
    24   12   53 1
    25   13   23 2
    26   13   14 1
    27   14   19 ar
    28   14   15 ar
    29   15   16 ar
    30   15   54 1
    31   16   17 ar
    32   16   55 1
    33   17   18 ar
    34   17   35 1
    35   18   19 ar
    36   18   56 1
    37   19   20 1
    38   20   21 2
    39   20   22 am
    40   22   23 1
    41   22   28 1
    42   23   24 1
    43   24   25 2
    44   24   26 1
    45   26   27 1
    46   27   57 1
    47   27   58 1
    48   27   59 1
    49   28   33 ar
    50   28   29 ar
    51   29   30 ar
    52   29   60 1
    53   30   31 ar
    54   30   61 1
    55   31   32 ar
    56   31   34 1
    57   32   33 ar
    58   32   62 1
    59   33   63 1
    60   34   64 1
    61   34   65 1
    62   35   36 1
    63   36   37 1
    64   36   66 1
    65   36   67 1
    66   37   42 ar
    67   37   38 ar
    68   38   39 ar
    69   38   68 1
    70   39   40 ar
    71   39   69 1
    72   40   41 ar
    73   40   70 1
    74   41   42 ar
    75   41   71 1
