@<TRIPOS>MOLECULE
ZINC00643046
   76    79     0     0     0
SMALL
USER_CHARGES

@<TRIPOS>ATOM
      1 C1          0.4883    2.4897    1.2990 C.3       1 <0>        -0.1142
      2 C2          1.1580    2.1388    2.6297 C.3       1 <0>        -0.1362
      3 C3          1.3103    0.6181    2.7347 C.3       1 <0>         0.1570
      4 N1          2.0305    0.1319    1.5500 N.pl3     1 <0>        -0.6468
      5 C4          1.5224    0.4890    0.2185 C.3       1 <0>         0.1574
      6 C5          1.3678    2.0112    0.1416 C.3       1 <0>        -0.1364
      7 C6          3.1637   -0.6453    1.6854 C.ar      1 <0>         0.5085
      8 C7          3.0733   -2.0580    1.7467 C.ar      1 <0>         0.0614
      9 C8          4.2673   -2.7976    1.8855 C.ar      1 <0>         0.0615
     10 C9          4.1770   -4.2103    1.9469 C.ar      1 <0>         0.5084
     11 N2          2.9771   -4.7656    1.8709 N.ar      1 <0>        -0.5394
     12 C10         1.8782   -4.0279    1.7403 C.ar      1 <0>         0.5543
     13 N3          1.9084   -2.7098    1.6788 N.ar      1 <0>        -0.5235
     14 N4          0.6525   -4.6689    1.6658 N.pl3     1 <0>        -0.5657
     15 C11        -0.5766   -3.8848    1.5217 C.3       1 <0>         0.1412
     16 C12        -0.8807   -3.6815    0.0361 C.3       1 <0>         0.0611
     17 O1         -1.1650   -4.9445   -0.5691 O.3       1 <0>        -0.5712
     18 C13         0.5852   -6.1309    1.7310 C.3       1 <0>         0.1388
     19 C14         0.4380   -6.5701    3.1892 C.3       1 <0>         0.0609
     20 O2         -0.8147   -6.1108    3.7009 O.3       1 <0>        -0.5703
     21 N5          5.3102   -4.9876    2.0819 N.pl3     1 <0>        -0.6466
     22 C15         5.8166   -5.3477    3.4132 C.3       1 <0>         0.1569
     23 C16         5.9722   -6.8700    3.4864 C.3       1 <0>        -0.1363
     24 C17         6.8536   -7.3449    2.3290 C.3       1 <0>        -0.1141
     25 C18         6.1855   -6.9910    0.9983 C.3       1 <0>        -0.1368
     26 C19         6.0290   -5.4752    0.8969 C.3       1 <0>         0.1575
     27 N6          5.4322   -2.1458    1.9543 N.ar      1 <0>        -0.5233
     28 C20         5.4623   -0.8277    1.8928 C.ar      1 <0>         0.5543
     29 N7          4.3640   -0.0904    1.7559 N.ar      1 <0>        -0.5392
     30 N8          6.6881   -0.1867    1.9678 N.pl3     1 <0>        -0.5657
     31 C21         7.9171   -0.9709    2.1123 C.3       1 <0>         0.1413
     32 C22         8.4692   -1.3136    0.7271 C.3       1 <0>         0.0611
     33 O3          8.8633   -0.1124    0.0609 O.3       1 <0>        -0.5711
     34 C23         6.7554    1.2753    1.9026 C.3       1 <0>         0.1387
     35 C24         6.6545    1.8540    3.3153 C.3       1 <0>         0.0609
     36 O4          7.7974    1.4565    4.0756 O.3       1 <0>        -0.5703
     37 H1         -0.4844    2.0011    1.2421 H         1 <0>         0.0624
     38 H2          0.3565    3.5696    1.2325 H         1 <0>         0.0610
     39 H3          2.1412    2.6070    2.6767 H         1 <0>         0.0658
     40 H4          0.5425    2.5006    3.4533 H         1 <0>         0.0687
     41 H5          1.8745    0.3686    3.6333 H         1 <0>         0.0616
     42 H6          0.3248    0.1544    2.7790 H         1 <0>         0.0608
     43 H7          2.2266    0.1543   -0.5432 H         1 <0>         0.0616
     44 H8          0.5542    0.0148    0.0576 H         1 <0>         0.0598
     45 H9          0.9016    2.2821   -0.8057 H         1 <0>         0.0686
     46 H10         2.3490    2.4805    0.2121 H         1 <0>         0.0663
     47 H11        -1.4038   -4.4160    1.9926 H         1 <0>         0.0919
     48 H12        -0.4472   -2.9149    2.0021 H         1 <0>         0.0972
     49 H13        -1.7438   -3.0246   -0.0716 H         1 <0>         0.0528
     50 H14        -0.0175   -3.2303   -0.4531 H         1 <0>         0.0456
     51 H15        -1.3673   -4.8916   -1.5132 H         1 <0>         0.3764
     52 H16        -0.2732   -6.4810    1.1577 H         1 <0>         0.0932
     53 H17         1.4983   -6.5556    1.3140 H         1 <0>         0.0953
     54 H18         0.4771   -7.6579    3.2467 H         1 <0>         0.0527
     55 H19         1.2495   -6.1456    3.7802 H         1 <0>         0.0445
     56 H20        -0.9758   -6.3537    4.6229 H         1 <0>         0.3766
     57 H21         6.7842   -4.8733    3.5767 H         1 <0>         0.0609
     58 H22         5.1111   -5.0155    4.1748 H         1 <0>         0.0615
     59 H23         6.4372   -7.1430    4.4336 H         1 <0>         0.0688
     60 H24         4.9913   -7.3398    3.4133 H         1 <0>         0.0658
     61 H25         7.8259   -6.8558    2.3885 H         1 <0>         0.0624
     62 H26         6.9861   -8.4249    2.3929 H         1 <0>         0.0611
     63 H27         6.8025   -7.3503    0.1746 H         1 <0>         0.0691
     64 H28         5.2027   -7.4597    0.9486 H         1 <0>         0.0661
     65 H29         5.4635   -5.2271   -0.0013 H         1 <0>         0.0615
     66 H30         7.0143   -5.0114    0.8506 H         1 <0>         0.0595
     67 H31         8.6559   -0.3900    2.6644 H         1 <0>         0.0919
     68 H32         7.6994   -1.8910    2.6545 H         1 <0>         0.0972
     69 H33         9.3325   -1.9706    0.8325 H         1 <0>         0.0527
     70 H34         7.6986   -1.8169    0.1432 H         1 <0>         0.0456
     71 H35         9.2237   -0.2542   -0.8252 H         1 <0>         0.3764
     72 H36         7.7021    1.5757    1.4536 H         1 <0>         0.0932
     73 H37         5.9306    1.6503    1.2966 H         1 <0>         0.0954
     74 H38         6.6152    2.9419    3.2604 H         1 <0>         0.0528
     75 H39         5.7504    1.4816    3.7968 H         1 <0>         0.0444
     76 H40         7.8004    1.7883    4.9839 H         1 <0>         0.3766
@<TRIPOS>BOND
     1    1    6 1
     2    1    2 1
     3    1   37 1
     4    1   38 1
     5    2    3 1
     6    2   39 1
     7    2   40 1
     8    3    4 1
     9    3   41 1
    10    3   42 1
    11    4    5 1
    12    4    7 1
    13    5    6 1
    14    5   43 1
    15    5   44 1
    16    6   45 1
    17    6   46 1
    18    7   29 ar
    19    7    8 ar
    20    8   13 ar
    21    8    9 ar
    22    9   10 ar
    23    9   27 ar
    24   10   11 ar
    25   10   21 1
    26   11   12 ar
    27   12   13 ar
    28   12   14 1
    29   14   15 1
    30   14   18 1
    31   15   16 1
    32   15   47 1
    33   15   48 1
    34   16   17 1
    35   16   49 1
    36   16   50 1
    37   17   51 1
    38   18   19 1
    39   18   52 1
    40   18   53 1
    41   19   20 1
    42   19   54 1
    43   19   55 1
    44   20   56 1
    45   21   26 1
    46   21   22 1
    47   22   23 1
    48   22   57 1
    49   22   58 1
    50   23   24 1
    51   23   59 1
    52   23   60 1
    53   24   25 1
    54   24   61 1
    55   24   62 1
    56   25   26 1
    57   25   63 1
    58   25   64 1
    59   26   65 1
    60   26   66 1
    61   27   28 ar
    62   28   29 ar
    63   28   30 1
    64   30   31 1
    65   30   34 1
    66   31   32 1
    67   31   67 1
    68   31   68 1
    69   32   33 1
    70   32   69 1
    71   32   70 1
    72   33   71 1
    73   34   35 1
    74   34   72 1
    75   34   73 1
    76   35   36 1
    77   35   74 1
    78   35   75 1
    79   36   76 1
