@<TRIPOS>MOLECULE
ZINC05764539
   50    53     0     0     0
SMALL
USER_CHARGES

@<TRIPOS>ATOM
      1 C1         -0.0187    1.5258    0.0104 C.3       1 <0>        -0.1353
      2 C2          0.0021   -0.0041    0.0020 C.3       1 <0>        -0.0445
      3 C3         -1.4159   -0.5378    0.0733 C.3       1 <0>        -0.1007
      4 C4         -2.0779    0.0979    1.3061 C.3       1 <0>        -0.1178
      5 C5         -1.2986   -0.2023    2.5830 C.3       1 <0>        -0.0699
      6 H1         -1.3483   -1.2722    2.7852 H         1 <0>         0.0709
      7 C6          0.1742    0.2154    2.4640 C.3       1 <0>        -0.0750
      8 H2          0.2459    1.2943    2.3265 H         1 <0>         0.0873
      9 C7          0.7513   -0.5273    1.2568 C.3       1 <0>        -0.0821
     10 H3          0.6132   -1.6034    1.3615 H         1 <0>         0.0785
     11 C8          2.2066   -0.1921    0.9116 C.3       1 <0>        -0.1134
     12 C9          2.3043   -0.5733   -0.5908 C.3       1 <0>        -0.1451
     13 C10         0.8630   -0.5032   -1.1539 C.3       1 <0>         0.2500
     14 C11         0.4171   -1.8391   -1.5821 C.1       1 <0>        -0.2093
     15 C12         0.0615   -2.9046   -1.9236 C.1       1 <0>        -0.1813
     16 O1          0.8030    0.4141   -2.2480 O.3       1 <0>        -0.5405
     17 C13         0.9160   -0.2005    3.7377 C.3       1 <0>        -0.1127
     18 C14         0.3580    0.5868    4.9251 C.3       1 <0>        -0.0900
     19 C15        -1.1430    0.3704    4.9925 C.2       1 <0>        -0.0526
     20 C16        -1.6660    0.0339    6.1660 C.2       1 <0>        -0.1289
     21 C17        -3.1197   -0.1715    6.2922 C.2       1 <0>         0.1667
     22 N1         -3.6293   -0.8741    7.2537 N.2       1 <0>        -0.3367
     23 O2         -5.0323   -1.0465    7.3380 O.3       1 <0>        -0.4127
     24 C18        -3.9866    0.4851    5.2352 C.3       1 <0>        -0.1155
     25 C19        -3.4002    0.1190    3.8727 C.3       1 <0>        -0.1077
     26 C20        -1.9382    0.5561    3.7529 C.3       1 <0>        -0.0542
     27 H4         -1.9283    1.6187    3.5102 H         1 <0>         0.0853
     28 H5          1.0039    1.9031    0.0027 H         1 <0>         0.0575
     29 H6         -0.5459    1.8868   -0.8726 H         1 <0>         0.0619
     30 H7         -0.5289    1.8773    0.9072 H         1 <0>         0.0647
     31 H8         -1.9632   -0.2592   -0.8272 H         1 <0>         0.0661
     32 H9         -1.3995   -1.6226    0.1785 H         1 <0>         0.0640
     33 H10        -2.1279    1.1776    1.1657 H         1 <0>         0.0695
     34 H11        -3.0902   -0.2933    1.4073 H         1 <0>         0.0653
     35 H12         2.4015    0.8710    1.0532 H         1 <0>         0.0753
     36 H13         2.8927   -0.7938    1.5077 H         1 <0>         0.0703
     37 H14         2.9458    0.1347   -1.1154 H         1 <0>         0.0806
     38 H15         2.6980   -1.5843   -0.6953 H         1 <0>         0.0718
     39 H16        -0.2565   -3.8575   -2.2291 H         1 <0>         0.2179
     40 H17         1.3317    0.1490   -3.0130 H         1 <0>         0.3782
     41 H18         0.7745   -1.2676    3.9095 H         1 <0>         0.0652
     42 H19         1.9790    0.0133    3.6262 H         1 <0>         0.0712
     43 H20         0.8199    0.2337    5.8471 H         1 <0>         0.0761
     44 H21         0.5686    1.6478    4.7915 H         1 <0>         0.0811
     45 H22        -1.0262   -0.0888    7.0274 H         1 <0>         0.1308
     46 H23        -5.3180   -1.5856    8.0882 H         1 <0>         0.4036
     47 H24        -5.0085    0.1136    5.3109 H         1 <0>         0.0861
     48 H25        -3.9741    1.5672    5.3654 H         1 <0>         0.0873
     49 H26        -3.4581   -0.9614    3.7399 H         1 <0>         0.0651
     50 H27        -3.9869    0.6031    3.0920 H         1 <0>         0.0776
@<TRIPOS>BOND
     1    1    2 1
     2    1   28 1
     3    1   29 1
     4    1   30 1
     5    2    9 1
     6    2   13 1
     7    2    3 1
     8    3    4 1
     9    3   31 1
    10    3   32 1
    11    4    5 1
    12    4   33 1
    13    4   34 1
    14    5    6 1
    15    5   26 1
    16    5    7 1
    17    7    8 1
    18    7    9 1
    19    7   17 1
    20    9   10 1
    21    9   11 1
    22   11   12 1
    23   11   35 1
    24   11   36 1
    25   12   13 1
    26   12   37 1
    27   12   38 1
    28   13   14 1
    29   13   16 1
    30   14   15 3
    31   15   39 1
    32   16   40 1
    33   17   18 1
    34   17   41 1
    35   17   42 1
    36   18   19 1
    37   18   43 1
    38   18   44 1
    39   19   26 1
    40   19   20 2
    41   20   21 1
    42   20   45 1
    43   21   22 2
    44   21   24 1
    45   22   23 1
    46   23   46 1
    47   24   25 1
    48   24   47 1
    49   24   48 1
    50   25   26 1
    51   25   49 1
    52   25   50 1
    53   26   27 1
@<TRIPOS>MOLECULE
ZINC03873287
   50    53     0     0     0
SMALL
USER_CHARGES

@<TRIPOS>ATOM
      1 C1          1.0640   -0.4441   -0.7878 C.ar      1 <0>        -0.1410
      2 C2          2.2473    0.2676   -0.8051 C.ar      1 <0>        -0.0006
      3 C3          2.3751    1.4182   -0.0486 C.ar      1 <0>        -0.6984
      4 C4          1.3192    1.8600    0.7275 C.ar      1 <0>         0.0094
      5 C5          0.1332    1.1527    0.7497 C.ar      1 <0>        -0.1704
      6 C6          0.0014   -0.0032   -0.0094 C.ar      1 <0>         0.2324
      7 N1         -1.1980   -0.7210    0.0101 N.pl3     1 <0>        -0.6339
      8 C7         -1.1808   -2.1027   -0.1021 C.ar      1 <0>         0.6156
      9 N2         -2.3307   -2.7504   -0.1982 N.ar      1 <0>        -0.5803
     10 C8         -2.3525   -4.0741   -0.3076 C.ar      1 <0>         0.3394
     11 C9         -1.1370   -4.7803   -0.3202 C.ar      1 <0>        -0.1015
     12 C10         0.0574   -4.0511   -0.2158 C.ar      1 <0>         0.4739
     13 N3         -0.0115   -2.7302   -0.1151 N.ar      1 <0>        -0.6058
     14 O1          1.2559   -4.6825   -0.2224 O.3       1 <0>        -0.2730
     15 C11         2.4214   -3.8631   -0.1117 C.3       1 <0>         0.0667
     16 C12         3.6703   -4.7467   -0.1370 C.3       1 <0>        -0.0863
     17 C13         3.6862   -5.6428    1.1030 C.3       1 <0>        -0.1150
     18 C14         4.9350   -6.5264    1.0776 C.3       1 <0>        -0.1192
     19 C15         6.1845   -5.6434    1.0704 C.3       1 <0>        -0.1224
     20 C16         6.1685   -4.7473   -0.1696 C.3       1 <0>        -0.1175
     21 C17         4.9197   -3.8637   -0.1443 C.3       1 <0>        -0.1128
     22 N4         -1.4413   -6.0963   -0.4395 N.2       1 <0>        -0.4434
     23 C18        -2.7329   -6.2385   -0.4993 C.2       1 <0>         0.2546
     24 N5         -3.3404   -5.0194   -0.4220 N.pl3     1 <0>        -0.5790
     25 H1         -4.2955   -4.8516   -0.4439 H         1 <0>         0.4341
     26 S1          3.8869    2.3230   -0.0731 S.o2      1 <0>         2.7018
     27 O2          3.9389    3.0598    1.1409 O.2       1 <0>        -0.9640
     28 O3          4.9035    1.4050   -0.4512 O.2       1 <0>        -0.9607
     29 N6          3.7731    3.4335   -1.2963 N.pl3     1 <0>        -1.2490
     30 H2          0.9633   -1.3401   -1.3823 H         1 <0>         0.1431
     31 H3          3.0740   -0.0749   -1.4098 H         1 <0>         0.1446
     32 H4          1.4223    2.7589    1.3171 H         1 <0>         0.1468
     33 H5         -0.6908    1.4978    1.3565 H         1 <0>         0.1381
     34 H6         -2.0423   -0.2524    0.1021 H         1 <0>         0.4303
     35 H7          2.4544   -3.1635   -0.9469 H         1 <0>         0.0726
     36 H8          2.3879   -3.3083    0.8259 H         1 <0>         0.0738
     37 H9          3.6584   -5.3669   -1.0334 H         1 <0>         0.0830
     38 H10         3.6980   -5.0227    1.9993 H         1 <0>         0.0614
     39 H11         2.7961   -6.2719    1.1081 H         1 <0>         0.0692
     40 H12         4.9464   -7.1648    1.9610 H         1 <0>         0.0623
     41 H13         4.9232   -7.1466    0.1813 H         1 <0>         0.0626
     42 H14         6.1963   -5.0233    1.9667 H         1 <0>         0.0620
     43 H15         7.0741   -6.2729    1.0524 H         1 <0>         0.0618
     44 H16         7.0587   -4.1182   -0.1747 H         1 <0>         0.0663
     45 H17         6.1567   -5.3675   -1.0659 H         1 <0>         0.0630
     46 H18         4.9084   -3.2253   -1.0277 H         1 <0>         0.0678
     47 H19         4.9315   -3.2436    0.7521 H         1 <0>         0.0678
     48 H20        -3.2485   -7.1825   -0.5967 H         1 <0>         0.2311
     49 H21         4.2460    4.2778   -1.2303 H         1 <0>         0.4215
     50 H22         3.2336    3.2396   -2.0787 H         1 <0>         0.4170
@<TRIPOS>BOND
     1    1    6 ar
     2    1    2 ar
     3    1   30 1
     4    2    3 ar
     5    2   31 1
     6    3    4 ar
     7    3   26 1
     8    4    5 ar
     9    4   32 1
    10    5    6 ar
    11    5   33 1
    12    6    7 1
    13    7    8 1
    14    7   34 1
    15    8   13 ar
    16    8    9 ar
    17    9   10 ar
    18   10   24 1
    19   10   11 ar
    20   11   12 ar
    21   11   22 1
    22   12   13 ar
    23   12   14 1
    24   14   15 1
    25   15   16 1
    26   15   35 1
    27   15   36 1
    28   16   21 1
    29   16   17 1
    30   16   37 1
    31   17   18 1
    32   17   38 1
    33   17   39 1
    34   18   19 1
    35   18   40 1
    36   18   41 1
    37   19   20 1
    38   19   42 1
    39   19   43 1
    40   20   21 1
    41   20   44 1
    42   20   45 1
    43   21   46 1
    44   21   47 1
    45   22   23 2
    46   23   24 1
    47   23   48 1
    48   24   25 1
    49   26   27 2
    50   26   28 2
    51   26   29 1
    52   29   49 1
    53   29   50 1
@<TRIPOS>MOLECULE
ZINC13581272
   63    69     0     0     0
SMALL
USER_CHARGES
3-imidazo[3,2-a]pyridin-3-yl-4-(piperidine-1-carbonylBLAHyl)pyrrole-2,5-dione
@<TRIPOS>ATOM
      1 C1         -1.9985    3.2992    4.3777 C.2       1 <0>        -0.0944
      2 C2         -0.6850    3.1116    4.8310 C.2       1 <0>        -0.1354
      3 C3         -0.2514    1.8748    5.1645 C.2       1 <0>         0.0622
      4 N1         -1.0809    0.7990    5.0652 N.pl3     1 <0>        -0.3380
      5 C4         -2.3691    0.9499    4.6258 C.2       1 <0>         0.2348
      6 C5         -2.8366    2.2284    4.2749 C.2       1 <0>        -0.0812
      7 N2         -2.9579   -0.2445    4.6176 N.2       1 <0>        -0.4890
      8 C6         -2.1076   -1.1667    5.0422 C.2       1 <0>         0.1056
      9 C7         -0.9016   -0.5434    5.3336 C.2       1 <0>        -0.0422
     10 C8          0.3176   -1.1826    5.8265 C.2       1 <0>        -0.0512
     11 C9          0.9976   -2.2556    5.2474 C.2       1 <0>        -0.0001
     12 C10         2.1547   -2.5222    6.1168 C.2       1 <0>         0.5534
     13 O1          2.9897   -3.3876    5.9381 O.2       1 <0>        -0.4357
     14 N3          2.1347   -1.6550    7.1426 N.am      1 <0>        -0.6879
     15 C11         1.0796   -0.8286    7.0446 C.2       1 <0>         0.5587
     16 O2          0.7990    0.0597    7.8241 O.2       1 <0>        -0.4525
     17 C12         0.6321   -2.9743    4.0133 C.2       1 <0>        -0.1485
     18 C13         0.7891   -2.5267    2.7328 C.2       1 <0>         0.1116
     19 N4          0.2994   -3.4469    1.8617 N.pl3     1 <0>        -0.4759
     20 C14        -0.0851   -4.5862    2.5535 C.ar      1 <0>         0.1176
     21 C15         0.0333   -4.3155    3.9227 C.ar      1 <0>        -0.0671
     22 C16        -0.4313   -5.2547    4.8403 C.ar      1 <0>        -0.0773
     23 C17        -0.9438   -6.4509    4.3836 C.ar      1 <0>        -0.1304
     24 C18        -0.9671   -6.7453    3.0266 C.ar      1 <0>        -0.0911
     25 C19        -0.4955   -5.8276    2.1108 C.ar      1 <0>        -0.1030
     26 C20        -0.4074   -6.1795    0.6451 C.3       1 <0>         0.1893
     27 N5          0.8630   -5.6562    0.1231 N.am      1 <0>        -0.6725
     28 C21         0.9987   -4.2759   -0.3422 C.3       1 <0>         0.1090
     29 C22         0.1025   -3.3074    0.4119 C.3       1 <0>         0.1033
     30 C23         1.9346   -6.4720    0.0720 C.2       1 <0>         0.7229
     31 O3          2.3598   -6.9817    1.0907 O.2       1 <0>        -0.5428
     32 N6          2.5350   -6.7227   -1.1083 N.am      1 <0>        -0.6165
     33 C24         2.1507   -5.9799   -2.3163 C.3       1 <0>         0.0888
     34 C25         3.4158   -5.3669   -2.9360 C.3       1 <0>        -0.1357
     35 C26         4.4450   -6.4730   -3.1795 C.3       1 <0>        -0.1204
     36 C27         4.8269   -7.1194   -1.8459 C.3       1 <0>        -0.1357
     37 C28         3.5818   -7.7484   -1.2127 C.3       1 <0>         0.1213
     38 H1         -2.3447    4.2868    4.1110 H         1 <0>         0.1469
     39 H2         -0.0178    3.9568    4.9137 H         1 <0>         0.1546
     40 H3          0.7619    1.7388    5.5125 H         1 <0>         0.1585
     41 H4         -3.8504    2.3613    3.9272 H         1 <0>         0.1554
     42 H5         -2.3150   -2.2220    5.1405 H         1 <0>         0.1872
     43 H6          2.7918   -1.6286    7.8556 H         1 <0>         0.4305
     44 H7          1.2356   -1.5835    2.4545 H         1 <0>         0.1685
     45 H8         -0.3878   -5.0499    5.8998 H         1 <0>         0.1196
     46 H9         -1.3320   -7.1687    5.0910 H         1 <0>         0.1242
     47 H10        -1.3548   -7.6946    2.6876 H         1 <0>         0.1261
     48 H11        -1.2404   -5.7265    0.1075 H         1 <0>         0.0855
     49 H12        -0.4368   -7.2623    0.5238 H         1 <0>         0.0888
     50 H13         0.7460   -4.2359   -1.4018 H         1 <0>         0.0833
     51 H14         2.0358   -3.9650   -0.2169 H         1 <0>         0.0747
     52 H15        -0.9392   -3.5161    0.1680 H         1 <0>         0.0926
     53 H16         0.3420   -2.2871    0.1123 H         1 <0>         0.1081
     54 H17         1.6833   -6.6588   -3.0296 H         1 <0>         0.0679
     55 H18         1.4512   -5.1873   -2.0508 H         1 <0>         0.0987
     56 H19         3.8337   -4.6244   -2.2562 H         1 <0>         0.0643
     57 H20         3.1617   -4.8914   -3.8833 H         1 <0>         0.0754
     58 H21         5.3339   -6.0461   -3.6439 H         1 <0>         0.0660
     59 H22         4.0174   -7.2277   -3.8395 H         1 <0>         0.0652
     60 H23         5.2315   -6.3604   -1.1764 H         1 <0>         0.0657
     61 H24         5.5772   -7.8912   -2.0174 H         1 <0>         0.0766
     62 H25         3.8268   -8.1229   -0.2189 H         1 <0>         0.0932
     63 H26         3.2278   -8.5697   -1.8357 H         1 <0>         0.0682
@<TRIPOS>BOND
     1    1    6 2
     2    1    2 1
     3    1   38 1
     4    2    3 2
     5    2   39 1
     6    3    4 1
     7    3   40 1
     8    4    9 1
     9    4    5 1
    10    5    6 1
    11    5    7 2
    12    6   41 1
    13    7    8 1
    14    8    9 2
    15    8   42 1
    16    9   10 1
    17   10   15 1
    18   10   11 2
    19   11   12 1
    20   11   17 1
    21   12   13 2
    22   12   14 am
    23   14   15 am
    24   14   43 1
    25   15   16 2
    26   17   21 1
    27   17   18 2
    28   18   19 1
    29   18   44 1
    30   19   29 1
    31   19   20 1
    32   20   25 ar
    33   20   21 ar
    34   21   22 ar
    35   22   23 ar
    36   22   45 1
    37   23   24 ar
    38   23   46 1
    39   24   25 ar
    40   24   47 1
    41   25   26 1
    42   26   27 1
    43   26   48 1
    44   26   49 1
    45   27   28 1
    46   27   30 am
    47   28   29 1
    48   28   50 1
    49   28   51 1
    50   29   52 1
    51   29   53 1
    52   30   31 2
    53   30   32 am
    54   32   37 1
    55   32   33 1
    56   33   34 1
    57   33   54 1
    58   33   55 1
    59   34   35 1
    60   34   56 1
    61   34   57 1
    62   35   36 1
    63   35   58 1
    64   35   59 1
    65   36   37 1
    66   36   60 1
    67   36   61 1
    68   37   62 1
    69   37   63 1
@<TRIPOS>MOLECULE
ZINC38995988
   51    55     0     0     0
SMALL
USER_CHARGES

@<TRIPOS>ATOM
      1 C1         -0.0167    1.3832    0.0096 C.ar      1 <0>        -0.0900
      2 C2          1.1624    2.0986    0.0022 C.ar      1 <0>        -0.1093
      3 C3          2.3769    1.4282   -0.0129 C.ar      1 <0>         0.0585
      4 C4          2.4020    0.0222   -0.0207 C.ar      1 <0>         0.0556
      5 C5          1.1969   -0.6870   -0.0127 C.ar      1 <0>        -0.0377
      6 C6          0.0021   -0.0041    0.0020 C.ar      1 <0>        -0.0874
      7 C7         -1.2962   -0.7693    0.0108 C.3       1 <0>         0.0982
      8 N1         -1.7317   -1.0105   -1.3713 N.3       1 <0>        -0.5319
      9 C8         -2.0812    0.2506   -2.0413 C.3       1 <0>         0.0140
     10 C9         -2.4711   -0.0400   -3.4930 C.3       1 <0>         0.0628
     11 O1         -3.5484   -0.9803   -3.5128 O.3       1 <0>        -0.3858
     12 C10        -3.2423   -2.2203   -2.8694 C.3       1 <0>         0.0630
     13 C11        -2.8603   -1.9518   -1.4114 C.3       1 <0>         0.0170
     14 N2          3.7040   -0.3552   -0.0358 N.2       1 <0>        -0.4791
     15 C12         4.4709    0.7083   -0.0379 C.2       1 <0>         0.3677
     16 N3          3.6969    1.8375   -0.0241 N.pl3     1 <0>        -0.5827
     17 C13         5.9482    0.6906   -0.0529 C.2       1 <0>         0.1128
     18 C14         6.7655   -0.4629   -0.0734 C.2       1 <0>         0.0625
     19 C15         8.0574   -0.0542   -0.0820 C.2       1 <0>         0.0467
     20 N4          8.0646    1.3049   -0.0675 N.pl3     1 <0>        -0.4518
     21 H1          8.8531    1.8699   -0.0696 H         1 <0>         0.4522
     22 N5          6.7361    1.7481   -0.0552 N.2       1 <0>        -0.2610
     23 N6          6.3179   -1.7953   -0.0825 N.am      1 <0>        -0.6484
     24 C16         7.2097   -2.8056   -0.1024 C.2       1 <0>         0.7112
     25 O2          8.4015   -2.5644   -0.1124 O.2       1 <0>        -0.5835
     26 N7          6.7806   -4.0832   -0.1111 N.am      1 <0>        -0.7107
     27 C17         7.7500   -5.1814   -0.1326 C.3       1 <0>         0.0984
     28 C18         7.4710   -6.3514   -1.0782 C.3       1 <0>        -0.1941
     29 C19         7.3013   -6.5309    0.4317 C.3       1 <0>        -0.1895
     30 H2         -0.9613    1.9065    0.0260 H         1 <0>         0.1292
     31 H3          1.1404    3.1784    0.0078 H         1 <0>         0.1265
     32 H4          1.2037   -1.7669   -0.0185 H         1 <0>         0.1329
     33 H5         -1.1522   -1.7232    0.5181 H         1 <0>         0.0877
     34 H6         -2.0559   -0.1898    0.5352 H         1 <0>         0.0479
     35 H7         -2.9207    0.7164   -1.5252 H         1 <0>         0.0435
     36 H8         -1.2233    0.9227   -2.0224 H         1 <0>         0.0909
     37 H9         -2.7857    0.8844   -3.9773 H         1 <0>         0.0978
     38 H10        -1.6147   -0.4564   -4.0234 H         1 <0>         0.0598
     39 H11        -4.1148   -2.8728   -2.9028 H         1 <0>         0.0988
     40 H12        -2.4084   -2.7001   -3.3817 H         1 <0>         0.0605
     41 H13        -2.5711   -2.8874   -0.9327 H         1 <0>         0.0882
     42 H14        -3.7122   -1.5212   -0.8852 H         1 <0>         0.0444
     43 H15         8.9269   -0.6946   -0.0972 H         1 <0>         0.2141
     44 H16         5.3672   -1.9876   -0.0745 H         1 <0>         0.4224
     45 H17         5.8299   -4.2755   -0.1031 H         1 <0>         0.4015
     46 H18         8.7902   -4.8932    0.0188 H         1 <0>         0.1414
     47 H19         6.5663   -6.3041   -1.6842 H         1 <0>         0.0976
     48 H20         8.3279   -6.8332   -1.5492 H         1 <0>         0.1039
     49 H21         8.0465   -7.1307    0.9541 H         1 <0>         0.1053
     50 H22         6.2849   -6.6016    0.8191 H         1 <0>         0.0980
     51 H23         4.0155    2.7537   -0.0227 H         1 <0>         0.4299
@<TRIPOS>BOND
     1    1    6 ar
     2    1    2 ar
     3    1   30 1
     4    2    3 ar
     5    2   31 1
     6    3   16 1
     7    3    4 ar
     8    4    5 ar
     9    4   14 1
    10    5    6 ar
    11    5   32 1
    12    6    7 1
    13    7    8 1
    14    7   33 1
    15    7   34 1
    16    8   13 1
    17    8    9 1
    18    9   10 1
    19    9   35 1
    20    9   36 1
    21   10   11 1
    22   10   37 1
    23   10   38 1
    24   11   12 1
    25   12   13 1
    26   12   39 1
    27   12   40 1
    28   13   41 1
    29   13   42 1
    30   14   15 2
    31   15   16 1
    32   15   17 1
    33   16   51 1
    34   17   22 2
    35   17   18 1
    36   18   19 2
    37   18   23 1
    38   19   20 1
    39   19   43 1
    40   20   21 1
    41   20   22 1
    42   23   24 am
    43   23   44 1
    44   24   25 2
    45   24   26 am
    46   26   27 1
    47   26   45 1
    48   27   29 1
    49   27   28 1
    50   27   46 1
    51   28   29 1
    52   28   47 1
    53   28   48 1
    54   29   49 1
    55   29   50 1
@<TRIPOS>MOLECULE
ZINC03973984
   56    61     0     0     0
SMALL
USER_CHARGES

@<TRIPOS>ATOM
      1 C1          2.5035    5.2044    5.2747 C.3       1 <0>        -0.0407
      2 C2          2.1460    2.8917    5.8982 C.3       1 <0>         0.0002
      3 C3          2.5994    1.4554    5.6263 C.3       1 <0>         0.0414
      4 N1          2.3296    1.1169    4.2220 N.pl3     1 <0>        -0.4613
      5 C4          3.0395    2.0315    3.3170 C.3       1 <0>         0.0369
      6 C5          2.5862    3.4678    3.5888 C.3       1 <0>         0.0039
      7 C6          2.6615   -0.1998    3.9568 C.ar      1 <0>         0.4871
      8 N2          3.1470   -0.9308    4.9409 N.ar      1 <0>        -0.5353
      9 C7          3.4872   -2.2119    4.7478 C.ar      1 <0>         0.1825
     10 C8          4.0048   -3.0092    5.7783 C.ar      1 <0>        -0.1065
     11 C9          4.3334   -4.3076    5.5235 C.ar      1 <0>        -0.0656
     12 C10         4.1631   -4.8562    4.2555 C.ar      1 <0>        -0.1085
     13 C11         3.6617   -4.1078    3.2298 C.ar      1 <0>        -0.0669
     14 C12         3.3105   -2.7758    3.4594 C.ar      1 <0>        -0.1492
     15 C13         2.7731   -1.9159    2.4035 C.ar      1 <0>         0.3236
     16 N3          2.4744   -0.6585    2.7252 N.ar      1 <0>        -0.4991
     17 C14         2.5650   -2.4238    1.0387 C.2       1 <0>        -0.1201
     18 C15         3.1800   -1.9689   -0.1276 C.2       1 <0>         0.0533
     19 C16         2.6362   -2.8084   -1.2276 C.2       1 <0>         0.5500
     20 O1          2.9328   -2.7204   -2.4013 O.2       1 <0>        -0.4227
     21 N4          1.7605   -3.6814   -0.7012 N.am      1 <0>        -0.6820
     22 C17         1.6634   -3.5132    0.6279 C.2       1 <0>         0.5700
     23 O2          0.9508   -4.1587    1.3715 O.2       1 <0>        -0.4396
     24 C18         4.1628   -0.8913   -0.2438 C.2       1 <0>        -0.1709
     25 C19         5.4966   -0.9402    0.1201 C.2       1 <0>         0.1080
     26 N5          6.0779    0.2476   -0.1381 N.pl3     1 <0>        -0.5732
     27 H1          7.0102    0.4541    0.0329 H         1 <0>         0.4235
     28 C20         5.1647    1.1307   -0.6801 C.ar      1 <0>         0.0844
     29 C21         3.9309    0.4665   -0.7721 C.ar      1 <0>        -0.0602
     30 C22         2.8189    1.1254   -1.2880 C.ar      1 <0>        -0.0732
     31 C23         2.9346    2.4335   -1.7084 C.ar      1 <0>        -0.1312
     32 C24         4.1518    3.0912   -1.6184 C.ar      1 <0>        -0.0989
     33 C25         5.2601    2.4513   -1.1048 C.ar      1 <0>        -0.1234
     34 H2          2.7756    5.4479    6.3018 H         1 <0>         0.1235
     35 H3          3.0428    5.8598    4.5909 H         1 <0>         0.1231
     36 H4          1.4307    5.3427    5.1405 H         1 <0>         0.1252
     37 H5          1.0724    2.9725    5.7281 H         1 <0>         0.1413
     38 H6          2.3713    3.1547    6.9317 H         1 <0>         0.1414
     39 H7          2.0529    0.7723    6.2765 H         1 <0>         0.1348
     40 H8          3.6680    1.3677    5.8227 H         1 <0>         0.0783
     41 H9          4.1131    1.9507    3.4870 H         1 <0>         0.0667
     42 H10         2.8139    1.7684    2.2835 H         1 <0>         0.1408
     43 H11         1.5175    3.5551    3.3925 H         1 <0>         0.1441
     44 H12         3.1327    4.1509    2.9386 H         1 <0>         0.1409
     45 H13         4.1420   -2.5977    6.7674 H         1 <0>         0.1438
     46 H14         4.7321   -4.9205    6.3183 H         1 <0>         0.1425
     47 H15         4.4315   -5.8876    4.0807 H         1 <0>         0.1407
     48 H16         3.5332   -4.5436    2.2500 H         1 <0>         0.1310
     49 H17         1.2665   -4.3425   -1.2110 H         1 <0>         0.4382
     50 H18         5.9953   -1.7986    0.5453 H         1 <0>         0.1795
     51 H19         1.8699    0.6147   -1.3585 H         1 <0>         0.1217
     52 H20         2.0736    2.9480   -2.1089 H         1 <0>         0.1281
     53 H21         4.2319    4.1158   -1.9504 H         1 <0>         0.1296
     54 H22         6.2033    2.9732   -1.0392 H         1 <0>         0.1233
     55 N6          2.8834    3.8027    4.9973 N.4       1 <0>        -0.4016
     56 H23         3.8908    3.6913    5.1615 H         1 <0>         0.4268
@<TRIPOS>BOND
     1    1   34 1
     2    1   35 1
     3    1   36 1
     4    1   55 1
     5    2    3 1
     6    2   37 1
     7    2   38 1
     8    2   55 1
     9    3    4 1
    10    3   39 1
    11    3   40 1
    12    4    5 1
    13    4    7 1
    14    5    6 1
    15    5   41 1
    16    5   42 1
    17    6   43 1
    18    6   44 1
    19    6   55 1
    20    7   16 ar
    21    7    8 ar
    22    8    9 ar
    23    9   14 ar
    24    9   10 ar
    25   10   11 ar
    26   10   45 1
    27   11   12 ar
    28   11   46 1
    29   12   13 ar
    30   12   47 1
    31   13   14 ar
    32   13   48 1
    33   14   15 ar
    34   15   16 ar
    35   15   17 1
    36   17   22 1
    37   17   18 2
    38   18   19 1
    39   18   24 1
    40   19   20 2
    41   19   21 am
    42   21   22 am
    43   21   49 1
    44   22   23 2
    45   24   29 1
    46   24   25 2
    47   25   26 1
    48   25   50 1
    49   26   27 1
    50   26   28 1
    51   28   33 ar
    52   28   29 ar
    53   29   30 ar
    54   30   31 ar
    55   30   51 1
    56   31   32 ar
    57   31   52 1
    58   32   33 ar
    59   32   53 1
    60   33   54 1
    61   55   56 1
@<TRIPOS>MOLECULE
ZINC03860856
   53    55     0     0     0
SMALL
USER_CHARGES

@<TRIPOS>ATOM
      1 C1          0.1067    1.6831   -0.0275 C.3       1 <0>        -0.1453
      2 C2          0.1216    0.1539   -0.0746 C.3       1 <0>        -0.0602
      3 C3          0.8637   -0.3105   -1.3294 C.3       1 <0>        -0.1459
      4 C4          0.8212   -0.3796    1.1493 C.ar      1 <0>        -0.0665
      5 C5          2.1388   -0.0417    1.3955 C.ar      1 <0>        -0.1126
      6 C6          2.7712   -0.5346    2.5201 C.ar      1 <0>        -0.1128
      7 C7          2.0929   -1.3619    3.3990 C.ar      1 <0>        -0.0798
      8 C8          0.7807   -1.7058    3.1587 C.ar      1 <0>        -0.0763
      9 C9          0.1486   -1.2061    2.0238 C.ar      1 <0>        -0.1202
     10 C10        -0.0277   -2.6004    4.0577 C.3       1 <0>        -0.0819
     11 C11         0.8242   -3.2507    5.1495 C.3       1 <0>        -0.1170
     12 C12         1.7934   -2.1988    5.6854 C.3       1 <0>        -0.0616
     13 H1          1.1845   -1.2682    5.8131 H         1 <0>         0.0748
     14 C13         2.8253   -1.8788    4.6196 C.3       1 <0>         0.0021
     15 C14         3.8132   -0.8302    5.1219 C.3       1 <0>        -0.1122
     16 C15         4.4731   -1.3252    6.4101 C.3       1 <0>        -0.1182
     17 C16         3.4189   -1.5360    7.4888 C.3       1 <0>        -0.1282
     18 C17         2.3430   -2.5324    7.0539 C.3       1 <0>        -0.0564
     19 C18         2.8846   -3.9593    7.1382 C.3       1 <0>        -0.1735
     20 C19         1.1903   -2.4172    8.0806 C.3       1 <0>        -0.0153
     21 N1          1.6959   -2.7366    9.4223 N.4       1 <0>        -0.6394
     22 C20         3.6038   -3.1158    4.1730 C.3       1 <0>        -0.1495
     23 H2          1.1307    2.0559   -0.0029 H         1 <0>         0.0571
     24 H3         -0.3992    2.0690   -0.9125 H         1 <0>         0.0615
     25 H4         -0.4220    2.0140    0.8664 H         1 <0>         0.0548
     26 H5         -0.9024   -0.2188   -0.0992 H         1 <0>         0.0775
     27 H6          1.8877    0.0623   -1.3047 H         1 <0>         0.0572
     28 H7          0.8743   -1.3999   -1.3629 H         1 <0>         0.0558
     29 H8          0.3578    0.0754   -2.2144 H         1 <0>         0.0616
     30 H9          2.6720    0.6029    0.7133 H         1 <0>         0.1230
     31 H10         3.8014   -0.2692    2.7040 H         1 <0>         0.1225
     32 H11        -0.8801   -1.4699    1.8284 H         1 <0>         0.1193
     33 H12        -0.8158   -2.0114    4.5306 H         1 <0>         0.0743
     34 H13        -0.4905   -3.3854    3.4571 H         1 <0>         0.0791
     35 H14         0.1570   -3.5891    5.9489 H         1 <0>         0.0628
     36 H15         1.3408   -4.1150    4.7469 H         1 <0>         0.0790
     37 H16         4.5822   -0.6598    4.3663 H         1 <0>         0.0758
     38 H17         3.2856    0.1047    5.3161 H         1 <0>         0.0686
     39 H18         5.0282   -2.2411    6.2340 H         1 <0>         0.0744
     40 H19         5.1815   -0.5604    6.7546 H         1 <0>         0.0717
     41 H20         3.9022   -1.9075    8.3973 H         1 <0>         0.0616
     42 H21         2.9441   -0.5781    7.7211 H         1 <0>         0.0751
     43 H22         3.7452   -4.0610    6.4770 H         1 <0>         0.0932
     44 H23         3.1867   -4.1733    8.1634 H         1 <0>         0.0496
     45 H24         2.1080   -4.6612    6.8342 H         1 <0>         0.0782
     46 H25         0.7972   -1.4006    8.0729 H         1 <0>         0.1357
     47 H26         0.3966   -3.1158    7.8156 H         1 <0>         0.1367
     48 H27         2.0599   -3.6777    9.4294 H         1 <0>         0.4329
     49 H28         2.4307   -2.0900    9.6676 H         1 <0>         0.4329
     50 H29         4.2191   -2.8654    3.3088 H         1 <0>         0.0627
     51 H30         4.2428   -3.4567    4.9875 H         1 <0>         0.0619
     52 H31         2.9046   -3.9076    3.9039 H         1 <0>         0.0620
     53 H32         0.9446   -2.6615   10.0916 H         1 <0>         0.4377
@<TRIPOS>BOND
     1    1    2 1
     2    1   23 1
     3    1   24 1
     4    1   25 1
     5    2    3 1
     6    2    4 1
     7    2   26 1
     8    3   27 1
     9    3   28 1
    10    3   29 1
    11    4    9 ar
    12    4    5 ar
    13    5    6 ar
    14    5   30 1
    15    6    7 ar
    16    6   31 1
    17    7   14 1
    18    7    8 ar
    19    8    9 ar
    20    8   10 1
    21    9   32 1
    22   10   11 1
    23   10   33 1
    24   10   34 1
    25   11   12 1
    26   11   35 1
    27   11   36 1
    28   12   13 1
    29   12   18 1
    30   12   14 1
    31   14   15 1
    32   14   22 1
    33   15   16 1
    34   15   37 1
    35   15   38 1
    36   16   17 1
    37   16   39 1
    38   16   40 1
    39   17   18 1
    40   17   41 1
    41   17   42 1
    42   18   19 1
    43   18   20 1
    44   19   43 1
    45   19   44 1
    46   19   45 1
    47   20   21 1
    48   20   46 1
    49   20   47 1
    50   21   48 1
    51   21   49 1
    52   21   53 1
    53   22   50 1
    54   22   51 1
    55   22   52 1
