@<TRIPOS>MOLECULE
ZINC14952116
   76    77     0     0     0
SMALL
USER_CHARGES

@<TRIPOS>ATOM
      1 C1         -0.0187    1.5258    0.0104 C.3       1 <0>        -0.1447
      2 C2          0.0021   -0.0041    0.0020 C.3       1 <0>        -0.0967
      3 C3          0.7421   -0.5109    1.2415 C.3       1 <0>        -0.1473
      4 C4         -1.4333   -0.5336    0.0129 C.3       1 <0>        -0.1054
      5 C5         -1.4157   -2.0577   -0.1212 C.3       1 <0>         0.0745
      6 H1         -0.7891   -2.4841    0.6622 H         1 <0>         0.0870
      7 C6         -2.8192   -2.5900    0.0125 C.2       1 <0>         0.4905
      8 O1         -3.3892   -3.0569   -0.9588 O.co2     1 <0>        -0.6874
      9 O2         -3.3846   -2.5537    1.0921 O.co2     1 <0>        -0.6962
     10 N1         -0.8765   -2.4263   -1.4325 N.am      1 <0>        -0.6830
     11 C7         -0.2982   -3.6308   -1.6090 C.2       1 <0>         0.5110
     12 O3         -0.2242   -4.4096   -0.6822 O.2       1 <0>        -0.5434
     13 C8          0.2565   -4.0101   -2.9579 C.3       1 <0>         0.1410
     14 H2          1.0331   -3.3007   -3.2439 H         1 <0>         0.1113
     15 C9         -0.8664   -3.9833   -3.9969 C.3       1 <0>        -0.0906
     16 C10        -0.2907   -4.2419   -5.3654 C.ar      1 <0>        -0.0564
     17 C11         0.1466   -3.1854   -6.1422 C.ar      1 <0>        -0.1049
     18 C12         0.6746   -3.4227   -7.3975 C.ar      1 <0>        -0.1132
     19 C13         0.7657   -4.7164   -7.8758 C.ar      1 <0>        -0.1244
     20 C14         0.3292   -5.7730   -7.0986 C.ar      1 <0>        -0.1144
     21 C15        -0.1948   -5.5361   -5.8416 C.ar      1 <0>        -0.1104
     22 N2          0.8270   -5.3577   -2.8901 N.am      1 <0>        -0.7019
     23 C16         1.7936   -5.7246   -3.7546 C.2       1 <0>         0.5103
     24 O4          2.1912   -4.9391   -4.5888 O.2       1 <0>        -0.5220
     25 C17         2.3805   -7.1108   -3.6848 C.3       1 <0>         0.1013
     26 N3          3.4040   -7.2606   -4.7222 N.am      1 <0>        -0.7065
     27 C18         4.0686   -8.4262   -4.8498 C.2       1 <0>         0.5125
     28 O5          3.8194   -9.3510   -4.1058 O.2       1 <0>        -0.5389
     29 C19         5.1215   -8.5803   -5.9170 C.3       1 <0>         0.1024
     30 N4          5.6920   -9.9279   -5.8491 N.am      1 <0>        -0.7178
     31 C20         6.6587  -10.2948   -6.7136 C.2       1 <0>         0.5243
     32 O6          7.0562   -9.5093   -7.5478 O.2       1 <0>        -0.5267
     33 C21         7.2456  -11.6811   -6.6438 C.3       1 <0>         0.0854
     34 H3          6.4524  -12.4018   -6.4452 H         1 <0>         0.1063
     35 C22         8.2817  -11.7402   -5.5196 C.3       1 <0>        -0.1125
     36 C23         8.7791  -13.1547   -5.3688 C.ar      1 <0>        -0.0942
     37 C24         8.1319  -14.0263   -4.5124 C.ar      1 <0>        -0.0953
     38 C25         8.5862  -15.3233   -4.3721 C.ar      1 <0>        -0.1400
     39 C26         9.6924  -15.7513   -5.0916 C.ar      1 <0>         0.1037
     40 C27        10.3397  -14.8750   -5.9506 C.ar      1 <0>        -0.1404
     41 C28         9.8784  -13.5805   -6.0913 C.ar      1 <0>        -0.1033
     42 O7         10.1415  -17.0266   -4.9550 O.3       1 <0>        -0.5002
     43 N5          7.8918  -12.0042   -7.9228 N.3       1 <0>        -0.8255
     44 H4          1.0039    1.9031    0.0027 H         1 <0>         0.0490
     45 H5         -0.5459    1.8868   -0.8726 H         1 <0>         0.0520
     46 H6         -0.5289    1.8773    0.9072 H         1 <0>         0.0538
     47 H7          0.5123   -0.3556   -0.8948 H         1 <0>         0.0651
     48 H8          0.7568   -1.6008    1.2356 H         1 <0>         0.0579
     49 H9          1.7647   -0.1336    1.2338 H         1 <0>         0.0467
     50 H10         0.2319   -0.1594    2.1383 H         1 <0>         0.0546
     51 H11        -1.9156   -0.2570    0.9504 H         1 <0>         0.0807
     52 H12        -1.9862   -0.1019   -0.8214 H         1 <0>         0.0611
     53 H13        -0.9356   -1.8035   -2.1738 H         1 <0>         0.3916
     54 H14        -1.5995   -4.7542   -3.7595 H         1 <0>         0.0864
     55 H15        -1.3495   -3.0063   -3.9847 H         1 <0>         0.0914
     56 H16         0.0754   -2.1747   -5.7685 H         1 <0>         0.1162
     57 H17         1.0157   -2.5972   -8.0047 H         1 <0>         0.1146
     58 H18         1.1776   -4.9017   -8.8569 H         1 <0>         0.1130
     59 H19         0.4001   -6.7838   -7.4725 H         1 <0>         0.1117
     60 H20        -0.5324   -6.3619   -5.2329 H         1 <0>         0.1103
     61 H21         0.5090   -5.9859   -2.2229 H         1 <0>         0.4131
     62 H22         2.8314   -7.2656   -2.7045 H         1 <0>         0.1015
     63 H23         1.5926   -7.8473   -3.8427 H         1 <0>         0.1009
     64 H24         3.6034   -6.5210   -5.3172 H         1 <0>         0.4161
     65 H25         4.6706   -8.4255   -6.8972 H         1 <0>         0.1029
     66 H26         5.9094   -7.8438   -5.7591 H         1 <0>         0.1017
     67 H27         5.3741  -10.5561   -5.1819 H         1 <0>         0.4123
     68 H28         9.1183  -11.0848   -5.7617 H         1 <0>         0.0822
     69 H29         7.8235  -11.4147   -4.5857 H         1 <0>         0.0865
     70 H30         7.2708  -13.6926   -3.9525 H         1 <0>         0.1304
     71 H31         8.0808  -16.0035   -3.7025 H         1 <0>         0.1306
     72 H32        11.2012  -15.2058   -6.5118 H         1 <0>         0.1298
     73 H33        10.3793  -12.8992   -6.7631 H         1 <0>         0.1258
     74 H34         9.7431  -17.6525   -5.5751 H         1 <0>         0.3917
     75 H35         8.6314  -11.3498   -8.1298 H         1 <0>         0.3515
     76 H36         8.2370  -12.9523   -7.9242 H         1 <0>         0.3495
@<TRIPOS>BOND
     1    1    2 1
     2    1   44 1
     3    1   45 1
     4    1   46 1
     5    2    3 1
     6    2    4 1
     7    2   47 1
     8    3   48 1
     9    3   49 1
    10    3   50 1
    11    4    5 1
    12    4   51 1
    13    4   52 1
    14    5    6 1
    15    5    7 1
    16    5   10 1
    17    7    8 2
    18    7    9 1
    19   10   11 am
    20   10   53 1
    21   11   12 2
    22   11   13 1
    23   13   14 1
    24   13   15 1
    25   13   22 1
    26   15   16 1
    27   15   54 1
    28   15   55 1
    29   16   21 ar
    30   16   17 ar
    31   17   18 ar
    32   17   56 1
    33   18   19 ar
    34   18   57 1
    35   19   20 ar
    36   19   58 1
    37   20   21 ar
    38   20   59 1
    39   21   60 1
    40   22   23 am
    41   22   61 1
    42   23   24 2
    43   23   25 1
    44   25   26 1
    45   25   62 1
    46   25   63 1
    47   26   27 am
    48   26   64 1
    49   27   28 2
    50   27   29 1
    51   29   30 1
    52   29   65 1
    53   29   66 1
    54   30   31 am
    55   30   67 1
    56   31   32 2
    57   31   33 1
    58   33   34 1
    59   33   35 1
    60   33   43 1
    61   35   36 1
    62   35   68 1
    63   35   69 1
    64   36   41 ar
    65   36   37 ar
    66   37   38 ar
    67   37   70 1
    68   38   39 ar
    69   38   71 1
    70   39   40 ar
    71   39   42 1
    72   40   41 ar
    73   40   72 1
    74   41   73 1
    75   42   74 1
    76   43   75 1
    77   43   76 1
