@<TRIPOS>MOLECULE
ZINC03813088
   58    58     0     0     0
SMALL
USER_CHARGES

@<TRIPOS>ATOM
      1 C1         -0.0187    1.5258    0.0104 C.3       1 <0>        -0.1537
      2 C2          0.0021   -0.0041    0.0020 C.3       1 <0>        -0.1260
      3 C3          0.7182   -0.4975   -1.2568 C.3       1 <0>        -0.1205
      4 C4          0.7390   -2.0273   -1.2652 C.3       1 <0>        -0.1178
      5 C5          1.4551   -2.5207   -2.5240 C.3       1 <0>        -0.1445
      6 C6          1.4758   -4.0506   -2.5324 C.3       1 <0>         0.1347
      7 H1          0.4580   -4.4283   -2.4352 H         1 <0>         0.1081
      8 C7          2.0707   -4.5378   -3.8285 C.2       1 <0>        -0.1841
      9 C8          3.0937   -5.3559   -3.8130 C.2       1 <0>        -0.1390
     10 C9          3.6886   -5.8431   -5.1091 C.3       1 <0>        -0.0471
     11 H2          3.1593   -5.4112   -5.9584 H         1 <0>         0.0970
     12 C10         5.1988   -5.5013   -5.1775 C.3       1 <0>         0.1127
     13 H3          5.6661   -5.6124   -4.1991 H         1 <0>         0.0737
     14 C11         5.7342   -6.5652   -6.1677 C.3       1 <0>        -0.2189
     15 C12         4.9488   -7.8214   -5.8347 C.2       1 <0>         0.3736
     16 O1          5.2904   -8.9585   -6.0554 O.2       1 <0>        -0.4271
     17 C13         3.6544   -7.3841   -5.1758 C.3       1 <0>        -0.1396
     18 H4          3.5903   -7.7992   -4.1699 H         1 <0>         0.1087
     19 C14         2.4572   -7.8449   -6.0095 C.3       1 <0>        -0.1022
     20 C15         2.3621   -9.3713   -5.9651 C.3       1 <0>        -0.1284
     21 C16         1.1649   -9.8322   -6.7989 C.3       1 <0>        -0.1165
     22 C17         1.0698  -11.3586   -6.7545 C.3       1 <0>        -0.1203
     23 C18        -0.1275  -11.8195   -7.5882 C.3       1 <0>        -0.0928
     24 C19        -0.2226  -13.3458   -7.5438 C.3       1 <0>        -0.1840
     25 C20        -1.4018  -13.7998   -8.3650 C.2       1 <0>         0.4875
     26 O2         -2.1013  -12.9786   -8.9332 O.co2     1 <0>        -0.7004
     27 O3         -1.6563  -14.9883   -8.4613 O.co2     1 <0>        -0.7101
     28 O4          5.3985   -4.1812   -5.6868 O.3       1 <0>        -0.5545
     29 O5          2.2655   -4.5223   -1.4388 O.3       1 <0>        -0.5573
     30 H5          1.0039    1.9031    0.0027 H         1 <0>         0.0526
     31 H6         -0.5459    1.8868   -0.8726 H         1 <0>         0.0531
     32 H7         -0.5289    1.8773    0.9072 H         1 <0>         0.0527
     33 H8          0.5293   -0.3651    0.8851 H         1 <0>         0.0606
     34 H9         -1.0205   -0.3814    0.0098 H         1 <0>         0.0609
     35 H10         0.1910   -0.1364   -2.1398 H         1 <0>         0.0602
     36 H11         1.7408   -0.1202   -1.2645 H         1 <0>         0.0595
     37 H12         1.2661   -2.3884   -0.3821 H         1 <0>         0.0678
     38 H13        -0.2836   -2.4046   -1.2575 H         1 <0>         0.0617
     39 H14         0.9279   -2.1597   -3.4071 H         1 <0>         0.0727
     40 H15         2.4777   -2.1435   -2.5317 H         1 <0>         0.0659
     41 H16         1.6537   -4.2124   -4.7701 H         1 <0>         0.1172
     42 H17         3.5108   -5.6813   -2.8714 H         1 <0>         0.1189
     43 H18         5.5434   -6.2584   -7.1961 H         1 <0>         0.1141
     44 H19         6.8001   -6.7297   -6.0101 H         1 <0>         0.0944
     45 H20         1.5432   -7.4120   -5.6031 H         1 <0>         0.0758
     46 H21         2.5861   -7.5188   -7.0416 H         1 <0>         0.0651
     47 H22         3.2761   -9.8043   -6.3716 H         1 <0>         0.0732
     48 H23         2.2333   -9.6975   -4.9331 H         1 <0>         0.0610
     49 H24         0.2509   -9.3992   -6.3924 H         1 <0>         0.0595
     50 H25         1.2937   -9.5061   -7.8309 H         1 <0>         0.0587
     51 H26         1.9838  -11.7916   -7.1609 H         1 <0>         0.0545
     52 H27         0.9409  -11.6847   -5.7224 H         1 <0>         0.0541
     53 H28        -1.0415  -11.3865   -7.1818 H         1 <0>         0.0569
     54 H29         0.0014  -11.4933   -8.6203 H         1 <0>         0.0567
     55 H30         0.6915  -13.7788   -7.9502 H         1 <0>         0.0541
     56 H31        -0.3514  -13.6720   -6.5118 H         1 <0>         0.0541
     57 H32         6.3275   -3.9199   -5.7489 H         1 <0>         0.3805
     58 H33         3.1852   -4.2243   -1.4604 H         1 <0>         0.3726
@<TRIPOS>BOND
     1    1    2 1
     2    1   30 1
     3    1   31 1
     4    1   32 1
     5    2    3 1
     6    2   33 1
     7    2   34 1
     8    3    4 1
     9    3   35 1
    10    3   36 1
    11    4    5 1
    12    4   37 1
    13    4   38 1
    14    5    6 1
    15    5   39 1
    16    5   40 1
    17    6    7 1
    18    6    8 1
    19    6   29 1
    20    8    9 2
    21    8   41 1
    22    9   10 1
    23    9   42 1
    24   10   11 1
    25   10   17 1
    26   10   12 1
    27   12   13 1
    28   12   14 1
    29   12   28 1
    30   14   15 1
    31   14   43 1
    32   14   44 1
    33   15   16 2
    34   15   17 1
    35   17   18 1
    36   17   19 1
    37   19   20 1
    38   19   45 1
    39   19   46 1
    40   20   21 1
    41   20   47 1
    42   20   48 1
    43   21   22 1
    44   21   49 1
    45   21   50 1
    46   22   23 1
    47   22   51 1
    48   22   52 1
    49   23   24 1
    50   23   53 1
    51   23   54 1
    52   24   25 1
    53   24   55 1
    54   24   56 1
    55   25   26 2
    56   25   27 1
    57   28   57 1
    58   29   58 1
@<TRIPOS>MOLECULE
ZINC03830202
   58    58     0     0     0
SMALL
USER_CHARGES
7-[3-hydroxy-2-(3-hydroxyoct-1-enyl)-5-oxo-cyclopentyl]heptanoic acid
@<TRIPOS>ATOM
      1 C1         -1.7110   -9.1359    6.6437 C.3       1 <0>        -0.1537
      2 C2         -1.7227   -7.6077    6.5697 C.3       1 <0>        -0.1260
      3 C3         -1.3547   -7.1628    5.1528 C.3       1 <0>        -0.1205
      4 C4         -1.3664   -5.6347    5.0789 C.3       1 <0>        -0.1174
      5 C5         -0.9984   -5.1898    3.6620 C.3       1 <0>        -0.1471
      6 C6         -1.0100   -3.6617    3.5880 C.3       1 <0>         0.1365
      7 H1         -1.9781   -3.2891    3.9229 H         1 <0>         0.0986
      8 C7         -0.7686   -3.2257    2.1658 C.2       1 <0>        -0.1808
      9 C8         -1.6681   -2.5089    1.5388 C.2       1 <0>        -0.1287
     10 C9         -1.4266   -2.0729    0.1165 C.3       1 <0>        -0.0505
     11 H2         -0.4850   -2.4777   -0.2545 H         1 <0>         0.0991
     12 C10        -2.6029   -2.5086   -0.7937 C.3       1 <0>         0.1103
     13 H3         -3.5538   -2.4167   -0.2688 H         1 <0>         0.0743
     14 C11        -2.5155   -1.4902   -1.9575 C.3       1 <0>        -0.2105
     15 C12        -2.1241   -0.1834   -1.2886 C.2       1 <0>         0.3761
     16 O1         -2.3260    0.9282   -1.7150 O.2       1 <0>        -0.4239
     17 C13        -1.4333   -0.5336    0.0129 C.3       1 <0>        -0.1315
     18 H4         -1.9246   -0.1491    0.7944 H         1 <0>         0.0997
     19 C14         0.0021   -0.0041    0.0020 C.3       1 <0>        -0.1044
     20 C15        -0.0187    1.5258    0.0104 C.3       1 <0>        -0.1292
     21 C16         1.4167    2.0553   -0.0004 C.3       1 <0>        -0.1164
     22 C17         1.3960    3.5852    0.0080 C.3       1 <0>        -0.1196
     23 C18         2.8313    4.1148   -0.0029 C.3       1 <0>        -0.0982
     24 C19         2.8106    5.6446    0.0055 C.3       1 <0>        -0.1583
     25 C20         4.2244    6.1662   -0.0052 C.2       1 <0>         0.4572
     26 O2          5.1533    5.3936   -0.0182 O.co2     1 <0>        -0.6429
     27 O3         -2.4126   -3.8438   -1.2660 O.3       1 <0>        -0.5538
     28 O4          0.0193   -3.1362    4.4285 O.3       1 <0>        -0.5554
     29 H5         -2.4356   -9.5394    5.9364 H         1 <0>         0.0526
     30 H6         -0.7159   -9.5041    6.3942 H         1 <0>         0.0531
     31 H7         -1.9732   -9.4528    7.6531 H         1 <0>         0.0527
     32 H8         -0.9981   -7.2042    7.2769 H         1 <0>         0.0613
     33 H9         -2.7178   -7.2395    6.8192 H         1 <0>         0.0601
     34 H10        -2.0793   -7.5664    4.4456 H         1 <0>         0.0595
     35 H11        -0.3596   -7.5311    4.9033 H         1 <0>         0.0603
     36 H12        -0.6418   -5.2311    5.7861 H         1 <0>         0.0689
     37 H13        -2.3615   -5.2664    5.3283 H         1 <0>         0.0602
     38 H14        -1.7230   -5.5934    2.9547 H         1 <0>         0.0721
     39 H15        -0.0032   -5.5581    3.4125 H         1 <0>         0.0664
     40 H16         0.1460   -3.5042    1.6635 H         1 <0>         0.1138
     41 H17        -2.5827   -2.2304    2.0411 H         1 <0>         0.1127
     42 H18        -1.8330   -1.7989   -2.6200 H         1 <0>         0.1036
     43 H19        -3.4823   -1.3923   -2.4512 H         1 <0>         0.0939
     44 H20         0.5123   -0.3556   -0.8948 H         1 <0>         0.0658
     45 H21         0.5293   -0.3651    0.8851 H         1 <0>         0.0772
     46 H22        -0.5459    1.8868   -0.8726 H         1 <0>         0.0741
     47 H23        -0.5289    1.8773    0.9072 H         1 <0>         0.0616
     48 H24         1.9439    1.6943    0.8826 H         1 <0>         0.0602
     49 H25         1.9269    1.7038   -0.8972 H         1 <0>         0.0590
     50 H26         0.8688    3.9463   -0.8751 H         1 <0>         0.0562
     51 H27         0.8858    3.9367    0.9048 H         1 <0>         0.0559
     52 H28         3.3585    3.7537    0.8802 H         1 <0>         0.0584
     53 H29         3.3415    3.7632   -0.8997 H         1 <0>         0.0580
     54 H30         2.2834    6.0057   -0.8775 H         1 <0>         0.0613
     55 H31         2.3004    5.9961    0.9023 H         1 <0>         0.0613
     56 H32        -3.1224   -4.1628   -1.8400 H         1 <0>         0.3811
     57 H33         0.9098   -3.4267    4.1883 H         1 <0>         0.3755
     58 O5          4.4517    7.4891   -0.0002 O.co2     1 <0>        -0.7801
@<TRIPOS>BOND
     1    1    2 1
     2    1   29 1
     3    1   30 1
     4    1   31 1
     5    2    3 1
     6    2   32 1
     7    2   33 1
     8    3    4 1
     9    3   34 1
    10    3   35 1
    11    4    5 1
    12    4   36 1
    13    4   37 1
    14    5    6 1
    15    5   38 1
    16    5   39 1
    17    6    7 1
    18    6    8 1
    19    6   28 1
    20    8    9 2
    21    8   40 1
    22    9   10 1
    23    9   41 1
    24   10   11 1
    25   10   17 1
    26   10   12 1
    27   12   13 1
    28   12   14 1
    29   12   27 1
    30   14   15 1
    31   14   42 1
    32   14   43 1
    33   15   16 2
    34   15   17 1
    35   17   18 1
    36   17   19 1
    37   19   20 1
    38   19   44 1
    39   19   45 1
    40   20   21 1
    41   20   46 1
    42   20   47 1
    43   21   22 1
    44   21   48 1
    45   21   49 1
    46   22   23 1
    47   22   50 1
    48   22   51 1
    49   23   24 1
    50   23   52 1
    51   23   53 1
    52   24   25 1
    53   24   54 1
    54   24   55 1
    55   25   26 2
    56   25   58 1
    57   27   56 1
    58   28   57 1
@<TRIPOS>MOLECULE
ZINC03830714
   56    56     0     0     0
SMALL
USER_CHARGES
7-[3-hydroxy-2-(3-hydroxyoct-1-enyl)-5-oxo-cyclopentyl]hept-5-enoic acid
@<TRIPOS>ATOM
      1 C1          2.8547   -1.8277   -8.5921 C.3       1 <0>        -0.1534
      2 C2          3.4090   -1.8808   -7.1671 C.3       1 <0>        -0.1261
      3 C3          2.7837   -0.7597   -6.3345 C.3       1 <0>        -0.1203
      4 C4          3.3380   -0.8128   -4.9094 C.3       1 <0>        -0.1175
      5 C5          2.7126    0.3082   -4.0769 C.3       1 <0>        -0.1470
      6 C6          3.2669    0.2551   -2.6518 C.3       1 <0>         0.1363
      7 H1          3.1034   -0.7388   -2.2352 H         1 <0>         0.0978
      8 C7          2.5619    1.2791   -1.8001 C.2       1 <0>        -0.1768
      9 C8          1.8873    0.8996   -0.7433 C.2       1 <0>        -0.1321
     10 C9          1.1823    1.9236    0.1084 C.3       1 <0>        -0.0507
     11 H2          1.3539    2.9273   -0.2805 H         1 <0>         0.0997
     12 C10        -0.3358    1.6198    0.1806 C.3       1 <0>         0.1110
     13 H3         -0.5143    0.5455    0.2281 H         1 <0>         0.0744
     14 C11        -0.7478    2.3058    1.5067 C.3       1 <0>        -0.2111
     15 C12         0.4247    2.0607    2.4399 C.2       1 <0>         0.3788
     16 O1          0.3895    2.0547    3.6470 O.2       1 <0>        -0.4291
     17 C13         1.6463    1.8245    1.5765 C.3       1 <0>        -0.1245
     18 H4          2.0338    0.9178    1.7431 H         1 <0>         0.1005
     19 C14         2.7040    2.8920    1.8638 C.3       1 <0>        -0.0838
     20 C15         3.2375    2.7073    3.2610 C.2       1 <0>        -0.1876
     21 C16         4.5289    2.6208    3.4630 C.2       1 <0>        -0.1311
     22 C17         5.4876    2.8729    2.3279 C.3       1 <0>        -0.1044
     23 C18         6.5021    3.9398    2.7446 C.3       1 <0>        -0.0918
     24 C19         7.4754    4.1957    1.5922 C.3       1 <0>        -0.1570
     25 C20         8.4747    5.2465    2.0026 C.2       1 <0>         0.4572
     26 O2          8.4145    5.7400    3.1038 O.co2     1 <0>        -0.6422
     27 O3         -1.0232    2.1984   -0.9306 O.3       1 <0>        -0.5530
     28 O4          4.6676    0.5374   -2.6747 O.3       1 <0>        -0.5543
     29 H5          1.7725   -1.9549   -8.5660 H         1 <0>         0.0522
     30 H6          3.0966   -0.8640   -9.0404 H         1 <0>         0.0533
     31 H7          3.3002   -2.6263   -9.1853 H         1 <0>         0.0523
     32 H8          4.4913   -1.7536   -7.1932 H         1 <0>         0.0617
     33 H9          3.1672   -2.8445   -6.7188 H         1 <0>         0.0598
     34 H10         1.7015   -0.8870   -6.3084 H         1 <0>         0.0589
     35 H11         3.0255    0.2039   -6.7828 H         1 <0>         0.0606
     36 H12         4.4202   -0.6856   -4.9356 H         1 <0>         0.0697
     37 H13         3.0961   -1.7765   -4.4612 H         1 <0>         0.0596
     38 H14         1.6304    0.1810   -4.0508 H         1 <0>         0.0712
     39 H15         2.9545    1.2719   -4.5251 H         1 <0>         0.0669
     40 H16         2.6129    2.3259   -2.0610 H         1 <0>         0.1146
     41 H17         1.8364   -0.1472   -0.4823 H         1 <0>         0.1124
     42 H18        -0.9086    3.2791    1.3426 H         1 <0>         0.1039
     43 H19        -1.6538    1.8497    1.9058 H         1 <0>         0.0935
     44 H20         3.5203    2.7967    1.1477 H         1 <0>         0.0944
     45 H21         2.2555    3.8813    1.7739 H         1 <0>         0.0706
     46 H22         2.5551    2.6462    4.0959 H         1 <0>         0.1152
     47 H23         4.9066    2.3689    4.4429 H         1 <0>         0.1085
     48 H24         6.0117    1.9491    2.0830 H         1 <0>         0.0671
     49 H25         4.9342    3.2191    1.4550 H         1 <0>         0.0701
     50 H26         5.9780    4.8636    2.9895 H         1 <0>         0.0596
     51 H27         7.0555    3.5936    3.6175 H         1 <0>         0.0601
     52 H28         7.9995    3.2719    1.3473 H         1 <0>         0.0625
     53 H29         6.9220    4.5418    0.7192 H         1 <0>         0.0613
     54 H30        -1.9817    2.0719   -0.9093 H         1 <0>         0.3803
     55 H31         4.8876    1.4078   -3.0342 H         1 <0>         0.3774
     56 O5          9.4315    5.6341    1.1447 O.co2     1 <0>        -0.7793
@<TRIPOS>BOND
     1    1    2 1
     2    1   29 1
     3    1   30 1
     4    1   31 1
     5    2    3 1
     6    2   32 1
     7    2   33 1
     8    3    4 1
     9    3   34 1
    10    3   35 1
    11    4    5 1
    12    4   36 1
    13    4   37 1
    14    5    6 1
    15    5   38 1
    16    5   39 1
    17    6    7 1
    18    6    8 1
    19    6   28 1
    20    8    9 2
    21    8   40 1
    22    9   10 1
    23    9   41 1
    24   10   11 1
    25   10   17 1
    26   10   12 1
    27   12   13 1
    28   12   14 1
    29   12   27 1
    30   14   15 1
    31   14   42 1
    32   14   43 1
    33   15   16 2
    34   15   17 1
    35   17   18 1
    36   17   19 1
    37   19   20 1
    38   19   44 1
    39   19   45 1
    40   20   21 2
    41   20   46 1
    42   21   22 1
    43   21   47 1
    44   22   23 1
    45   22   48 1
    46   22   49 1
    47   23   24 1
    48   23   50 1
    49   23   51 1
    50   24   25 1
    51   24   52 1
    52   24   53 1
    53   25   26 2
    54   25   56 1
    55   27   54 1
    56   28   55 1
