@<TRIPOS>MOLECULE
ZINC13488371
   58    58     0     0     0
SMALL
USER_CHARGES
7-[(2R)-2-[(3R)-3-hydroxyoctyl]-5-oxo-pyrrolidin-1-yl]heptanoic acid
@<TRIPOS>ATOM
      1 C1          3.3475   12.9117    1.2130 C.3       1 <0>        -0.1536
      2 C2          3.6822   11.4578    1.5520 C.3       1 <0>        -0.1265
      3 C3          2.6135   10.5370    0.9595 C.3       1 <0>        -0.1203
      4 C4          2.9482    9.0830    1.2985 C.3       1 <0>        -0.1179
      5 C5          1.8795    8.1623    0.7061 C.3       1 <0>        -0.1511
      6 C6          2.2141    6.7083    1.0451 C.3       1 <0>         0.1049
      7 H1          3.2235    6.4787    0.7037 H         1 <0>         0.0991
      8 C7          1.2167    5.7798    0.3493 C.3       1 <0>        -0.1479
      9 C8          1.6244    4.3242    0.5858 C.3       1 <0>        -0.1240
     10 C9          0.6780    3.3985   -0.1811 C.3       1 <0>         0.1300
     11 H2          0.6342    3.6884   -1.2309 H         1 <0>         0.0799
     12 C10        -0.7339    3.4403    0.4443 C.3       1 <0>        -0.1269
     13 C11        -1.2023    1.9767    0.2598 C.3       1 <0>        -0.1563
     14 C12         0.0841    1.1838    0.1882 C.2       1 <0>         0.5137
     15 O1          0.1679   -0.0182    0.3268 O.2       1 <0>        -0.5322
     16 N1          1.1200    2.0045   -0.0571 N.am      1 <0>        -0.6126
     17 C13         2.5115    1.5642   -0.1839 C.3       1 <0>         0.1210
     18 C14         2.8458    1.3493   -1.6614 C.3       1 <0>        -0.1327
     19 C15         4.2990    0.8894   -1.7938 C.3       1 <0>        -0.1164
     20 C16         4.6334    0.6745   -3.2712 C.3       1 <0>        -0.1177
     21 C17         6.0866    0.2146   -3.4036 C.3       1 <0>        -0.0986
     22 C18         6.4209   -0.0003   -4.8811 C.3       1 <0>        -0.1581
     23 C19         7.8523   -0.4532   -5.0115 C.2       1 <0>         0.4570
     24 O2          8.5350   -0.5901   -4.0241 O.co2     1 <0>        -0.6422
     25 O3          2.1349    6.5185    2.4592 O.3       1 <0>        -0.5586
     26 H3          3.3209   13.0355    0.1304 H         1 <0>         0.0532
     27 H4          2.3745   13.1678    1.6320 H         1 <0>         0.0523
     28 H5          4.1089   13.5677    1.6350 H         1 <0>         0.0530
     29 H6          3.7089   11.3340    2.6346 H         1 <0>         0.0606
     30 H7          4.6553   11.2017    1.1329 H         1 <0>         0.0614
     31 H8          2.5868   10.6608   -0.1231 H         1 <0>         0.0599
     32 H9          1.6404   10.7931    1.3786 H         1 <0>         0.0588
     33 H10         2.9748    8.9592    2.3812 H         1 <0>         0.0677
     34 H11         3.9212    8.8270    0.8795 H         1 <0>         0.0618
     35 H12         1.8528    8.2860   -0.3765 H         1 <0>         0.0713
     36 H13         0.9064    8.4183    1.1252 H         1 <0>         0.0640
     37 H14         1.2132    5.9869   -0.7208 H         1 <0>         0.0747
     38 H15         0.2193    5.9483    0.7553 H         1 <0>         0.0687
     39 H16         1.5683    4.0997    1.6510 H         1 <0>         0.0759
     40 H17         2.6452    4.1713    0.2355 H         1 <0>         0.0720
     41 H18        -0.6852    3.7079    1.4998 H         1 <0>         0.0832
     42 H19        -1.3819    4.1265   -0.1010 H         1 <0>         0.0882
     43 H20        -1.7689    1.8687   -0.6651 H         1 <0>         0.1030
     44 H21        -1.7999    1.6579    1.1138 H         1 <0>         0.0998
     45 H22         3.1726    2.3249    0.2313 H         1 <0>         0.0793
     46 H23         2.6475    0.6289    0.3592 H         1 <0>         0.0840
     47 H24         2.1847    0.5886   -2.0765 H         1 <0>         0.0638
     48 H25         2.7098    2.2845   -2.2044 H         1 <0>         0.0617
     49 H26         4.9601    1.6501   -1.3786 H         1 <0>         0.0625
     50 H27         4.4351   -0.0458   -1.2507 H         1 <0>         0.0637
     51 H28         3.9723   -0.0862   -3.6864 H         1 <0>         0.0562
     52 H29         4.4973    1.6097   -3.8143 H         1 <0>         0.0555
     53 H30         6.7477    0.9753   -2.9885 H         1 <0>         0.0589
     54 H31         6.2226   -0.7206   -2.8606 H         1 <0>         0.0594
     55 H32         5.7598   -0.7610   -5.2963 H         1 <0>         0.0613
     56 H33         6.2849    0.9350   -5.4242 H         1 <0>         0.0609
     57 H34         1.2628    6.7052    2.8329 H         1 <0>         0.3711
     58 O4          8.3688   -0.7046   -6.2247 O.co2     1 <0>        -0.7800
@<TRIPOS>BOND
     1    1    2 1
     2    1   26 1
     3    1   27 1
     4    1   28 1
     5    2    3 1
     6    2   29 1
     7    2   30 1
     8    3    4 1
     9    3   31 1
    10    3   32 1
    11    4    5 1
    12    4   33 1
    13    4   34 1
    14    5    6 1
    15    5   35 1
    16    5   36 1
    17    6    7 1
    18    6    8 1
    19    6   25 1
    20    8    9 1
    21    8   37 1
    22    8   38 1
    23    9   10 1
    24    9   39 1
    25    9   40 1
    26   10   11 1
    27   10   16 1
    28   10   12 1
    29   12   13 1
    30   12   41 1
    31   12   42 1
    32   13   14 1
    33   13   43 1
    34   13   44 1
    35   14   15 2
    36   14   16 am
    37   16   17 1
    38   17   18 1
    39   17   45 1
    40   17   46 1
    41   18   19 1
    42   18   47 1
    43   18   48 1
    44   19   20 1
    45   19   49 1
    46   19   50 1
    47   20   21 1
    48   20   51 1
    49   20   52 1
    50   21   22 1
    51   21   53 1
    52   21   54 1
    53   22   23 1
    54   22   55 1
    55   22   56 1
    56   23   24 2
    57   23   58 1
    58   25   57 1
@<TRIPOS>MOLECULE
ZINC13488372
   58    58     0     0     0
SMALL
USER_CHARGES
7-[(2R)-2-[(3S)-3-hydroxyoctyl]-5-oxo-pyrrolidin-1-yl]heptanoic acid
@<TRIPOS>ATOM
      1 C1         -4.5904   -8.4583    2.2855 C.3       1 <0>        -0.1532
      2 C2         -4.6441   -6.9326    2.3867 C.3       1 <0>        -0.1271
      3 C3         -3.4759   -6.3282    1.6051 C.3       1 <0>        -0.1195
      4 C4         -3.5295   -4.8025    1.7063 C.3       1 <0>        -0.1187
      5 C5         -2.3613   -4.1981    0.9247 C.3       1 <0>        -0.1503
      6 C6         -2.4150   -2.6724    1.0259 C.3       1 <0>         0.1046
      7 H1         -2.4342   -2.3783    2.0753 H         1 <0>         0.0980
      8 C7         -1.1799   -2.0727    0.3508 C.3       1 <0>        -0.1477
      9 C8         -1.1697   -0.5571    0.5599 C.3       1 <0>        -0.1255
     10 C9          0.0268    0.0510   -0.1746 C.3       1 <0>         0.1315
     11 H2          0.0307   -0.2657   -1.2176 H         1 <0>         0.0786
     12 C10         1.3451   -0.3646    0.5152 C.3       1 <0>        -0.1281
     13 C11         2.2074    0.9068    0.3393 C.3       1 <0>        -0.1565
     14 C12         1.1970    2.0232    0.1934 C.2       1 <0>         0.5133
     15 O1          1.4447    3.2044    0.3130 O.2       1 <0>        -0.5307
     16 N1         -0.0153    1.5155   -0.0886 N.am      1 <0>        -0.6136
     17 C13        -1.2222    2.3210   -0.2904 C.3       1 <0>         0.1258
     18 C14        -1.8631    2.6277    1.0646 C.3       1 <0>        -0.1349
     19 C15        -3.1236    3.4690    0.8539 C.3       1 <0>        -0.1153
     20 C16        -3.7645    3.7757    2.2089 C.3       1 <0>        -0.1174
     21 C17        -5.0249    4.6169    1.9982 C.3       1 <0>        -0.0981
     22 C18        -5.6658    4.9236    3.3532 C.3       1 <0>        -0.1581
     23 C19        -6.9074    5.7522    3.1457 C.2       1 <0>         0.4573
     24 O2         -7.2450    6.0653    2.0286 O.co2     1 <0>        -0.6426
     25 O3         -3.5935   -2.1930    0.3752 O.3       1 <0>        -0.5556
     26 H3         -4.6607   -8.7557    1.2393 H         1 <0>         0.0525
     27 H4         -3.6496   -8.8172    2.7029 H         1 <0>         0.0522
     28 H5         -5.4227   -8.8888    2.8424 H         1 <0>         0.0531
     29 H6         -4.5738   -6.6351    3.4330 H         1 <0>         0.0611
     30 H7         -5.5849   -6.5736    1.9694 H         1 <0>         0.0618
     31 H8         -3.5462   -6.6256    0.5588 H         1 <0>         0.0590
     32 H9         -2.5351   -6.6871    2.0224 H         1 <0>         0.0586
     33 H10        -3.4592   -4.5050    2.7526 H         1 <0>         0.0613
     34 H11        -4.4703   -4.4435    1.2890 H         1 <0>         0.0694
     35 H12        -2.4317   -4.4955   -0.1216 H         1 <0>         0.0639
     36 H13        -1.4206   -4.5570    1.3420 H         1 <0>         0.0695
     37 H14        -1.2068   -2.2920   -0.7166 H         1 <0>         0.0669
     38 H15        -0.2804   -2.5059    0.7881 H         1 <0>         0.0737
     39 H16        -1.0920   -0.3378    1.6248 H         1 <0>         0.0708
     40 H17        -2.0924   -0.1299    0.1673 H         1 <0>         0.0807
     41 H18         1.1814   -0.5819    1.5707 H         1 <0>         0.0836
     42 H19         1.7986   -1.2167    0.0088 H         1 <0>         0.0883
     43 H20         2.8312    1.0693    1.2182 H         1 <0>         0.1002
     44 H21         2.8226    0.8295   -0.5572 H         1 <0>         0.1018
     45 H22        -0.9572    3.2546   -0.7866 H         1 <0>         0.0789
     46 H23        -1.9287    1.7682   -0.9096 H         1 <0>         0.0795
     47 H24        -2.1281    1.6941    1.5609 H         1 <0>         0.0655
     48 H25        -1.1567    3.1805    1.6839 H         1 <0>         0.0639
     49 H26        -2.8586    4.4026    0.3577 H         1 <0>         0.0623
     50 H27        -3.8300    2.9162    0.2347 H         1 <0>         0.0625
     51 H28        -4.0295    2.8421    2.7052 H         1 <0>         0.0559
     52 H29        -3.0580    4.3285    2.8282 H         1 <0>         0.0556
     53 H30        -4.7599    5.5505    1.5020 H         1 <0>         0.0587
     54 H31        -5.7314    4.0641    1.3790 H         1 <0>         0.0590
     55 H32        -5.9308    3.9900    3.8495 H         1 <0>         0.0611
     56 H33        -4.9594    5.4765    3.9725 H         1 <0>         0.0610
     57 H34        -3.6438   -2.4186   -0.5637 H         1 <0>         0.3717
     58 O4         -7.6381    6.1425    4.2018 O.co2     1 <0>        -0.7802
@<TRIPOS>BOND
     1    1    2 1
     2    1   26 1
     3    1   27 1
     4    1   28 1
     5    2    3 1
     6    2   29 1
     7    2   30 1
     8    3    4 1
     9    3   31 1
    10    3   32 1
    11    4    5 1
    12    4   33 1
    13    4   34 1
    14    5    6 1
    15    5   35 1
    16    5   36 1
    17    6    7 1
    18    6    8 1
    19    6   25 1
    20    8    9 1
    21    8   37 1
    22    8   38 1
    23    9   10 1
    24    9   39 1
    25    9   40 1
    26   10   11 1
    27   10   16 1
    28   10   12 1
    29   12   13 1
    30   12   41 1
    31   12   42 1
    32   13   14 1
    33   13   43 1
    34   13   44 1
    35   14   15 2
    36   14   16 am
    37   16   17 1
    38   17   18 1
    39   17   45 1
    40   17   46 1
    41   18   19 1
    42   18   47 1
    43   18   48 1
    44   19   20 1
    45   19   49 1
    46   19   50 1
    47   20   21 1
    48   20   51 1
    49   20   52 1
    50   21   22 1
    51   21   53 1
    52   21   54 1
    53   22   23 1
    54   22   55 1
    55   22   56 1
    56   23   24 2
    57   23   58 1
    58   25   57 1
@<TRIPOS>MOLECULE
ZINC13488373
   58    58     0     0     0
SMALL
USER_CHARGES
7-[(2S)-2-[(3R)-3-hydroxyoctyl]-5-oxo-pyrrolidin-1-yl]heptanoic acid
@<TRIPOS>ATOM
      1 C1          3.6195   -3.7442    6.3296 C.3       1 <0>        -0.1536
      2 C2          2.9949   -3.3947    4.9773 C.3       1 <0>        -0.1264
      3 C3          2.9402   -1.8740    4.8186 C.3       1 <0>        -0.1204
      4 C4          2.3156   -1.5245    3.4663 C.3       1 <0>        -0.1178
      5 C5          2.2609   -0.0037    3.3076 C.3       1 <0>        -0.1513
      6 C6          1.6363    0.3458    1.9553 C.3       1 <0>         0.1055
      7 H1          2.1883   -0.1547    1.1598 H         1 <0>         0.0966
      8 C7          1.6950    1.8597    1.7424 C.3       1 <0>        -0.1481
      9 C8          1.1852    2.1977    0.3400 C.3       1 <0>        -0.1254
     10 C9          1.1545    3.7169    0.1609 C.3       1 <0>         0.1307
     11 H2          0.5854    4.1798    0.9671 H         1 <0>         0.0799
     12 C10         2.5924    4.2804    0.1271 C.3       1 <0>        -0.1276
     13 C11         2.4566    5.4299   -0.8982 C.3       1 <0>        -0.1564
     14 C12         1.2754    5.0268   -1.7531 C.2       1 <0>         0.5135
     15 O1          1.0065    5.5034   -2.8355 O.2       1 <0>        -0.5323
     16 N1          0.5675    4.0633   -1.1389 N.am      1 <0>        -0.6125
     17 C13        -0.6351    3.4388   -1.6956 C.3       1 <0>         0.1208
     18 C14        -1.8768    4.1461   -1.1488 C.3       1 <0>        -0.1320
     19 C15        -3.1328    3.4939   -1.7302 C.3       1 <0>        -0.1163
     20 C16        -4.3744    4.2012   -1.1834 C.3       1 <0>        -0.1175
     21 C17        -5.6304    3.5489   -1.7648 C.3       1 <0>        -0.0986
     22 C18        -6.8720    4.2563   -1.2180 C.3       1 <0>        -0.1580
     23 C19        -8.1091    3.6138   -1.7907 C.2       1 <0>         0.4570
     24 O2         -8.0081    2.6855   -2.5574 O.co2     1 <0>        -0.6421
     25 O3          0.2741   -0.0857    1.9341 O.3       1 <0>        -0.5582
     26 H3          4.6295   -3.3372    6.3793 H         1 <0>         0.0523
     27 H4          3.0157   -3.3168    7.1301 H         1 <0>         0.0532
     28 H5          3.6585   -4.8276    6.4427 H         1 <0>         0.0529
     29 H6          1.9849   -3.8017    4.9276 H         1 <0>         0.0616
     30 H7          3.5987   -3.8221    4.1768 H         1 <0>         0.0602
     31 H8          3.9502   -1.4670    4.8683 H         1 <0>         0.0588
     32 H9          2.3364   -1.4465    5.6191 H         1 <0>         0.0600
     33 H10         1.3056   -1.9315    3.4166 H         1 <0>         0.0692
     34 H11         2.9194   -1.9519    2.6658 H         1 <0>         0.0600
     35 H12         3.2709    0.4033    3.3573 H         1 <0>         0.0697
     36 H13         1.6571    0.4237    4.1081 H         1 <0>         0.0653
     37 H14         1.0704    2.3557    2.4854 H         1 <0>         0.0688
     38 H15         2.7247    2.2016    1.8469 H         1 <0>         0.0740
     39 H16         1.8492    1.7575   -0.4039 H         1 <0>         0.0685
     40 H17         0.1798    1.7964    0.2124 H         1 <0>         0.0806
     41 H18         2.8848    4.6625    1.1051 H         1 <0>         0.0888
     42 H19         3.2984    3.5271   -0.2227 H         1 <0>         0.0828
     43 H20         3.3582    5.5079   -1.5056 H         1 <0>         0.0999
     44 H21         2.2553    6.3728   -0.3897 H         1 <0>         0.1028
     45 H22        -0.6182    3.5225   -2.7822 H         1 <0>         0.0836
     46 H23        -0.6623    2.3865   -1.4126 H         1 <0>         0.0804
     47 H24        -1.8937    4.0623   -0.0622 H         1 <0>         0.0617
     48 H25        -1.8496    5.1984   -1.4317 H         1 <0>         0.0632
     49 H26        -3.1158    3.5776   -2.8168 H         1 <0>         0.0634
     50 H27        -3.1599    2.4416   -1.4472 H         1 <0>         0.0632
     51 H28        -4.3913    4.1174   -0.0968 H         1 <0>         0.0555
     52 H29        -4.3473    5.2534   -1.4664 H         1 <0>         0.0559
     53 H30        -5.6135    3.6327   -2.8515 H         1 <0>         0.0592
     54 H31        -5.6575    2.4967   -1.4819 H         1 <0>         0.0592
     55 H32        -6.8889    4.1725   -0.1314 H         1 <0>         0.0609
     56 H33        -6.8449    5.3085   -1.5010 H         1 <0>         0.0611
     57 H34        -0.2777    0.3201    2.6167 H         1 <0>         0.3744
     58 O4         -9.3233    4.0729   -1.4489 O.co2     1 <0>        -0.7802
@<TRIPOS>BOND
     1    1    2 1
     2    1   26 1
     3    1   27 1
     4    1   28 1
     5    2    3 1
     6    2   29 1
     7    2   30 1
     8    3    4 1
     9    3   31 1
    10    3   32 1
    11    4    5 1
    12    4   33 1
    13    4   34 1
    14    5    6 1
    15    5   35 1
    16    5   36 1
    17    6    7 1
    18    6    8 1
    19    6   25 1
    20    8    9 1
    21    8   37 1
    22    8   38 1
    23    9   10 1
    24    9   39 1
    25    9   40 1
    26   10   11 1
    27   10   16 1
    28   10   12 1
    29   12   13 1
    30   12   41 1
    31   12   42 1
    32   13   14 1
    33   13   43 1
    34   13   44 1
    35   14   15 2
    36   14   16 am
    37   16   17 1
    38   17   18 1
    39   17   45 1
    40   17   46 1
    41   18   19 1
    42   18   47 1
    43   18   48 1
    44   19   20 1
    45   19   49 1
    46   19   50 1
    47   20   21 1
    48   20   51 1
    49   20   52 1
    50   21   22 1
    51   21   53 1
    52   21   54 1
    53   22   23 1
    54   22   55 1
    55   22   56 1
    56   23   24 2
    57   23   58 1
    58   25   57 1
@<TRIPOS>MOLECULE
ZINC13488374
   58    58     0     0     0
SMALL
USER_CHARGES
7-[(2S)-2-[(3S)-3-hydroxyoctyl]-5-oxo-pyrrolidin-1-yl]heptanoic acid
@<TRIPOS>ATOM
      1 C1         -6.8479    2.2273   -7.3653 C.3       1 <0>        -0.1544
      2 C2         -5.5713    1.4425   -7.0566 C.3       1 <0>        -0.1247
      3 C3         -5.2129    1.6125   -5.5789 C.3       1 <0>        -0.1225
      4 C4         -3.9362    0.8278   -5.2702 C.3       1 <0>        -0.1150
      5 C5         -3.5778    0.9978   -3.7926 C.3       1 <0>        -0.1539
      6 C6         -2.3012    0.2130   -3.4839 C.3       1 <0>         0.1074
      7 H1         -1.5083    0.5276   -4.1625 H         1 <0>         0.0958
      8 C7         -1.8734    0.4826   -2.0399 C.3       1 <0>        -0.1599
      9 C8         -0.5318   -0.2014   -1.7693 C.3       1 <0>        -0.1239
     10 C9         -0.1715   -0.0502   -0.2900 C.3       1 <0>         0.1291
     11 H2         -0.9678   -0.4527    0.3360 H         1 <0>         0.0873
     12 C10         1.1615   -0.7702    0.0118 C.3       1 <0>        -0.1277
     13 C11         2.1840    0.3784   -0.1500 C.3       1 <0>        -0.1556
     14 C12         1.3786    1.6318    0.1129 C.2       1 <0>         0.5140
     15 O1          1.8503    2.7217    0.3590 O.2       1 <0>        -0.5312
     16 N1          0.0642    1.3618    0.0335 N.am      1 <0>        -0.6111
     17 C13        -0.9967    2.3513    0.2376 C.3       1 <0>         0.1180
     18 C14        -1.2936    2.4796    1.7331 C.3       1 <0>        -0.1341
     19 C15        -2.4016    3.5130    1.9462 C.3       1 <0>        -0.1154
     20 C16        -2.6985    3.6412    3.4416 C.3       1 <0>        -0.1180
     21 C17        -3.8064    4.6746    3.6548 C.3       1 <0>        -0.0982
     22 C18        -4.1034    4.8029    5.1502 C.3       1 <0>        -0.1583
     23 C19        -5.1947    5.8207    5.3602 C.2       1 <0>         0.4571
     24 O2         -5.6847    6.3856    4.4111 O.co2     1 <0>        -0.6426
     25 O3         -2.5478   -1.1841   -3.6548 O.3       1 <0>        -0.5611
     26 H3         -7.1033    2.1062   -8.4180 H         1 <0>         0.0523
     27 H4         -7.6638    1.8513   -6.7479 H         1 <0>         0.0536
     28 H5         -6.6862    3.2835   -7.1498 H         1 <0>         0.0539
     29 H6         -4.7555    1.8185   -7.6739 H         1 <0>         0.0595
     30 H7         -5.7330    0.3864   -7.2720 H         1 <0>         0.0598
     31 H8         -6.0287    1.2365   -4.9616 H         1 <0>         0.0609
     32 H9         -5.0512    2.6687   -5.3635 H         1 <0>         0.0610
     33 H10        -3.1204    1.2038   -5.8876 H         1 <0>         0.0591
     34 H11        -4.0979   -0.2284   -5.4857 H         1 <0>         0.0669
     35 H12        -4.3936    0.6218   -3.1752 H         1 <0>         0.0663
     36 H13        -3.4161    2.0540   -3.5771 H         1 <0>         0.0718
     37 H14        -2.6266    0.0876   -1.3581 H         1 <0>         0.0684
     38 H15        -1.7713    1.5567   -1.8856 H         1 <0>         0.0788
     39 H16         0.2422    0.2621   -2.3810 H         1 <0>         0.0657
     40 H17        -0.6067   -1.2598   -2.0186 H         1 <0>         0.0836
     41 H18         1.1720   -1.1613    1.0292 H         1 <0>         0.0829
     42 H19         1.3487   -1.5638   -0.7115 H         1 <0>         0.0911
     43 H20         2.9867    0.2804    0.5809 H         1 <0>         0.1000
     44 H21         2.5879    0.3898   -1.1623 H         1 <0>         0.1016
     45 H22        -0.6734    3.3163   -0.1527 H         1 <0>         0.0784
     46 H23        -1.8977    2.0311   -0.2855 H         1 <0>         0.0859
     47 H24        -1.6168    1.5146    2.1234 H         1 <0>         0.0617
     48 H25        -0.3926    2.7998    2.2563 H         1 <0>         0.0653
     49 H26        -2.0783    4.4780    1.5559 H         1 <0>         0.0632
     50 H27        -3.3026    3.1928    1.4230 H         1 <0>         0.0615
     51 H28        -3.0217    2.6762    3.8320 H         1 <0>         0.0556
     52 H29        -1.7975    3.9614    3.9648 H         1 <0>         0.0566
     53 H30        -3.4832    5.6396    3.2645 H         1 <0>         0.0592
     54 H31        -4.7075    4.3544    3.1316 H         1 <0>         0.0585
     55 H32        -4.4266    3.8379    5.5405 H         1 <0>         0.0610
     56 H33        -3.2023    5.1231    5.6734 H         1 <0>         0.0615
     57 H34        -3.2434   -1.5337   -3.0812 H         1 <0>         0.3730
     58 O4         -5.6224    6.0998    6.6015 O.co2     1 <0>        -0.7796
@<TRIPOS>BOND
     1    1    2 1
     2    1   26 1
     3    1   27 1
     4    1   28 1
     5    2    3 1
     6    2   29 1
     7    2   30 1
     8    3    4 1
     9    3   31 1
    10    3   32 1
    11    4    5 1
    12    4   33 1
    13    4   34 1
    14    5    6 1
    15    5   35 1
    16    5   36 1
    17    6    7 1
    18    6    8 1
    19    6   25 1
    20    8    9 1
    21    8   37 1
    22    8   38 1
    23    9   10 1
    24    9   39 1
    25    9   40 1
    26   10   11 1
    27   10   16 1
    28   10   12 1
    29   12   13 1
    30   12   41 1
    31   12   42 1
    32   13   14 1
    33   13   43 1
    34   13   44 1
    35   14   15 2
    36   14   16 am
    37   16   17 1
    38   17   18 1
    39   17   45 1
    40   17   46 1
    41   18   19 1
    42   18   47 1
    43   18   48 1
    44   19   20 1
    45   19   49 1
    46   19   50 1
    47   20   21 1
    48   20   51 1
    49   20   52 1
    50   21   22 1
    51   21   53 1
    52   21   54 1
    53   22   23 1
    54   22   55 1
    55   22   56 1
    56   23   24 2
    57   23   58 1
    58   25   57 1
@<TRIPOS>MOLECULE
ZINC13488403
   56    58     0     0     0
SMALL
USER_CHARGES

@<TRIPOS>ATOM
      1 C1         -0.0167    1.3781    0.0096 C.ar      1 <0>        -0.1244
      2 C2          1.1709    2.0855    0.0021 C.ar      1 <0>        -0.1206
      3 C3          2.3773    1.4107   -0.0130 C.ar      1 <0>        -0.1054
      4 C4          2.3960    0.0285   -0.0201 C.ar      1 <0>        -0.0789
      5 C5          1.2084   -0.6789   -0.0117 C.ar      1 <0>        -0.1180
      6 C6          0.0021   -0.0041    0.0020 C.ar      1 <0>        -0.1185
      7 C7          3.7112   -0.7071   -0.0376 C.3       1 <0>        -0.1073
      8 C8          4.1714   -0.9633    1.3989 C.3       1 <0>         0.1405
      9 H1          3.3868   -1.4885    1.9436 H         1 <0>         0.1123
     10 C9          5.4216   -1.8045    1.3834 C.2       1 <0>        -0.1723
     11 C10         6.5000   -1.3865    1.9985 C.2       1 <0>        -0.1578
     12 C11         7.7503   -2.2277    1.9830 C.3       1 <0>         0.1608
     13 H2          7.6132   -3.0944    1.3363 H         1 <0>         0.0828
     14 C12         8.9542   -1.3873    1.5025 C.3       1 <0>        -0.1235
     15 C13        10.1029   -1.9606    2.3643 C.3       1 <0>        -0.1561
     16 C14         9.4066   -2.5226    3.5841 C.2       1 <0>         0.5138
     17 O1          9.9557   -2.8102    4.6266 O.2       1 <0>        -0.5288
     18 N1          8.0895   -2.6585    3.3443 N.am      1 <0>        -0.6099
     19 C15         7.1189   -3.1685    4.3159 C.3       1 <0>         0.1248
     20 C16         7.0052   -4.6876    4.1738 C.3       1 <0>        -0.1319
     21 C17         5.9915   -5.2203    5.1885 C.3       1 <0>        -0.1164
     22 C18         5.8778   -6.7394    5.0464 C.3       1 <0>        -0.1143
     23 C19         4.8641   -7.2721    6.0611 C.3       1 <0>        -0.1077
     24 C20         4.7504   -8.7913    5.9190 C.3       1 <0>         0.0001
     25 C21         3.7519   -9.3159    6.9185 C.2       1 <0>         0.0529
     26 N2          2.4490   -9.4659    6.7295 N.2       1 <0>        -0.3912
     27 N3          1.9492   -9.9402    7.8193 N.2       1 <0>        -0.2020
     28 N4          2.8927  -10.0918    8.6822 N.2       1 <0>        -0.2016
     29 N5          4.0088   -9.7215    8.1535 N.2       1 <0>        -0.3905
     30 O2          4.4442    0.2837    2.0412 O.3       1 <0>        -0.5502
     31 H3         -0.9591    1.9053    0.0259 H         1 <0>         0.1197
     32 H4          1.1563    3.1654    0.0076 H         1 <0>         0.1198
     33 H5          3.3051    1.9634   -0.0196 H         1 <0>         0.1182
     34 H6          1.2231   -1.7588   -0.0176 H         1 <0>         0.1217
     35 H7         -0.9258   -0.5567    0.0082 H         1 <0>         0.1217
     36 H8          3.5884   -1.6586   -0.5549 H         1 <0>         0.0851
     37 H9          4.4573   -0.1052   -0.5563 H         1 <0>         0.0769
     38 H10         5.4285   -2.7521    0.8652 H         1 <0>         0.1209
     39 H11         6.4931   -0.4389    2.5166 H         1 <0>         0.1238
     40 H12         9.1443   -1.5493    0.4415 H         1 <0>         0.0909
     41 H13         8.7997   -0.3289    1.7124 H         1 <0>         0.0845
     42 H14        10.6261   -2.7507    1.8258 H         1 <0>         0.1042
     43 H15        10.7959   -1.1696    2.6512 H         1 <0>         0.1016
     44 H16         7.4505   -2.9217    5.3245 H         1 <0>         0.0811
     45 H17         6.1462   -2.7125    4.1315 H         1 <0>         0.0803
     46 H18         6.6736   -4.9344    3.1652 H         1 <0>         0.0614
     47 H19         7.9779   -5.1436    4.3583 H         1 <0>         0.0648
     48 H20         6.3231   -4.9735    6.1971 H         1 <0>         0.0636
     49 H21         5.0188   -4.7643    5.0041 H         1 <0>         0.0624
     50 H22         5.5462   -6.9862    4.0378 H         1 <0>         0.0590
     51 H23         6.8505   -7.1955    5.2309 H         1 <0>         0.0601
     52 H24         5.1957   -7.0254    7.0697 H         1 <0>         0.0597
     53 H25         3.8914   -6.8161    5.8767 H         1 <0>         0.0592
     54 H26         4.4188   -9.0380    4.9104 H         1 <0>         0.0633
     55 H27         5.7230   -9.2473    6.1035 H         1 <0>         0.0638
     56 H28         5.1342    0.8059    1.6094 H         1 <0>         0.3712
@<TRIPOS>BOND
     1    1    6 ar
     2    1    2 ar
     3    1   31 1
     4    2    3 ar
     5    2   32 1
     6    3    4 ar
     7    3   33 1
     8    4    5 ar
     9    4    7 1
    10    5    6 ar
    11    5   34 1
    12    6   35 1
    13    7    8 1
    14    7   36 1
    15    7   37 1
    16    8    9 1
    17    8   10 1
    18    8   30 1
    19   10   11 2
    20   10   38 1
    21   11   12 1
    22   11   39 1
    23   12   13 1
    24   12   18 1
    25   12   14 1
    26   14   15 1
    27   14   40 1
    28   14   41 1
    29   15   16 1
    30   15   42 1
    31   15   43 1
    32   16   17 2
    33   16   18 am
    34   18   19 1
    35   19   20 1
    36   19   44 1
    37   19   45 1
    38   20   21 1
    39   20   46 1
    40   20   47 1
    41   21   22 1
    42   21   48 1
    43   21   49 1
    44   22   23 1
    45   22   50 1
    46   22   51 1
    47   23   24 1
    48   23   52 1
    49   23   53 1
    50   24   54 1
    51   24   55 1
    52   24   25 1
    53   25   26 2
    54   25   29 1
    55   26   27 1
    56   27   28 2
    57   28   29 1
    58   30   56 1
@<TRIPOS>MOLECULE
ZINC13488403
   57    59     0     0     0
SMALL
USER_CHARGES

@<TRIPOS>ATOM
      1 C1         -0.0167    1.3781    0.0096 C.ar      1 <0>        -0.1231
      2 C2          1.1709    2.0855    0.0021 C.ar      1 <0>        -0.1192
      3 C3          2.3773    1.4107   -0.0130 C.ar      1 <0>        -0.1048
      4 C4          2.3960    0.0285   -0.0201 C.ar      1 <0>        -0.0803
      5 C5          1.2084   -0.6789   -0.0117 C.ar      1 <0>        -0.1192
      6 C6          0.0021   -0.0041    0.0020 C.ar      1 <0>        -0.1190
      7 C7          3.7112   -0.7071   -0.0376 C.3       1 <0>        -0.1075
      8 C8          4.1714   -0.9633    1.3989 C.3       1 <0>         0.1411
      9 H1          3.3868   -1.4885    1.9436 H         1 <0>         0.1107
     10 C9          5.4216   -1.8045    1.3834 C.2       1 <0>        -0.1725
     11 C10         6.5000   -1.3865    1.9985 C.2       1 <0>        -0.1583
     12 C11         7.7503   -2.2277    1.9830 C.3       1 <0>         0.1616
     13 H2          7.6132   -3.0944    1.3363 H         1 <0>         0.0829
     14 C12         8.9542   -1.3873    1.5025 C.3       1 <0>        -0.1245
     15 C13        10.1029   -1.9606    2.3643 C.3       1 <0>        -0.1568
     16 C14         9.4066   -2.5226    3.5841 C.2       1 <0>         0.5155
     17 O1          9.9557   -2.8102    4.6266 O.2       1 <0>        -0.5289
     18 N1          8.0895   -2.6585    3.3443 N.am      1 <0>        -0.6114
     19 C15         7.1189   -3.1685    4.3159 C.3       1 <0>         0.1252
     20 C16         7.0052   -4.6876    4.1738 C.3       1 <0>        -0.1336
     21 C17         5.9915   -5.2203    5.1885 C.3       1 <0>        -0.1172
     22 C18         5.8778   -6.7394    5.0464 C.3       1 <0>        -0.1162
     23 C19         4.8641   -7.2721    6.0611 C.3       1 <0>        -0.1147
     24 C20         4.7504   -8.7913    5.9190 C.3       1 <0>        -0.0245
     25 C21         3.7519   -9.3159    6.9185 C.2       1 <0>         0.1754
     26 N2          4.0054   -9.7065    8.1434 N.2       1 <0>        -0.3004
     27 N3          2.8949  -10.0852    8.6766 N.pl3     1 <0>        -0.2302
     28 N4          1.9453   -9.9435    7.8183 N.2       1 <0>        -0.0508
     29 N5          2.4411   -9.4660    6.7273 N.2       1 <0>        -0.2765
     30 O2          4.4442    0.2837    2.0412 O.3       1 <0>        -0.5508
     31 H3         -0.9591    1.9053    0.0259 H         1 <0>         0.1207
     32 H4          1.1563    3.1654    0.0076 H         1 <0>         0.1210
     33 H5          3.3051    1.9634   -0.0196 H         1 <0>         0.1187
     34 H6          1.2231   -1.7588   -0.0176 H         1 <0>         0.1203
     35 H7         -0.9258   -0.5567    0.0082 H         1 <0>         0.1214
     36 H8          3.5884   -1.6586   -0.5549 H         1 <0>         0.0845
     37 H9          4.4573   -0.1052   -0.5563 H         1 <0>         0.0777
     38 H10         5.4285   -2.7521    0.8652 H         1 <0>         0.1201
     39 H11         6.4931   -0.4389    2.5166 H         1 <0>         0.1244
     40 H12         9.1443   -1.5493    0.4415 H         1 <0>         0.0925
     41 H13         8.7997   -0.3289    1.7124 H         1 <0>         0.0857
     42 H14        10.6261   -2.7507    1.8258 H         1 <0>         0.1052
     43 H15        10.7959   -1.1696    2.6512 H         1 <0>         0.1035
     44 H16         7.4505   -2.9217    5.3245 H         1 <0>         0.0805
     45 H17         6.1462   -2.7125    4.1315 H         1 <0>         0.0806
     46 H18         6.6736   -4.9344    3.1652 H         1 <0>         0.0636
     47 H19         7.9779   -5.1436    4.3583 H         1 <0>         0.0663
     48 H20         6.3231   -4.9735    6.1971 H         1 <0>         0.0650
     49 H21         5.0188   -4.7643    5.0041 H         1 <0>         0.0648
     50 H22         5.5462   -6.9862    4.0378 H         1 <0>         0.0665
     51 H23         6.8505   -7.1955    5.2309 H         1 <0>         0.0664
     52 H24         5.1957   -7.0254    7.0697 H         1 <0>         0.0674
     53 H25         3.8914   -6.8161    5.8767 H         1 <0>         0.0694
     54 H26         4.4188   -9.0380    4.9104 H         1 <0>         0.0986
     55 H27         5.7230   -9.2473    6.1035 H         1 <0>         0.0952
     56 H28         5.1342    0.8059    1.6094 H         1 <0>         0.3730
     57 H29         2.7910  -10.4229    9.5800 H         1 <0>         0.4750
@<TRIPOS>BOND
     1    1    6 ar
     2    1    2 ar
     3    1   31 1
     4    2    3 ar
     5    2   32 1
     6    3    4 ar
     7    3   33 1
     8    4    5 ar
     9    4    7 1
    10    5    6 ar
    11    5   34 1
    12    6   35 1
    13    7    8 1
    14    7   36 1
    15    7   37 1
    16    8    9 1
    17    8   10 1
    18    8   30 1
    19   10   11 2
    20   10   38 1
    21   11   12 1
    22   11   39 1
    23   12   13 1
    24   12   18 1
    25   12   14 1
    26   14   15 1
    27   14   40 1
    28   14   41 1
    29   15   16 1
    30   15   42 1
    31   15   43 1
    32   16   17 2
    33   16   18 am
    34   18   19 1
    35   19   20 1
    36   19   44 1
    37   19   45 1
    38   20   21 1
    39   20   46 1
    40   20   47 1
    41   21   22 1
    42   21   48 1
    43   21   49 1
    44   22   23 1
    45   22   50 1
    46   22   51 1
    47   23   24 1
    48   23   52 1
    49   23   53 1
    50   24   25 1
    51   24   54 1
    52   24   55 1
    53   25   29 1
    54   25   26 2
    55   26   27 1
    56   27   28 1
    57   27   57 1
    58   28   29 2
    59   30   56 1
@<TRIPOS>MOLECULE
ZINC36349281
   55    58     0     0     0
SMALL
USER_CHARGES

@<TRIPOS>ATOM
      1 C1          2.7139    1.0714    0.0295 C.3       1 <0>         0.0242
      2 O1          2.4907   -0.3393    0.0780 O.3       1 <0>        -0.2854
      3 C2          3.2246   -1.1095   -0.7679 C.ar      1 <0>         0.2436
      4 C3          4.1446   -0.5199   -1.6229 C.ar      1 <0>        -0.2292
      5 C4          4.8893   -1.3044   -2.4817 C.ar      1 <0>        -0.0114
      6 C5          4.7183   -2.6774   -2.4899 C.ar      1 <0>        -0.1553
      7 C6          3.8013   -3.2672   -1.6386 C.ar      1 <0>         0.0396
      8 C7          3.0588   -2.4866   -0.7736 C.ar      1 <0>        -0.6632
      9 S1          1.8970   -3.2393    0.3165 S.o2      1 <0>         2.6556
     10 O2          0.6818   -2.5159    0.1773 O.2       1 <0>        -0.9917
     11 O3          1.9793   -4.6403    0.0934 O.2       1 <0>        -1.0058
     12 N1          2.4316   -2.9738    1.8611 N.2       1 <0>        -1.0484
     13 C8          1.7496   -3.4304    2.8748 C.2       1 <0>         0.5048
     14 O4          0.6049   -4.1212    2.6643 O.3       1 <0>        -0.7151
     15 C9          2.2235   -3.1951    4.2437 C.2       1 <0>        -0.0912
     16 C10         1.5198   -3.6662    5.2897 C.2       1 <0>        -0.1003
     17 C11         1.9953   -3.4300    6.6635 C.ar      1 <0>        -0.0357
     18 C12         3.1366   -2.6543    6.8883 C.ar      1 <0>        -0.1123
     19 C13         3.5754   -2.4373    8.1773 C.ar      1 <0>        -0.1217
     20 C14         2.8891   -2.9851    9.2472 C.ar      1 <0>        -0.1264
     21 C15         1.7588   -3.7539    9.0327 C.ar      1 <0>        -0.1149
     22 C16         1.3046   -3.9755    7.7493 C.ar      1 <0>        -0.0673
     23 C17         0.0698   -4.8078    7.5181 C.3       1 <0>        -0.0501
     24 C18         0.4683   -6.2402    7.2723 C.ar      1 <0>        -0.0613
     25 C19         0.5879   -6.7046    5.9637 C.ar      1 <0>        -0.1027
     26 C20         0.9454   -7.9924    5.7070 C.ar      1 <0>        -0.1034
     27 C21         1.1991   -8.8697    6.7752 C.ar      1 <0>        -0.0536
     28 C22         1.5711  -10.2061    6.5496 C.ar      1 <0>        -0.1013
     29 C23         1.8092  -11.0267    7.6089 C.ar      1 <0>        -0.1261
     30 C24         1.6899  -10.5622    8.9175 C.ar      1 <0>        -0.1227
     31 C25         1.3319   -9.2746    9.1741 C.ar      1 <0>        -0.1075
     32 C26         1.0779   -8.3974    8.1059 C.ar      1 <0>        -0.0501
     33 C27         0.7114   -7.0595    8.3315 C.ar      1 <0>        -0.1096
     34 Br1         5.7392   -3.7491   -3.6668 Br        1 <0>        -0.0539
     35 H1          3.7557    1.2829    0.2701 H         1 <0>         0.0594
     36 H2          2.4900    1.4404   -0.9714 H         1 <0>         0.0574
     37 H3          2.0661    1.5667    0.7528 H         1 <0>         0.1066
     38 H4          4.2781    0.5518   -1.6170 H         1 <0>         0.1420
     39 H5          5.6052   -0.8458   -3.1476 H         1 <0>         0.1376
     40 H6          3.6691   -4.3391   -1.6468 H         1 <0>         0.1551
     41 H7          3.1369   -2.6438    4.4117 H         1 <0>         0.1218
     42 H8          0.6064   -4.2174    5.1216 H         1 <0>         0.1362
     43 H9          3.6733   -2.2265    6.0544 H         1 <0>         0.1290
     44 H10         4.4570   -1.8386    8.3525 H         1 <0>         0.1193
     45 H11         3.2378   -2.8119   10.2546 H         1 <0>         0.1170
     46 H12         1.2288   -4.1784    9.8725 H         1 <0>         0.1185
     47 H13        -0.5735   -4.7553    8.3965 H         1 <0>         0.0824
     48 H14        -0.4683   -4.4264    6.6503 H         1 <0>         0.0916
     49 H15         0.3935   -6.0325    5.1409 H         1 <0>         0.1385
     50 H16         1.0335   -8.3385    4.6877 H         1 <0>         0.1296
     51 H17         1.6670  -10.5799    5.5410 H         1 <0>         0.1256
     52 H18         2.0945  -12.0533    7.4327 H         1 <0>         0.1187
     53 H19         1.8842  -11.2344    9.7403 H         1 <0>         0.1180
     54 H20         1.2431   -8.9287   10.1934 H         1 <0>         0.1225
     55 H21         0.6194   -6.6846    9.3401 H         1 <0>         0.1228
@<TRIPOS>BOND
     1    1    2 1
     2    1   35 1
     3    1   36 1
     4    1   37 1
     5    2    3 1
     6    3    8 ar
     7    3    4 ar
     8    4    5 ar
     9    4   38 1
    10    5    6 ar
    11    5   39 1
    12    6    7 ar
    13    6   34 1
    14    7    8 ar
    15    7   40 1
    16    8    9 1
    17    9   10 2
    18    9   11 2
    19    9   12 1
    20   12   13 2
    21   13   14 1
    22   13   15 1
    23   15   16 2
    24   15   41 1
    25   16   17 1
    26   16   42 1
    27   17   22 ar
    28   17   18 ar
    29   18   19 ar
    30   18   43 1
    31   19   20 ar
    32   19   44 1
    33   20   21 ar
    34   20   45 1
    35   21   22 ar
    36   21   46 1
    37   22   23 1
    38   23   24 1
    39   23   47 1
    40   23   48 1
    41   24   33 ar
    42   24   25 ar
    43   25   26 ar
    44   25   49 1
    45   26   27 ar
    46   26   50 1
    47   27   32 ar
    48   27   28 ar
    49   28   29 ar
    50   28   51 1
    51   29   30 ar
    52   29   52 1
    53   30   31 ar
    54   30   53 1
    55   31   32 ar
    56   31   54 1
    57   32   33 ar
    58   33   55 1
@<TRIPOS>MOLECULE
ZINC03830713
   56    56     0     0     0
SMALL
USER_CHARGES

@<TRIPOS>ATOM
      1 C1          1.1435    1.5780    0.1841 C.3       1 <0>        -0.1534
      2 C2          1.1566    0.0481    0.1856 C.3       1 <0>        -0.1262
      3 C3          1.6249   -0.4592   -1.1798 C.3       1 <0>        -0.1204
      4 C4          1.6381   -1.9892   -1.1783 C.3       1 <0>        -0.1181
      5 C5          2.1064   -2.4965   -2.5437 C.3       1 <0>        -0.1441
      6 C6          2.1195   -4.0264   -2.5422 C.3       1 <0>         0.1339
      7 H1          1.1360   -4.3979   -2.2545 H         1 <0>         0.1099
      8 C7          2.4618   -4.5271   -3.9218 C.2       1 <0>        -0.1807
      9 C8          3.4668   -5.3505   -4.0891 C.2       1 <0>        -0.1418
     10 C9          3.8091   -5.8513   -5.4686 C.3       1 <0>        -0.0473
     11 H2          3.1330   -5.4234   -6.2088 H         1 <0>         0.0978
     12 C10         5.2816   -5.5181   -5.8190 C.3       1 <0>         0.1132
     13 H3          5.9219   -5.6238   -4.9433 H         1 <0>         0.0737
     14 C11         5.6200   -6.5928   -6.8819 C.3       1 <0>        -0.2190
     15 C12         4.9054   -7.8420   -6.3978 C.2       1 <0>         0.3763
     16 O1          5.1958   -8.9826   -6.6680 O.2       1 <0>        -0.4319
     17 C13         3.7574   -7.3925   -5.5141 C.3       1 <0>        -0.1326
     18 H4          3.8794   -7.7992   -4.5102 H         1 <0>         0.1096
     19 C14         2.4245   -7.8537   -6.1072 C.3       1 <0>        -0.0812
     20 C15         2.3350   -9.3562   -6.0335 C.2       1 <0>        -0.1876
     21 C16         1.2888   -9.9240   -5.4864 C.2       1 <0>        -0.1312
     22 C17         0.1019   -9.0874   -5.0835 C.3       1 <0>        -0.1053
     23 C18        -1.1656   -9.6598   -5.7213 C.3       1 <0>        -0.0865
     24 C19        -2.3706   -8.8104   -5.3122 C.3       1 <0>        -0.1829
     25 C20        -3.6190   -9.3742   -5.9404 C.2       1 <0>         0.4875
     26 O2         -3.5513  -10.3637   -6.6495 O.co2     1 <0>        -0.6993
     27 O3         -4.6968   -8.8408   -5.7395 O.co2     1 <0>        -0.7094
     28 O4          5.3883   -4.2031   -6.3682 O.3       1 <0>        -0.5536
     29 O5          3.0966   -4.4935   -1.6099 O.3       1 <0>        -0.5569
     30 H5          2.1483    1.9498   -0.0165 H         1 <0>         0.0521
     31 H6          0.4630    1.9348   -0.5890 H         1 <0>         0.0533
     32 H7          0.8099    1.9395    1.1568 H         1 <0>         0.0523
     33 H8          1.8372   -0.3087    0.9587 H         1 <0>         0.0602
     34 H9          0.1518   -0.3237    0.3862 H         1 <0>         0.0615
     35 H10         0.9444   -0.1024   -1.9529 H         1 <0>         0.0606
     36 H11         2.6297   -0.0874   -1.3804 H         1 <0>         0.0589
     37 H12         2.3186   -2.3459   -0.4052 H         1 <0>         0.0674
     38 H13         0.6333   -2.3609   -0.9777 H         1 <0>         0.0627
     39 H14         1.4258   -2.1397   -3.3168 H         1 <0>         0.0733
     40 H15         3.1112   -2.1247   -2.7443 H         1 <0>         0.0652
     41 H16         1.8785   -4.2072   -4.7725 H         1 <0>         0.1180
     42 H17         4.0501   -5.6705   -3.2383 H         1 <0>         0.1187
     43 H18         5.2429   -6.2932   -7.8597 H         1 <0>         0.1142
     44 H19         6.6961   -6.7616   -6.9233 H         1 <0>         0.0938
     45 H20         1.6034   -7.4127   -5.5421 H         1 <0>         0.0927
     46 H21         2.3609   -7.5366   -7.1481 H         1 <0>         0.0696
     47 H22         3.1333   -9.9650   -6.4317 H         1 <0>         0.1146
     48 H23         1.2770  -10.9917   -5.3242 H         1 <0>         0.1080
     49 H24         0.0002   -9.0999   -3.9984 H         1 <0>         0.0647
     50 H25         0.2482   -8.0620   -5.4230 H         1 <0>         0.0685
     51 H26        -1.0638   -9.6473   -6.8065 H         1 <0>         0.0585
     52 H27        -1.3118  -10.6852   -5.3819 H         1 <0>         0.0589
     53 H28        -2.4724   -8.8229   -4.2271 H         1 <0>         0.0550
     54 H29        -2.2243   -7.7850   -5.6517 H         1 <0>         0.0541
     55 H30         6.2905   -3.9473   -6.6039 H         1 <0>         0.3797
     56 H31         3.9974   -4.2006   -1.8044 H         1 <0>         0.3713
@<TRIPOS>BOND
     1    1    2 1
     2    1   30 1
     3    1   31 1
     4    1   32 1
     5    2    3 1
     6    2   33 1
     7    2   34 1
     8    3    4 1
     9    3   35 1
    10    3   36 1
    11    4    5 1
    12    4   37 1
    13    4   38 1
    14    5    6 1
    15    5   39 1
    16    5   40 1
    17    6    7 1
    18    6    8 1
    19    6   29 1
    20    8    9 2
    21    8   41 1
    22    9   10 1
    23    9   42 1
    24   10   11 1
    25   10   17 1
    26   10   12 1
    27   12   13 1
    28   12   14 1
    29   12   28 1
    30   14   15 1
    31   14   43 1
    32   14   44 1
    33   15   16 2
    34   15   17 1
    35   17   18 1
    36   17   19 1
    37   19   20 1
    38   19   45 1
    39   19   46 1
    40   20   21 2
    41   20   47 1
    42   21   22 1
    43   21   48 1
    44   22   23 1
    45   22   49 1
    46   22   50 1
    47   23   24 1
    48   23   51 1
    49   23   52 1
    50   24   25 1
    51   24   53 1
    52   24   54 1
    53   25   26 2
    54   25   27 1
    55   28   55 1
    56   29   56 1
@<TRIPOS>MOLECULE
ZINC03830709
   58    58     0     0     0
SMALL
USER_CHARGES

@<TRIPOS>ATOM
      1 C1          1.1636    1.5627    0.2135 C.3       1 <0>        -0.1533
      2 C2          1.1751    0.0327    0.2109 C.3       1 <0>        -0.1261
      3 C3          1.6404   -0.4714   -1.1567 C.3       1 <0>        -0.1204
      4 C4          1.6520   -2.0014   -1.1593 C.3       1 <0>        -0.1179
      5 C5          2.1173   -2.5055   -2.5269 C.3       1 <0>        -0.1440
      6 C6          2.1288   -4.0355   -2.5295 C.3       1 <0>         0.1348
      7 H1          1.1454   -4.4067   -2.2410 H         1 <0>         0.1090
      8 C7          2.4682   -4.5329   -3.9110 C.2       1 <0>        -0.1863
      9 C8          3.4720   -5.3569   -4.0822 C.2       1 <0>        -0.1385
     10 C9          3.8114   -5.8543   -5.4637 C.3       1 <0>        -0.0503
     11 H2          3.1338   -5.4230   -6.2006 H         1 <0>         0.0902
     12 C10         5.2813   -5.5162   -5.8157 C.3       1 <0>         0.1088
     13 H3          5.9248   -5.6371   -4.9443 H         1 <0>         0.0655
     14 C11         5.6234   -6.5673   -6.9008 C.3       1 <0>        -0.1921
     15 C12         4.9078   -7.8485   -6.4253 C.3       1 <0>         0.1074
     16 H4          5.6010   -8.4783   -5.8675 H         1 <0>         0.0585
     17 C13         3.7522   -7.3950   -5.5125 C.3       1 <0>        -0.0685
     18 H5          3.8845   -7.8056   -4.5115 H         1 <0>         0.0838
     19 C14         2.4118   -7.8499   -6.0933 C.3       1 <0>        -0.0766
     20 C15         2.3173   -9.3523   -6.0218 C.2       1 <0>        -0.1574
     21 C16         1.2737   -9.9173   -5.4672 C.2       1 <0>        -0.1538
     22 C17         0.0924   -9.0774   -5.0547 C.3       1 <0>        -0.1023
     23 C18        -1.1818   -9.6464   -5.6820 C.3       1 <0>        -0.0856
     24 C19        -2.3812   -8.7937   -5.2632 C.3       1 <0>        -0.1830
     25 C20        -3.6362   -9.3541   -5.8811 C.2       1 <0>         0.4878
     26 O1         -3.5770  -10.3438   -6.5906 O.co2     1 <0>        -0.6996
     27 O2         -4.7109   -8.8178   -5.6714 O.co2     1 <0>        -0.7102
     28 O3          4.3904   -8.5656   -7.5478 O.3       1 <0>        -0.5476
     29 O4          5.3847   -4.1905   -6.3391 O.3       1 <0>        -0.5585
     30 O5          3.1071   -4.5061   -1.6002 O.3       1 <0>        -0.5572
     31 H6          2.1684    1.9340    0.0121 H         1 <0>         0.0520
     32 H7          0.4820    1.9222   -0.5575 H         1 <0>         0.0533
     33 H8          0.8320    1.9219    1.1878 H         1 <0>         0.0523
     34 H9          1.8566   -0.3268    0.9818 H         1 <0>         0.0601
     35 H10         0.1702   -0.3385    0.4123 H         1 <0>         0.0615
     36 H11         0.9589   -0.1119   -1.9276 H         1 <0>         0.0605
     37 H12         2.6453   -0.1002   -1.3581 H         1 <0>         0.0587
     38 H13         2.3335   -2.3609   -0.3884 H         1 <0>         0.0672
     39 H14         0.6471   -2.3726   -0.9579 H         1 <0>         0.0627
     40 H15         1.4358   -2.1460   -3.2978 H         1 <0>         0.0730
     41 H16         3.1222   -2.1343   -2.7283 H         1 <0>         0.0646
     42 H17         1.8837   -4.2100   -4.7599 H         1 <0>         0.1163
     43 H18         4.0565   -5.6797   -3.2334 H         1 <0>         0.1162
     44 H19         5.2386   -6.2531   -7.8710 H         1 <0>         0.0867
     45 H20         6.7004   -6.7279   -6.9503 H         1 <0>         0.0680
     46 H21         1.5980   -7.4070   -5.5192 H         1 <0>         0.0742
     47 H22         2.3390   -7.5303   -7.1328 H         1 <0>         0.0734
     48 H23         3.1100   -9.9631   -6.4279 H         1 <0>         0.1121
     49 H24         1.2598  -10.9850   -5.3055 H         1 <0>         0.1026
     50 H25        -0.0006   -9.0895   -3.9687 H         1 <0>         0.0601
     51 H26         0.2387   -8.0524   -5.3954 H         1 <0>         0.0680
     52 H27        -1.0889   -9.6342   -6.7679 H         1 <0>         0.0579
     53 H28        -1.3281  -10.6714   -5.3413 H         1 <0>         0.0571
     54 H29        -2.4741   -8.8058   -4.1772 H         1 <0>         0.0542
     55 H30        -2.2349   -7.7687   -5.6039 H         1 <0>         0.0537
     56 H31         5.0674   -8.8602   -8.1724 H         1 <0>         0.3704
     57 H32         6.2856   -3.9301   -6.5753 H         1 <0>         0.3758
     58 H33         4.0079   -4.2136   -1.7955 H         1 <0>         0.3707
@<TRIPOS>BOND
     1    1    2 1
     2    1   31 1
     3    1   32 1
     4    1   33 1
     5    2    3 1
     6    2   34 1
     7    2   35 1
     8    3    4 1
     9    3   36 1
    10    3   37 1
    11    4    5 1
    12    4   38 1
    13    4   39 1
    14    5    6 1
    15    5   40 1
    16    5   41 1
    17    6    7 1
    18    6    8 1
    19    6   30 1
    20    8    9 2
    21    8   42 1
    22    9   10 1
    23    9   43 1
    24   10   11 1
    25   10   17 1
    26   10   12 1
    27   12   13 1
    28   12   14 1
    29   12   29 1
    30   14   15 1
    31   14   44 1
    32   14   45 1
    33   15   16 1
    34   15   17 1
    35   15   28 1
    36   17   18 1
    37   17   19 1
    38   19   20 1
    39   19   46 1
    40   19   47 1
    41   20   21 2
    42   20   48 1
    43   21   22 1
    44   21   49 1
    45   22   23 1
    46   22   50 1
    47   22   51 1
    48   23   24 1
    49   23   52 1
    50   23   53 1
    51   24   25 1
    52   24   54 1
    53   24   55 1
    54   25   26 2
    55   25   27 1
    56   28   56 1
    57   29   57 1
    58   30   58 1
