@<TRIPOS>MOLECULE
ZINC26171993
   69    70     0     0     0
SMALL
USER_CHARGES
methyl 7-[(1R,2R,3R)-3-hydroxy-2-[(E,4S)-4-hydroxy-4-(1-propylcyclobutyl)but-1-enyl]-5-oxo-cyclopentyl]heptanoate
@<TRIPOS>ATOM
      1 C1          4.2717   -1.5736   -2.6049 C.3       1 <0>        -0.1571
      2 C2          3.5319   -0.2345   -2.6234 C.3       1 <0>        -0.1324
      3 C3          2.6929   -0.0977   -1.3513 C.3       1 <0>        -0.0925
      4 C4          2.0324    1.2821   -1.3219 C.3       1 <0>        -0.0950
      5 C5          2.9735    2.4265   -1.7335 C.3       1 <0>        -0.1432
      6 C6          2.5141    2.1788   -3.1800 C.3       1 <0>        -0.1302
      7 C7          1.2180    1.6023   -2.5864 C.3       1 <0>        -0.1102
      8 C8          1.2742    1.5501   -0.0203 C.3       1 <0>         0.1385
      9 H1          0.9554    2.6008    0.0464 H         1 <0>         0.0480
     10 C9          2.1517    1.1600    1.1708 C.3       1 <0>        -0.1237
     11 C10         1.4642    1.5556    2.4521 C.2       1 <0>        -0.1508
     12 C11         1.2511    0.6604    3.3845 C.2       1 <0>        -0.1524
     13 C12         0.5636    1.0559    4.6658 C.3       1 <0>        -0.0423
     14 H2          0.3796    2.1360    4.5681 H         1 <0>         0.0994
     15 C13        -0.7252    0.2203    4.8728 C.3       1 <0>         0.1241
     16 H3         -0.7197   -0.7861    4.4288 H         1 <0>         0.0742
     17 C14        -0.9130    0.2768    6.4092 C.3       1 <0>        -0.2177
     18 C15         0.4975    0.1996    6.9660 C.2       1 <0>         0.3788
     19 O1          0.8121   -0.1827    8.0674 O.2       1 <0>        -0.4321
     20 C16         1.4367    0.6912    5.8844 C.3       1 <0>        -0.1376
     21 H4          2.1752   -0.0859    5.6382 H         1 <0>         0.1101
     22 C17         2.1953    1.9269    6.3727 C.3       1 <0>        -0.1053
     23 C18         3.1499    1.5271    7.4995 C.3       1 <0>        -0.1309
     24 C19         3.9085    2.7628    7.9878 C.3       1 <0>        -0.1185
     25 C20         4.8631    2.3629    9.1147 C.3       1 <0>        -0.1202
     26 C21         5.6217    3.5986    9.6030 C.3       1 <0>        -0.1108
     27 C22         6.5763    3.1988   10.7298 C.3       1 <0>        -0.1165
     28 C23         7.3235    4.4159   11.2108 C.2       1 <0>         0.4581
     29 O2          7.1141    5.4926   10.7042 O.2       1 <0>        -0.5079
     30 O3          8.2217    4.3038   12.2019 O.3       1 <0>        -0.3619
     31 C24         8.9038    5.5176   12.6139 C.3       1 <0>         0.0310
     32 O4         -1.8344    0.8225    4.2027 O.3       1 <0>        -0.5992
     33 O5          0.0730    0.7763   -0.0007 O.3       1 <0>        -0.5939
     34 H5          4.8749   -1.6719   -3.5195 H         1 <0>         0.0538
     35 H6          3.5418   -2.3951   -2.5570 H         1 <0>         0.0531
     36 H7          4.9303   -1.6165   -1.7249 H         1 <0>         0.0519
     37 H8          4.2618    0.5870   -2.6713 H         1 <0>         0.0682
     38 H9          2.8733   -0.1916   -3.5034 H         1 <0>         0.0689
     39 H10         1.9161   -0.8764   -1.3389 H         1 <0>         0.0680
     40 H11         3.3414   -0.2127   -0.4702 H         1 <0>         0.0632
     41 H12         2.6685    3.3529   -1.2249 H         1 <0>         0.0760
     42 H13         4.0051    2.1737   -1.4474 H         1 <0>         0.0669
     43 H14         2.4770    3.1354   -3.7218 H         1 <0>         0.0648
     44 H15         3.2232    1.5020   -3.6791 H         1 <0>         0.1011
     45 H16         0.8051    0.6713   -3.0021 H         1 <0>         0.0683
     46 H17         0.3952    2.2856   -2.3294 H         1 <0>         0.0810
     47 H18         2.3168    0.0725    1.1639 H         1 <0>         0.0778
     48 H19         3.1193    1.6782    1.0987 H         1 <0>         0.0783
     49 H20         1.1413    2.5960    2.6045 H         1 <0>         0.1104
     50 H21         1.5740   -0.3800    3.2321 H         1 <0>         0.1103
     51 H22        -1.4119    1.2181    6.6832 H         1 <0>         0.1166
     52 H23        -1.5302   -0.5735    6.7347 H         1 <0>         0.0951
     53 H24         2.7709    2.3567    5.5397 H         1 <0>         0.0762
     54 H25         1.4788    2.6730    6.7466 H         1 <0>         0.0658
     55 H26         2.5742    1.0973    8.3325 H         1 <0>         0.0775
     56 H27         3.8665    0.7810    7.1256 H         1 <0>         0.0634
     57 H28         4.4842    3.1925    7.1548 H         1 <0>         0.0627
     58 H29         3.1919    3.5090    8.3617 H         1 <0>         0.0624
     59 H30         4.2874    1.9331    9.9477 H         1 <0>         0.0662
     60 H31         5.5796    1.6167    8.7408 H         1 <0>         0.0654
     61 H32         6.1973    4.0284    8.7700 H         1 <0>         0.0722
     62 H33         4.9052    4.3447    9.9769 H         1 <0>         0.0722
     63 H34         6.0006    2.7690   11.5628 H         1 <0>         0.1077
     64 H35         7.2929    2.4527   10.3559 H         1 <0>         0.1075
     65 H36         9.6067    5.2851   13.4275 H         1 <0>         0.1038
     66 H37         8.1646    6.2519   12.9666 H         1 <0>         0.0642
     67 H38         9.4568    5.9354   11.7597 H         1 <0>         0.0642
     68 H39        -2.8275    0.3520    4.2509 H         1 <0>         0.4122
     69 H40        -0.6069    0.8379    0.8618 H         1 <0>         0.4030
@<TRIPOS>BOND
     1    1    2 1
     2    1   34 1
     3    1   35 1
     4    1   36 1
     5    2    3 1
     6    2   37 1
     7    2   38 1
     8    3    4 1
     9    3   39 1
    10    3   40 1
    11    4    7 1
    12    4    5 1
    13    4    8 1
    14    5    6 1
    15    5   41 1
    16    5   42 1
    17    6    7 1
    18    6   43 1
    19    6   44 1
    20    7   45 1
    21    7   46 1
    22    8    9 1
    23    8   10 1
    24    8   33 1
    25   10   11 1
    26   10   47 1
    27   10   48 1
    28   11   12 2
    29   11   49 1
    30   12   13 1
    31   12   50 1
    32   13   14 1
    33   13   20 1
    34   13   15 1
    35   15   16 1
    36   15   17 1
    37   15   32 1
    38   17   18 1
    39   17   51 1
    40   17   52 1
    41   18   19 2
    42   18   20 1
    43   20   21 1
    44   20   22 1
    45   22   23 1
    46   22   53 1
    47   22   54 1
    48   23   24 1
    49   23   55 1
    50   23   56 1
    51   24   25 1
    52   24   57 1
    53   24   58 1
    54   25   26 1
    55   25   59 1
    56   25   60 1
    57   26   27 1
    58   26   61 1
    59   26   62 1
    60   27   28 1
    61   27   63 1
    62   27   64 1
    63   28   29 2
    64   28   30 1
    65   30   31 1
    66   31   65 1
    67   31   66 1
    68   31   67 1
    69   32   68 1
    70   33   69 1
@<TRIPOS>MOLECULE
ZINC03813088
   58    58     0     0     0
SMALL
USER_CHARGES

@<TRIPOS>ATOM
      1 C1         -0.0187    1.5258    0.0104 C.3       1 <0>        -0.1537
      2 C2          0.0021   -0.0041    0.0020 C.3       1 <0>        -0.1260
      3 C3          0.7182   -0.4975   -1.2568 C.3       1 <0>        -0.1205
      4 C4          0.7390   -2.0273   -1.2652 C.3       1 <0>        -0.1178
      5 C5          1.4551   -2.5207   -2.5240 C.3       1 <0>        -0.1445
      6 C6          1.4758   -4.0506   -2.5324 C.3       1 <0>         0.1347
      7 H1          0.4580   -4.4283   -2.4352 H         1 <0>         0.1081
      8 C7          2.0707   -4.5378   -3.8285 C.2       1 <0>        -0.1841
      9 C8          3.0937   -5.3559   -3.8130 C.2       1 <0>        -0.1390
     10 C9          3.6886   -5.8431   -5.1091 C.3       1 <0>        -0.0471
     11 H2          3.1593   -5.4112   -5.9584 H         1 <0>         0.0970
     12 C10         5.1988   -5.5013   -5.1775 C.3       1 <0>         0.1127
     13 H3          5.6661   -5.6124   -4.1991 H         1 <0>         0.0737
     14 C11         5.7342   -6.5652   -6.1677 C.3       1 <0>        -0.2189
     15 C12         4.9488   -7.8214   -5.8347 C.2       1 <0>         0.3736
     16 O1          5.2904   -8.9585   -6.0554 O.2       1 <0>        -0.4271
     17 C13         3.6544   -7.3841   -5.1758 C.3       1 <0>        -0.1396
     18 H4          3.5903   -7.7992   -4.1699 H         1 <0>         0.1087
     19 C14         2.4572   -7.8449   -6.0095 C.3       1 <0>        -0.1022
     20 C15         2.3621   -9.3713   -5.9651 C.3       1 <0>        -0.1284
     21 C16         1.1649   -9.8322   -6.7989 C.3       1 <0>        -0.1165
     22 C17         1.0698  -11.3586   -6.7545 C.3       1 <0>        -0.1203
     23 C18        -0.1275  -11.8195   -7.5882 C.3       1 <0>        -0.0928
     24 C19        -0.2226  -13.3458   -7.5438 C.3       1 <0>        -0.1840
     25 C20        -1.4018  -13.7998   -8.3650 C.2       1 <0>         0.4875
     26 O2         -2.1013  -12.9786   -8.9332 O.co2     1 <0>        -0.7004
     27 O3         -1.6563  -14.9883   -8.4613 O.co2     1 <0>        -0.7101
     28 O4          5.3985   -4.1812   -5.6868 O.3       1 <0>        -0.5545
     29 O5          2.2655   -4.5223   -1.4388 O.3       1 <0>        -0.5573
     30 H5          1.0039    1.9031    0.0027 H         1 <0>         0.0526
     31 H6         -0.5459    1.8868   -0.8726 H         1 <0>         0.0531
     32 H7         -0.5289    1.8773    0.9072 H         1 <0>         0.0527
     33 H8          0.5293   -0.3651    0.8851 H         1 <0>         0.0606
     34 H9         -1.0205   -0.3814    0.0098 H         1 <0>         0.0609
     35 H10         0.1910   -0.1364   -2.1398 H         1 <0>         0.0602
     36 H11         1.7408   -0.1202   -1.2645 H         1 <0>         0.0595
     37 H12         1.2661   -2.3884   -0.3821 H         1 <0>         0.0678
     38 H13        -0.2836   -2.4046   -1.2575 H         1 <0>         0.0617
     39 H14         0.9279   -2.1597   -3.4071 H         1 <0>         0.0727
     40 H15         2.4777   -2.1435   -2.5317 H         1 <0>         0.0659
     41 H16         1.6537   -4.2124   -4.7701 H         1 <0>         0.1172
     42 H17         3.5108   -5.6813   -2.8714 H         1 <0>         0.1189
     43 H18         5.5434   -6.2584   -7.1961 H         1 <0>         0.1141
     44 H19         6.8001   -6.7297   -6.0101 H         1 <0>         0.0944
     45 H20         1.5432   -7.4120   -5.6031 H         1 <0>         0.0758
     46 H21         2.5861   -7.5188   -7.0416 H         1 <0>         0.0651
     47 H22         3.2761   -9.8043   -6.3716 H         1 <0>         0.0732
     48 H23         2.2333   -9.6975   -4.9331 H         1 <0>         0.0610
     49 H24         0.2509   -9.3992   -6.3924 H         1 <0>         0.0595
     50 H25         1.2937   -9.5061   -7.8309 H         1 <0>         0.0587
     51 H26         1.9838  -11.7916   -7.1609 H         1 <0>         0.0545
     52 H27         0.9409  -11.6847   -5.7224 H         1 <0>         0.0541
     53 H28        -1.0415  -11.3865   -7.1818 H         1 <0>         0.0569
     54 H29         0.0014  -11.4933   -8.6203 H         1 <0>         0.0567
     55 H30         0.6915  -13.7788   -7.9502 H         1 <0>         0.0541
     56 H31        -0.3514  -13.6720   -6.5118 H         1 <0>         0.0541
     57 H32         6.3275   -3.9199   -5.7489 H         1 <0>         0.3805
     58 H33         3.1852   -4.2243   -1.4604 H         1 <0>         0.3726
@<TRIPOS>BOND
     1    1    2 1
     2    1   30 1
     3    1   31 1
     4    1   32 1
     5    2    3 1
     6    2   33 1
     7    2   34 1
     8    3    4 1
     9    3   35 1
    10    3   36 1
    11    4    5 1
    12    4   37 1
    13    4   38 1
    14    5    6 1
    15    5   39 1
    16    5   40 1
    17    6    7 1
    18    6    8 1
    19    6   29 1
    20    8    9 2
    21    8   41 1
    22    9   10 1
    23    9   42 1
    24   10   11 1
    25   10   17 1
    26   10   12 1
    27   12   13 1
    28   12   14 1
    29   12   28 1
    30   14   15 1
    31   14   43 1
    32   14   44 1
    33   15   16 2
    34   15   17 1
    35   17   18 1
    36   17   19 1
    37   19   20 1
    38   19   45 1
    39   19   46 1
    40   20   21 1
    41   20   47 1
    42   20   48 1
    43   21   22 1
    44   21   49 1
    45   21   50 1
    46   22   23 1
    47   22   51 1
    48   22   52 1
    49   23   24 1
    50   23   53 1
    51   23   54 1
    52   24   25 1
    53   24   55 1
    54   24   56 1
    55   25   26 2
    56   25   27 1
    57   28   57 1
    58   29   58 1
@<TRIPOS>MOLECULE
ZINC03830202
   58    58     0     0     0
SMALL
USER_CHARGES
7-[3-hydroxy-2-(3-hydroxyoct-1-enyl)-5-oxo-cyclopentyl]heptanoic acid
@<TRIPOS>ATOM
      1 C1         -1.7110   -9.1359    6.6437 C.3       1 <0>        -0.1537
      2 C2         -1.7227   -7.6077    6.5697 C.3       1 <0>        -0.1260
      3 C3         -1.3547   -7.1628    5.1528 C.3       1 <0>        -0.1205
      4 C4         -1.3664   -5.6347    5.0789 C.3       1 <0>        -0.1174
      5 C5         -0.9984   -5.1898    3.6620 C.3       1 <0>        -0.1471
      6 C6         -1.0100   -3.6617    3.5880 C.3       1 <0>         0.1365
      7 H1         -1.9781   -3.2891    3.9229 H         1 <0>         0.0986
      8 C7         -0.7686   -3.2257    2.1658 C.2       1 <0>        -0.1808
      9 C8         -1.6681   -2.5089    1.5388 C.2       1 <0>        -0.1287
     10 C9         -1.4266   -2.0729    0.1165 C.3       1 <0>        -0.0505
     11 H2         -0.4850   -2.4777   -0.2545 H         1 <0>         0.0991
     12 C10        -2.6029   -2.5086   -0.7937 C.3       1 <0>         0.1103
     13 H3         -3.5538   -2.4167   -0.2688 H         1 <0>         0.0743
     14 C11        -2.5155   -1.4902   -1.9575 C.3       1 <0>        -0.2105
     15 C12        -2.1241   -0.1834   -1.2886 C.2       1 <0>         0.3761
     16 O1         -2.3260    0.9282   -1.7150 O.2       1 <0>        -0.4239
     17 C13        -1.4333   -0.5336    0.0129 C.3       1 <0>        -0.1315
     18 H4         -1.9246   -0.1491    0.7944 H         1 <0>         0.0997
     19 C14         0.0021   -0.0041    0.0020 C.3       1 <0>        -0.1044
     20 C15        -0.0187    1.5258    0.0104 C.3       1 <0>        -0.1292
     21 C16         1.4167    2.0553   -0.0004 C.3       1 <0>        -0.1164
     22 C17         1.3960    3.5852    0.0080 C.3       1 <0>        -0.1196
     23 C18         2.8313    4.1148   -0.0029 C.3       1 <0>        -0.0982
     24 C19         2.8106    5.6446    0.0055 C.3       1 <0>        -0.1583
     25 C20         4.2244    6.1662   -0.0052 C.2       1 <0>         0.4572
     26 O2          5.1533    5.3936   -0.0182 O.co2     1 <0>        -0.6429
     27 O3         -2.4126   -3.8438   -1.2660 O.3       1 <0>        -0.5538
     28 O4          0.0193   -3.1362    4.4285 O.3       1 <0>        -0.5554
     29 H5         -2.4356   -9.5394    5.9364 H         1 <0>         0.0526
     30 H6         -0.7159   -9.5041    6.3942 H         1 <0>         0.0531
     31 H7         -1.9732   -9.4528    7.6531 H         1 <0>         0.0527
     32 H8         -0.9981   -7.2042    7.2769 H         1 <0>         0.0613
     33 H9         -2.7178   -7.2395    6.8192 H         1 <0>         0.0601
     34 H10        -2.0793   -7.5664    4.4456 H         1 <0>         0.0595
     35 H11        -0.3596   -7.5311    4.9033 H         1 <0>         0.0603
     36 H12        -0.6418   -5.2311    5.7861 H         1 <0>         0.0689
     37 H13        -2.3615   -5.2664    5.3283 H         1 <0>         0.0602
     38 H14        -1.7230   -5.5934    2.9547 H         1 <0>         0.0721
     39 H15        -0.0032   -5.5581    3.4125 H         1 <0>         0.0664
     40 H16         0.1460   -3.5042    1.6635 H         1 <0>         0.1138
     41 H17        -2.5827   -2.2304    2.0411 H         1 <0>         0.1127
     42 H18        -1.8330   -1.7989   -2.6200 H         1 <0>         0.1036
     43 H19        -3.4823   -1.3923   -2.4512 H         1 <0>         0.0939
     44 H20         0.5123   -0.3556   -0.8948 H         1 <0>         0.0658
     45 H21         0.5293   -0.3651    0.8851 H         1 <0>         0.0772
     46 H22        -0.5459    1.8868   -0.8726 H         1 <0>         0.0741
     47 H23        -0.5289    1.8773    0.9072 H         1 <0>         0.0616
     48 H24         1.9439    1.6943    0.8826 H         1 <0>         0.0602
     49 H25         1.9269    1.7038   -0.8972 H         1 <0>         0.0590
     50 H26         0.8688    3.9463   -0.8751 H         1 <0>         0.0562
     51 H27         0.8858    3.9367    0.9048 H         1 <0>         0.0559
     52 H28         3.3585    3.7537    0.8802 H         1 <0>         0.0584
     53 H29         3.3415    3.7632   -0.8997 H         1 <0>         0.0580
     54 H30         2.2834    6.0057   -0.8775 H         1 <0>         0.0613
     55 H31         2.3004    5.9961    0.9023 H         1 <0>         0.0613
     56 H32        -3.1224   -4.1628   -1.8400 H         1 <0>         0.3811
     57 H33         0.9098   -3.4267    4.1883 H         1 <0>         0.3755
     58 O5          4.4517    7.4891   -0.0002 O.co2     1 <0>        -0.7801
@<TRIPOS>BOND
     1    1    2 1
     2    1   29 1
     3    1   30 1
     4    1   31 1
     5    2    3 1
     6    2   32 1
     7    2   33 1
     8    3    4 1
     9    3   34 1
    10    3   35 1
    11    4    5 1
    12    4   36 1
    13    4   37 1
    14    5    6 1
    15    5   38 1
    16    5   39 1
    17    6    7 1
    18    6    8 1
    19    6   28 1
    20    8    9 2
    21    8   40 1
    22    9   10 1
    23    9   41 1
    24   10   11 1
    25   10   17 1
    26   10   12 1
    27   12   13 1
    28   12   14 1
    29   12   27 1
    30   14   15 1
    31   14   42 1
    32   14   43 1
    33   15   16 2
    34   15   17 1
    35   17   18 1
    36   17   19 1
    37   19   20 1
    38   19   44 1
    39   19   45 1
    40   20   21 1
    41   20   46 1
    42   20   47 1
    43   21   22 1
    44   21   48 1
    45   21   49 1
    46   22   23 1
    47   22   50 1
    48   22   51 1
    49   23   24 1
    50   23   52 1
    51   23   53 1
    52   24   25 1
    53   24   54 1
    54   24   55 1
    55   25   26 2
    56   25   58 1
    57   27   56 1
    58   28   57 1
@<TRIPOS>MOLECULE
ZINC13836509
   65    66     0     0     0
SMALL
USER_CHARGES
7-[(1R,2R,3R)-3-hydroxy-2-[(E,4S)-4-hydroxy-4-(1-propylcyclobutyl)but-1-enyl]-5-oxo-cyclopentyl]heptanoic acid
@<TRIPOS>ATOM
      1 C1          4.2717   -1.5736   -2.6049 C.3       1 <0>        -0.1567
      2 C2          3.5319   -0.2345   -2.6234 C.3       1 <0>        -0.1298
      3 C3          2.6929   -0.0977   -1.3513 C.3       1 <0>        -0.0991
      4 C4          2.0324    1.2821   -1.3219 C.3       1 <0>        -0.1157
      5 C5          2.9735    2.4265   -1.7335 C.3       1 <0>        -0.1290
      6 C6          2.5141    2.1788   -3.1800 C.3       1 <0>        -0.1612
      7 C7          1.2180    1.6023   -2.5864 C.3       1 <0>        -0.1193
      8 C8          1.2742    1.5501   -0.0203 C.3       1 <0>         0.1287
      9 H1          1.0250    2.6094    0.0435 H         1 <0>         0.0977
     10 C9          2.1517    1.1600    1.1708 C.3       1 <0>        -0.1242
     11 C10         1.4642    1.5556    2.4521 C.2       1 <0>        -0.1306
     12 C11         1.2511    0.6604    3.3845 C.2       1 <0>        -0.1523
     13 C12         0.5636    1.0559    4.6658 C.3       1 <0>        -0.0465
     14 H2          0.3328    2.1212    4.6623 H         1 <0>         0.0969
     15 C13        -0.7252    0.2203    4.8728 C.3       1 <0>         0.1122
     16 H3         -0.5805   -0.8057    4.5343 H         1 <0>         0.0727
     17 C14        -0.9130    0.2768    6.4092 C.3       1 <0>        -0.2115
     18 C15         0.4975    0.1996    6.9660 C.2       1 <0>         0.3759
     19 O1          0.8121   -0.1827    8.0674 O.2       1 <0>        -0.4262
     20 C16         1.4367    0.6912    5.8844 C.3       1 <0>        -0.1321
     21 H4          2.0899   -0.0204    5.6255 H         1 <0>         0.0986
     22 C17         2.1953    1.9269    6.3727 C.3       1 <0>        -0.1042
     23 C18         3.1499    1.5271    7.4995 C.3       1 <0>        -0.1289
     24 C19         3.9085    2.7628    7.9878 C.3       1 <0>        -0.1165
     25 C20         4.8631    2.3629    9.1147 C.3       1 <0>        -0.1195
     26 C21         5.6217    3.5986    9.6030 C.3       1 <0>        -0.0982
     27 C22         6.5763    3.1988   10.7298 C.3       1 <0>        -0.1583
     28 C23         7.3235    4.4159   11.2108 C.2       1 <0>         0.4572
     29 O2          7.1141    5.4926   10.7042 O.co2     1 <0>        -0.6428
     30 O3         -1.8344    0.8225    4.2027 O.3       1 <0>        -0.5512
     31 O4          0.0730    0.7763   -0.0007 O.3       1 <0>        -0.5518
     32 H5          4.8695   -1.6710   -3.5111 H         1 <0>         0.0532
     33 H6          4.9243   -1.6161   -1.7329 H         1 <0>         0.0536
     34 H7          3.5485   -2.3876   -2.5575 H         1 <0>         0.0522
     35 H8          2.8793   -0.1919   -3.4954 H         1 <0>         0.0674
     36 H9          4.2552    0.5796   -2.6708 H         1 <0>         0.0698
     37 H10         3.3354   -0.2116   -0.4783 H         1 <0>         0.0702
     38 H11         1.9231   -0.8693   -1.3391 H         1 <0>         0.0633
     39 H12         2.6759    3.3990   -1.3413 H         1 <0>         0.0808
     40 H13         4.0279    2.2063   -1.5664 H         1 <0>         0.0694
     41 H14         3.1176    1.4416   -3.7096 H         1 <0>         0.0968
     42 H15         2.3629    3.0938   -3.7528 H         1 <0>         0.0622
     43 H16         0.8551    0.7166   -3.1079 H         1 <0>         0.0647
     44 H17         0.4404    2.3494   -2.4274 H         1 <0>         0.0806
     45 H18         2.3154    0.0824    1.1639 H         1 <0>         0.0712
     46 H19         3.1105    1.6736    1.0993 H         1 <0>         0.0825
     47 H20         1.1472    2.5771    2.6018 H         1 <0>         0.1092
     48 H21         1.5681   -0.3612    3.2348 H         1 <0>         0.1077
     49 H22        -1.3748    1.1283    6.6575 H         1 <0>         0.1033
     50 H23        -1.5064   -0.5710    6.7516 H         1 <0>         0.0928
     51 H24         2.7658    2.3527    5.5472 H         1 <0>         0.0763
     52 H25         1.4853    2.6663    6.7432 H         1 <0>         0.0658
     53 H26         2.5794    1.1013    8.3250 H         1 <0>         0.0741
     54 H27         3.8599    0.7877    7.1290 H         1 <0>         0.0608
     55 H28         4.4790    3.1886    7.1624 H         1 <0>         0.0597
     56 H29         3.1985    3.5021    8.3583 H         1 <0>         0.0593
     57 H30         4.2926    1.9371    9.9401 H         1 <0>         0.0563
     58 H31         5.5731    1.6235    8.7442 H         1 <0>         0.0556
     59 H32         6.1922    4.0244    8.7775 H         1 <0>         0.0582
     60 H33         4.9117    4.3380    9.9735 H         1 <0>         0.0582
     61 H34         6.0058    2.7729   11.5553 H         1 <0>         0.0613
     62 H35         7.2863    2.4594   10.3593 H         1 <0>         0.0611
     63 H36        -2.6648    0.3369    4.3021 H         1 <0>         0.3795
     64 H37         0.2191   -0.1781   -0.0545 H         1 <0>         0.3687
     65 O5          8.2217    4.3038   12.2019 O.co2     1 <0>        -0.7801
@<TRIPOS>BOND
     1    1    2 1
     2    1   32 1
     3    1   33 1
     4    1   34 1
     5    2    3 1
     6    2   35 1
     7    2   36 1
     8    3    4 1
     9    3   37 1
    10    3   38 1
    11    4    7 1
    12    4    5 1
    13    4    8 1
    14    5    6 1
    15    5   39 1
    16    5   40 1
    17    6    7 1
    18    6   41 1
    19    6   42 1
    20    7   43 1
    21    7   44 1
    22    8    9 1
    23    8   10 1
    24    8   31 1
    25   10   11 1
    26   10   45 1
    27   10   46 1
    28   11   12 2
    29   11   47 1
    30   12   13 1
    31   12   48 1
    32   13   14 1
    33   13   20 1
    34   13   15 1
    35   15   16 1
    36   15   17 1
    37   15   30 1
    38   17   18 1
    39   17   49 1
    40   17   50 1
    41   18   19 2
    42   18   20 1
    43   20   21 1
    44   20   22 1
    45   22   23 1
    46   22   51 1
    47   22   52 1
    48   23   24 1
    49   23   53 1
    50   23   54 1
    51   24   25 1
    52   24   55 1
    53   24   56 1
    54   25   26 1
    55   25   57 1
    56   25   58 1
    57   26   27 1
    58   26   59 1
    59   26   60 1
    60   27   28 1
    61   27   61 1
    62   27   62 1
    63   28   29 2
    64   28   65 1
    65   30   63 1
    66   31   64 1
@<TRIPOS>MOLECULE
ZINC03830714
   56    56     0     0     0
SMALL
USER_CHARGES
7-[3-hydroxy-2-(3-hydroxyoct-1-enyl)-5-oxo-cyclopentyl]hept-5-enoic acid
@<TRIPOS>ATOM
      1 C1          2.8547   -1.8277   -8.5921 C.3       1 <0>        -0.1534
      2 C2          3.4090   -1.8808   -7.1671 C.3       1 <0>        -0.1261
      3 C3          2.7837   -0.7597   -6.3345 C.3       1 <0>        -0.1203
      4 C4          3.3380   -0.8128   -4.9094 C.3       1 <0>        -0.1175
      5 C5          2.7126    0.3082   -4.0769 C.3       1 <0>        -0.1470
      6 C6          3.2669    0.2551   -2.6518 C.3       1 <0>         0.1363
      7 H1          3.1034   -0.7388   -2.2352 H         1 <0>         0.0978
      8 C7          2.5619    1.2791   -1.8001 C.2       1 <0>        -0.1768
      9 C8          1.8873    0.8996   -0.7433 C.2       1 <0>        -0.1321
     10 C9          1.1823    1.9236    0.1084 C.3       1 <0>        -0.0507
     11 H2          1.3539    2.9273   -0.2805 H         1 <0>         0.0997
     12 C10        -0.3358    1.6198    0.1806 C.3       1 <0>         0.1110
     13 H3         -0.5143    0.5455    0.2281 H         1 <0>         0.0744
     14 C11        -0.7478    2.3058    1.5067 C.3       1 <0>        -0.2111
     15 C12         0.4247    2.0607    2.4399 C.2       1 <0>         0.3788
     16 O1          0.3895    2.0547    3.6470 O.2       1 <0>        -0.4291
     17 C13         1.6463    1.8245    1.5765 C.3       1 <0>        -0.1245
     18 H4          2.0338    0.9178    1.7431 H         1 <0>         0.1005
     19 C14         2.7040    2.8920    1.8638 C.3       1 <0>        -0.0838
     20 C15         3.2375    2.7073    3.2610 C.2       1 <0>        -0.1876
     21 C16         4.5289    2.6208    3.4630 C.2       1 <0>        -0.1311
     22 C17         5.4876    2.8729    2.3279 C.3       1 <0>        -0.1044
     23 C18         6.5021    3.9398    2.7446 C.3       1 <0>        -0.0918
     24 C19         7.4754    4.1957    1.5922 C.3       1 <0>        -0.1570
     25 C20         8.4747    5.2465    2.0026 C.2       1 <0>         0.4572
     26 O2          8.4145    5.7400    3.1038 O.co2     1 <0>        -0.6422
     27 O3         -1.0232    2.1984   -0.9306 O.3       1 <0>        -0.5530
     28 O4          4.6676    0.5374   -2.6747 O.3       1 <0>        -0.5543
     29 H5          1.7725   -1.9549   -8.5660 H         1 <0>         0.0522
     30 H6          3.0966   -0.8640   -9.0404 H         1 <0>         0.0533
     31 H7          3.3002   -2.6263   -9.1853 H         1 <0>         0.0523
     32 H8          4.4913   -1.7536   -7.1932 H         1 <0>         0.0617
     33 H9          3.1672   -2.8445   -6.7188 H         1 <0>         0.0598
     34 H10         1.7015   -0.8870   -6.3084 H         1 <0>         0.0589
     35 H11         3.0255    0.2039   -6.7828 H         1 <0>         0.0606
     36 H12         4.4202   -0.6856   -4.9356 H         1 <0>         0.0697
     37 H13         3.0961   -1.7765   -4.4612 H         1 <0>         0.0596
     38 H14         1.6304    0.1810   -4.0508 H         1 <0>         0.0712
     39 H15         2.9545    1.2719   -4.5251 H         1 <0>         0.0669
     40 H16         2.6129    2.3259   -2.0610 H         1 <0>         0.1146
     41 H17         1.8364   -0.1472   -0.4823 H         1 <0>         0.1124
     42 H18        -0.9086    3.2791    1.3426 H         1 <0>         0.1039
     43 H19        -1.6538    1.8497    1.9058 H         1 <0>         0.0935
     44 H20         3.5203    2.7967    1.1477 H         1 <0>         0.0944
     45 H21         2.2555    3.8813    1.7739 H         1 <0>         0.0706
     46 H22         2.5551    2.6462    4.0959 H         1 <0>         0.1152
     47 H23         4.9066    2.3689    4.4429 H         1 <0>         0.1085
     48 H24         6.0117    1.9491    2.0830 H         1 <0>         0.0671
     49 H25         4.9342    3.2191    1.4550 H         1 <0>         0.0701
     50 H26         5.9780    4.8636    2.9895 H         1 <0>         0.0596
     51 H27         7.0555    3.5936    3.6175 H         1 <0>         0.0601
     52 H28         7.9995    3.2719    1.3473 H         1 <0>         0.0625
     53 H29         6.9220    4.5418    0.7192 H         1 <0>         0.0613
     54 H30        -1.9817    2.0719   -0.9093 H         1 <0>         0.3803
     55 H31         4.8876    1.4078   -3.0342 H         1 <0>         0.3774
     56 O5          9.4315    5.6341    1.1447 O.co2     1 <0>        -0.7793
@<TRIPOS>BOND
     1    1    2 1
     2    1   29 1
     3    1   30 1
     4    1   31 1
     5    2    3 1
     6    2   32 1
     7    2   33 1
     8    3    4 1
     9    3   34 1
    10    3   35 1
    11    4    5 1
    12    4   36 1
    13    4   37 1
    14    5    6 1
    15    5   38 1
    16    5   39 1
    17    6    7 1
    18    6    8 1
    19    6   28 1
    20    8    9 2
    21    8   40 1
    22    9   10 1
    23    9   41 1
    24   10   11 1
    25   10   17 1
    26   10   12 1
    27   12   13 1
    28   12   14 1
    29   12   27 1
    30   14   15 1
    31   14   42 1
    32   14   43 1
    33   15   16 2
    34   15   17 1
    35   17   18 1
    36   17   19 1
    37   19   20 1
    38   19   44 1
    39   19   45 1
    40   20   21 2
    41   20   46 1
    42   21   22 1
    43   21   47 1
    44   22   23 1
    45   22   48 1
    46   22   49 1
    47   23   24 1
    48   23   50 1
    49   23   51 1
    50   24   25 1
    51   24   52 1
    52   24   53 1
    53   25   26 2
    54   25   56 1
    55   27   54 1
    56   28   55 1
