@<TRIPOS>MOLECULE
ZINC22309215
   60    63     0     0     0
SMALL
USER_CHARGES
(2S)-2-[[2-(3,5-difluorophenyl)acetyl]amino]-N-[(3S)-1-methyl-2-oxo-5-phenyl-3H-1,4-benzodiazepin-3-yl]propanamide
@<TRIPOS>ATOM
      1 C1          3.9786   -5.3645    0.0616 C.3       1 <0>        -0.1604
      2 C2          3.1041   -4.6507   -0.9713 C.3       1 <0>         0.1345
      3 H1          2.0364   -4.7701   -0.7353 H         1 <0>         0.1182
      4 C3          3.4589   -3.1865   -1.0039 C.2       1 <0>         0.5280
      5 O1          3.8627   -2.6831   -2.0308 O.2       1 <0>        -0.5398
      6 N1          3.3275   -2.4363    0.1081 N.am      1 <0>        -0.6996
      7 C4          3.6724   -1.0128    0.0764 C.3       1 <0>         0.2862
      8 H2          4.2305   -0.8124   -0.8501 H         1 <0>         0.1277
      9 C5          4.4838   -0.6638    1.2941 C.2       1 <0>         0.5077
     10 O2          4.6901   -1.5171    2.1309 O.2       1 <0>        -0.5037
     11 N2          4.9814    0.5572    1.4769 N.am      1 <0>        -0.5492
     12 C6          4.8682    1.6071    0.5790 C.ar      1 <0>         0.1722
     13 C7          5.9876    2.4230    0.4014 C.ar      1 <0>        -0.1445
     14 C8          5.9484    3.4893   -0.4695 C.ar      1 <0>        -0.0719
     15 C9          4.7921    3.7634   -1.1812 C.ar      1 <0>        -0.1302
     16 C10         3.6805    2.9694   -1.0208 C.ar      1 <0>        -0.0581
     17 C11         3.7045    1.8792   -0.1374 C.ar      1 <0>        -0.1349
     18 C12         2.4802    1.0723   -0.0164 C.2       1 <0>         0.2831
     19 N3          2.4505   -0.2096    0.0811 N.2       1 <0>        -0.5092
     20 C13         1.1848    1.7910    0.0004 C.ar      1 <0>        -0.0694
     21 C14         1.1313    3.1287    0.3913 C.ar      1 <0>        -0.0882
     22 C15        -0.0791    3.7909    0.4108 C.ar      1 <0>        -0.1252
     23 C16        -1.2365    3.1337    0.0330 C.ar      1 <0>        -0.0984
     24 C17        -1.1897    1.8069   -0.3561 C.ar      1 <0>        -0.1266
     25 C18         0.0139    1.1324   -0.3742 C.ar      1 <0>        -0.0675
     26 C19         5.7050    0.8114    2.7251 C.3       1 <0>         0.0690
     27 N4          3.3323   -5.2381   -2.2938 N.am      1 <0>        -0.7284
     28 C20         2.6514   -6.3391   -2.6688 C.2       1 <0>         0.5213
     29 O3          1.8497   -6.8436   -1.9114 O.2       1 <0>        -0.5317
     30 C21         2.8862   -6.9433   -4.0293 C.3       1 <0>        -0.1045
     31 C22         2.0078   -8.1560   -4.1987 C.ar      1 <0>        -0.0091
     32 C23         2.4727   -9.4030   -3.8256 C.ar      1 <0>        -0.1498
     33 C24         1.6643  -10.5172   -3.9756 C.ar      1 <0>         0.1340
     34 C25         0.3944  -10.3834   -4.5099 C.ar      1 <0>        -0.1918
     35 C26        -0.0680   -9.1349   -4.8885 C.ar      1 <0>         0.1342
     36 C27         0.7400   -8.0213   -4.7323 C.ar      1 <0>        -0.1498
     37 F1         -1.3074   -9.0028   -5.4097 F         1 <0>        -0.1295
     38 F2          2.1168  -11.7351   -3.6053 F         1 <0>        -0.1296
     39 H3          3.7196   -6.4333    0.0854 H         1 <0>         0.0771
     40 H4          3.8072   -4.9235    1.0546 H         1 <0>         0.0752
     41 H5          5.0377   -5.2499   -0.2127 H         1 <0>         0.0656
     42 H6          2.9613   -2.8929    1.0395 H         1 <0>         0.4385
     43 H7          6.8929    2.2160    0.9527 H         1 <0>         0.1358
     44 H8          6.8207    4.1131   -0.5974 H         1 <0>         0.1365
     45 H9          4.7635    4.6007   -1.8627 H         1 <0>         0.1364
     46 H10         2.7818    3.1869   -1.5789 H         1 <0>         0.1381
     47 H11         2.0347    3.6439    0.6824 H         1 <0>         0.1280
     48 H12        -0.1225    4.8254    0.7179 H         1 <0>         0.1284
     49 H13        -2.1809    3.6574    0.0459 H         1 <0>         0.1262
     50 H14        -2.0971    1.2980   -0.6460 H         1 <0>         0.1277
     51 H15         0.0490    0.0964   -0.6775 H         1 <0>         0.1323
     52 H16         6.0570    1.8535    2.7392 H         1 <0>         0.0897
     53 H17         6.5675    0.1321    2.7938 H         1 <0>         0.0774
     54 H18         5.0339    0.6395    3.5795 H         1 <0>         0.0762
     55 H19         4.0594   -4.7806   -2.9808 H         1 <0>         0.4335
     56 H20         2.6433   -6.2032   -4.8060 H         1 <0>         0.1149
     57 H21         3.9416   -7.2392   -4.1219 H         1 <0>         0.1146
     58 H22         3.4653   -9.5078   -3.4132 H         1 <0>         0.1418
     59 H23        -0.2349  -11.2526   -4.6317 H         1 <0>         0.1493
     60 H24         0.3793   -7.0470   -5.0273 H         1 <0>         0.1417
@<TRIPOS>BOND
     1    1    2 1
     2    1   39 1
     3    1   40 1
     4    1   41 1
     5    2    3 1
     6    2    4 1
     7    2   27 1
     8    4    5 2
     9    4    6 am
    10    6    7 1
    11    6   42 1
    12    7    8 1
    13    7   19 1
    14    7    9 1
    15    9   10 2
    16    9   11 am
    17   11   12 1
    18   11   26 1
    19   12   17 ar
    20   12   13 ar
    21   13   14 ar
    22   13   43 1
    23   14   15 ar
    24   14   44 1
    25   15   16 ar
    26   15   45 1
    27   16   17 ar
    28   16   46 1
    29   17   18 1
    30   18   19 2
    31   18   20 1
    32   20   25 ar
    33   20   21 ar
    34   21   22 ar
    35   21   47 1
    36   22   23 ar
    37   22   48 1
    38   23   24 ar
    39   23   49 1
    40   24   25 ar
    41   24   50 1
    42   25   51 1
    43   26   52 1
    44   26   53 1
    45   26   54 1
    46   27   28 am
    47   27   55 1
    48   28   29 2
    49   28   30 1
    50   30   31 1
    51   30   56 1
    52   30   57 1
    53   31   36 ar
    54   31   32 ar
    55   32   33 ar
    56   32   58 1
    57   33   34 ar
    58   33   38 1
    59   34   35 ar
    60   34   59 1
    61   35   36 ar
    62   35   37 1
    63   36   60 1
@<TRIPOS>MOLECULE
ZINC26179223
  101   103     0     0     0
SMALL
USER_CHARGES

@<TRIPOS>ATOM
      1 C1          0.5596    3.9644   -2.2977 C.3       1 <0>        -0.1644
      2 C2          0.7418    2.7561   -1.3769 C.3       1 <0>        -0.0910
      3 C3          1.9817    2.9622   -0.5044 C.3       1 <0>        -0.1489
      4 C4         -0.4911    2.6053   -0.4835 C.3       1 <0>        -0.1174
      5 C5         -1.6978    2.2181   -1.3408 C.3       1 <0>         0.1356
      6 H1         -1.4556    1.3342   -1.9310 H         1 <0>         0.1094
      7 C6         -2.8736    1.9186   -0.4470 C.2       1 <0>         0.5148
      8 O1         -3.7327    2.7570   -0.2739 O.2       1 <0>        -0.5199
      9 N1         -2.9704    0.7192    0.1599 N.am      1 <0>        -0.7041
     10 C7         -4.1135    0.4281    1.0288 C.3       1 <0>         0.1372
     11 H2         -5.0047    0.9142    0.6319 H         1 <0>         0.1163
     12 C8         -4.3395   -1.0841    1.0847 C.3       1 <0>        -0.0837
     13 C9         -4.7388   -1.5831   -0.2801 C.ar      1 <0>        -0.0864
     14 C10        -6.0735   -1.6245   -0.6376 C.ar      1 <0>        -0.1140
     15 C11        -6.4398   -2.0823   -1.8895 C.ar      1 <0>        -0.1155
     16 C12        -5.4714   -2.4982   -2.7840 C.ar      1 <0>        -0.1163
     17 C13        -4.1367   -2.4560   -2.4267 C.ar      1 <0>        -0.1109
     18 C14        -3.7701   -1.9942   -1.1764 C.ar      1 <0>        -0.1080
     19 C15        -3.8345    0.9459    2.4163 C.2       1 <0>         0.5070
     20 O2         -2.7843    1.5033    2.6557 O.2       1 <0>        -0.5290
     21 N2         -4.7521    0.7897    3.3910 N.am      1 <0>        -0.8535
     22 N3         -2.0356    3.3264   -2.2373 N.am      1 <0>        -0.7017
     23 C16        -2.6401    3.0792   -3.4163 C.2       1 <0>         0.5264
     24 O3         -2.9884    1.9512   -3.6945 O.2       1 <0>        -0.5302
     25 C17        -2.8831    4.2043   -4.3890 C.3       1 <0>        -0.0915
     26 H3         -2.8388    5.1569   -3.8611 H         1 <0>         0.0985
     27 C18        -4.2641    4.0381   -5.0263 C.3       1 <0>        -0.0677
     28 C19        -5.3278    4.2164   -3.9737 C.ar      1 <0>        -0.0904
     29 C20        -5.8749    3.1108   -3.3498 C.ar      1 <0>        -0.0968
     30 C21        -6.8506    3.2743   -2.3843 C.ar      1 <0>        -0.1113
     31 C22        -7.2789    4.5434   -2.0424 C.ar      1 <0>        -0.1187
     32 C23        -6.7312    5.6490   -2.6657 C.ar      1 <0>        -0.1214
     33 C24        -5.7524    5.4857   -3.6282 C.ar      1 <0>        -0.1143
     34 C25        -1.8111    4.1756   -5.4803 C.3       1 <0>        -0.1407
     35 C26        -1.9829    5.3891   -6.3960 C.3       1 <0>         0.1002
     36 H4         -3.0003    5.4083   -6.7867 H         1 <0>         0.1158
     37 C27        -0.9921    5.2954   -7.5581 C.3       1 <0>         0.1403
     38 H5         -1.1223    4.3423   -8.0706 H         1 <0>         0.1027
     39 C28         0.4365    5.3939   -7.0195 C.3       1 <0>        -0.1040
     40 C29         1.4141    5.1791   -8.1461 C.ar      1 <0>        -0.0620
     41 C30         1.8555    3.9035   -8.4443 C.ar      1 <0>        -0.1054
     42 C31         2.7522    3.7064   -9.4777 C.ar      1 <0>        -0.1112
     43 C32         3.2072    4.7848  -10.2132 C.ar      1 <0>        -0.1221
     44 C33         2.7651    6.0603   -9.9155 C.ar      1 <0>        -0.1096
     45 C34         1.8651    6.2569   -8.8848 C.ar      1 <0>        -0.1097
     46 N4         -1.2364    6.3925   -8.4978 N.am      1 <0>        -0.7050
     47 C35        -0.8780    6.2648   -9.7907 C.2       1 <0>         0.6487
     48 O4         -0.3522    5.2397  -10.1770 O.2       1 <0>        -0.5469
     49 O5         -1.1025    7.2730  -10.6543 O.3       1 <0>        -0.3614
     50 C36        -0.6971    7.0691  -12.0093 C.3       1 <0>         0.1386
     51 C37        -1.4371    5.8608  -12.5867 C.3       1 <0>        -0.1851
     52 C38        -1.0309    8.3135  -12.8344 C.3       1 <0>        -0.1417
     53 C39         0.8108    6.8145  -12.0577 C.3       1 <0>        -0.1918
     54 O6         -1.7350    6.5848   -5.6539 O.3       1 <0>        -0.5516
     55 H6          1.4896    4.1571   -2.8326 H         1 <0>         0.0553
     56 H7         -0.2356    3.7585   -3.0142 H         1 <0>         0.0678
     57 H8          0.2950    4.8383   -1.7024 H         1 <0>         0.0552
     58 H9          0.8667    1.8561   -1.9789 H         1 <0>         0.0724
     59 H10         1.8568    3.8623    0.0975 H         1 <0>         0.0559
     60 H11         2.1115    2.1015    0.1516 H         1 <0>         0.0556
     61 H12         2.8600    3.0697   -1.1409 H         1 <0>         0.0570
     62 H13        -0.3088    1.8285    0.2591 H         1 <0>         0.0860
     63 H14        -0.6921    3.5503    0.0210 H         1 <0>         0.0776
     64 H15        -2.2833    0.0487    0.0215 H         1 <0>         0.4019
     65 H16        -3.4193   -1.5777    1.3971 H         1 <0>         0.0864
     66 H17        -5.1319   -1.3069    1.7992 H         1 <0>         0.0934
     67 H18        -6.8301   -1.2996    0.0612 H         1 <0>         0.1205
     68 H19        -7.4826   -2.1153   -2.1685 H         1 <0>         0.1217
     69 H20        -5.7577   -2.8565   -3.7617 H         1 <0>         0.1210
     70 H21        -3.3801   -2.7813   -3.1255 H         1 <0>         0.1218
     71 H22        -2.7271   -1.9577   -0.8987 H         1 <0>         0.1171
     72 H23        -5.5921    0.3439    3.1995 H         1 <0>         0.4011
     73 H24        -4.5726    1.1230    4.2840 H         1 <0>         0.4038
     74 H25        -1.8243    4.2381   -1.9824 H         1 <0>         0.4067
     75 H26        -4.3965    4.7871   -5.8071 H         1 <0>         0.0824
     76 H27        -4.3463    3.0419   -5.4608 H         1 <0>         0.0844
     77 H28        -5.5402    2.1193   -3.6168 H         1 <0>         0.1201
     78 H29        -7.2785    2.4105   -1.8973 H         1 <0>         0.1136
     79 H30        -8.0417    4.6711   -1.2886 H         1 <0>         0.1161
     80 H31        -7.0660    6.6405   -2.3989 H         1 <0>         0.1183
     81 H32        -5.3218    6.3497   -4.1125 H         1 <0>         0.1201
     82 H33        -0.8234    4.2046   -5.0201 H         1 <0>         0.0802
     83 H34        -1.9126    3.2615   -6.0654 H         1 <0>         0.0892
     84 H35         0.5938    6.3813   -6.5852 H         1 <0>         0.0784
     85 H36         0.5899    4.6322   -6.2550 H         1 <0>         0.0867
     86 H37         1.5000    3.0609   -7.8697 H         1 <0>         0.1138
     87 H38         3.0976    2.7098   -9.7103 H         1 <0>         0.1157
     88 H39         3.9083    4.6309  -11.0201 H         1 <0>         0.1149
     89 H40         3.1208    6.9028  -10.4899 H         1 <0>         0.1135
     90 H41         1.5168    7.2529   -8.6547 H         1 <0>         0.1084
     91 H42        -1.6562    7.2108   -8.1894 H         1 <0>         0.4087
     92 H43        -2.5113    6.0421  -12.5522 H         1 <0>         0.0570
     93 H44        -1.1278    5.7052  -13.6202 H         1 <0>         0.0675
     94 H45        -1.1993    4.9742  -11.9989 H         1 <0>         0.0882
     95 H46        -0.5037    9.1743  -12.4231 H         1 <0>         0.0653
     96 H47        -0.7216    8.1579  -13.8679 H         1 <0>         0.0791
     97 H48        -2.1051    8.4949  -12.7999 H         1 <0>         0.0653
     98 H49         1.0486    5.9279  -11.4699 H         1 <0>         0.1023
     99 H50         1.1201    6.6589  -13.0912 H         1 <0>         0.0643
    100 H51         1.3380    7.6753  -11.6463 H         1 <0>         0.0561
    101 H52        -0.8463    6.6361   -5.2760 H         1 <0>         0.3759
@<TRIPOS>BOND
     1    1    2 1
     2    1   55 1
     3    1   56 1
     4    1   57 1
     5    2    3 1
     6    2    4 1
     7    2   58 1
     8    3   59 1
     9    3   60 1
    10    3   61 1
    11    4    5 1
    12    4   62 1
    13    4   63 1
    14    5    6 1
    15    5    7 1
    16    5   22 1
    17    7    8 2
    18    7    9 am
    19    9   10 1
    20    9   64 1
    21   10   11 1
    22   10   12 1
    23   10   19 1
    24   12   13 1
    25   12   65 1
    26   12   66 1
    27   13   18 ar
    28   13   14 ar
    29   14   15 ar
    30   14   67 1
    31   15   16 ar
    32   15   68 1
    33   16   17 ar
    34   16   69 1
    35   17   18 ar
    36   17   70 1
    37   18   71 1
    38   19   20 2
    39   19   21 am
    40   21   72 1
    41   21   73 1
    42   22   23 am
    43   22   74 1
    44   23   24 2
    45   23   25 1
    46   25   26 1
    47   25   27 1
    48   25   34 1
    49   27   28 1
    50   27   75 1
    51   27   76 1
    52   28   33 ar
    53   28   29 ar
    54   29   30 ar
    55   29   77 1
    56   30   31 ar
    57   30   78 1
    58   31   32 ar
    59   31   79 1
    60   32   33 ar
    61   32   80 1
    62   33   81 1
    63   34   35 1
    64   34   82 1
    65   34   83 1
    66   35   36 1
    67   35   37 1
    68   35   54 1
    69   37   38 1
    70   37   39 1
    71   37   46 1
    72   39   40 1
    73   39   84 1
    74   39   85 1
    75   40   45 ar
    76   40   41 ar
    77   41   42 ar
    78   41   86 1
    79   42   43 ar
    80   42   87 1
    81   43   44 ar
    82   43   88 1
    83   44   45 ar
    84   44   89 1
    85   45   90 1
    86   46   47 am
    87   46   91 1
    88   47   48 2
    89   47   49 1
    90   49   50 1
    91   50   51 1
    92   50   52 1
    93   50   53 1
    94   51   92 1
    95   51   93 1
    96   51   94 1
    97   52   95 1
    98   52   96 1
    99   52   97 1
   100   53   98 1
   101   53   99 1
   102   53  100 1
   103   54  101 1
@<TRIPOS>MOLECULE
ZINC28103203
   98    99     0     0     0
SMALL
USER_CHARGES
methyl (2S)-2-[[(2S)-2-[[benzyl-[(2R,3S)-3-(tert-butoxycarbonylamino)-2-hydroxy-4-phenyl-butyl]carbamoyl]amino]-4-methyl-pentanoyl]amino]-3-methyl-butanoate
@<TRIPOS>ATOM
      1 C1          1.2934   -4.7350    2.1617 C.3       1 <0>        -0.1487
      2 C2          1.0233   -4.2105    0.7500 C.3       1 <0>        -0.0876
      3 C3         -0.3819   -4.6273    0.3113 C.3       1 <0>        -0.1391
      4 C4          1.1276   -2.6841    0.7445 C.3       1 <0>        -0.1208
      5 C5          0.9812   -2.1681   -0.6885 C.3       1 <0>         0.1503
      6 H1          0.0609   -2.5506   -1.1541 H         1 <0>         0.1185
      7 C6          0.9608   -0.6613   -0.6802 C.2       1 <0>         0.5223
      8 O1          1.8071   -0.0400   -1.2874 O.2       1 <0>        -0.5311
      9 N1          0.0021   -0.0041    0.0020 N.am      1 <0>        -0.7267
     10 C7         -0.0178    1.4608    0.0101 C.3       1 <0>         0.1625
     11 H2          1.0264    1.8066    0.0158 H         1 <0>         0.1273
     12 C8         -0.7578    1.9676   -1.2295 C.3       1 <0>        -0.0979
     13 C9         -0.7785    3.4974   -1.2210 C.3       1 <0>        -0.1602
     14 C10        -0.0416    1.4742   -2.4883 C.3       1 <0>        -0.1375
     15 C11        -0.7232    1.9468    1.2500 C.2       1 <0>         0.4618
     16 O2         -1.1640    1.1512    2.0453 O.2       1 <0>        -0.5004
     17 O3         -0.8617    3.2635    1.4708 O.3       1 <0>        -0.3440
     18 C12        -1.5518    3.6592    2.6854 C.3       1 <0>         0.0265
     19 N2          2.1116   -2.6367   -1.4941 N.am      1 <0>        -0.7411
     20 C13         2.0714   -3.8562   -2.0665 C.2       1 <0>         0.7120
     21 O4          1.0971   -4.5674   -1.9143 O.2       1 <0>        -0.5786
     22 N3          3.1113   -4.2873   -2.8076 N.am      1 <0>        -0.6101
     23 C14         4.2853   -3.4304   -2.9910 C.3       1 <0>         0.1508
     24 C15         5.2812   -3.7011   -1.8929 C.ar      1 <0>        -0.1102
     25 C16         5.2288   -2.9748   -0.7178 C.ar      1 <0>        -0.1044
     26 C17         6.1391   -3.2268    0.2916 C.ar      1 <0>        -0.1175
     27 C18         7.1086   -4.1974    0.1216 C.ar      1 <0>        -0.1149
     28 C19         7.1645   -4.9197   -1.0557 C.ar      1 <0>        -0.1194
     29 C20         6.2507   -4.6717   -2.0628 C.ar      1 <0>        -0.1014
     30 C21         3.0676   -5.6129   -3.4298 C.3       1 <0>         0.1453
     31 C22         2.4500   -5.5013   -4.8252 C.3       1 <0>         0.1003
     32 H3          1.4885   -4.9679   -4.7943 H         1 <0>         0.0665
     33 C23         2.2896   -6.8995   -5.4253 C.3       1 <0>         0.1465
     34 H4          1.6766   -7.5348   -4.7691 H         1 <0>         0.0997
     35 C24         3.6699   -7.5227   -5.6424 C.3       1 <0>        -0.0894
     36 C25         3.5103   -8.9439   -6.1176 C.ar      1 <0>        -0.0618
     37 C26         3.4496   -9.9766   -5.2007 C.ar      1 <0>        -0.1075
     38 C27         3.2984  -11.2797   -5.6364 C.ar      1 <0>        -0.1111
     39 C28         3.2184  -11.5512   -6.9895 C.ar      1 <0>        -0.1244
     40 C29         3.2844  -10.5190   -7.9066 C.ar      1 <0>        -0.1102
     41 C30         3.4304   -9.2153   -7.4707 C.ar      1 <0>        -0.1098
     42 N4          1.5902   -6.8027   -6.7089 N.am      1 <0>        -0.7225
     43 C31         0.8969   -7.8581   -7.1799 C.2       1 <0>         0.6521
     44 O5          0.8520   -8.8900   -6.5398 O.2       1 <0>        -0.5482
     45 O6          0.2541   -7.7692   -8.3595 O.3       1 <0>        -0.3690
     46 C32        -0.4725   -8.9449   -8.8047 C.3       1 <0>         0.1422
     47 C33        -1.5482   -9.2994   -7.7761 C.3       1 <0>        -0.1852
     48 C34        -1.1328   -8.6557  -10.1542 C.3       1 <0>        -0.1441
     49 C35         0.4980  -10.1184   -8.9528 C.3       1 <0>        -0.1917
     50 O7          3.3033   -4.7185   -5.6626 O.3       1 <0>        -0.5853
     51 H5          2.3037   -4.4353    2.4771 H         1 <0>         0.0487
     52 H6          1.2184   -5.8324    2.1657 H         1 <0>         0.0534
     53 H7          0.5522   -4.3143    2.8572 H         1 <0>         0.0516
     54 H8          1.7644   -4.6312    0.0544 H         1 <0>         0.0818
     55 H9         -0.5761   -4.2502   -0.7036 H         1 <0>         0.0730
     56 H10        -1.1230   -4.2066    1.0068 H         1 <0>         0.0392
     57 H11        -0.4568   -5.7247    0.3153 H         1 <0>         0.0482
     58 H12         0.3288   -2.2598    1.3705 H         1 <0>         0.0752
     59 H13         2.1066   -2.3820    1.1448 H         1 <0>         0.0689
     60 H14        -0.7654   -0.5676    0.5527 H         1 <0>         0.4354
     61 H15        -1.7898    1.5869   -1.2218 H         1 <0>         0.0767
     62 H16        -1.3105    3.8618   -2.1122 H         1 <0>         0.0622
     63 H17         0.2535    3.8781   -1.2288 H         1 <0>         0.0615
     64 H18        -1.2934    3.8521   -0.3160 H         1 <0>         0.0779
     65 H19        -0.5736    1.8386   -3.3795 H         1 <0>         0.0545
     66 H20        -0.0266    0.3743   -2.4943 H         1 <0>         0.0537
     67 H21         0.9904    1.8550   -2.4961 H         1 <0>         0.0682
     68 H22        -1.5950    4.7569    2.7415 H         1 <0>         0.1073
     69 H23        -1.0096    3.2684    3.5591 H         1 <0>         0.0663
     70 H24        -2.5736    3.2520    2.6758 H         1 <0>         0.0668
     71 H25         2.9931   -1.9932   -1.6318 H         1 <0>         0.4218
     72 H26         4.7472   -3.6450   -3.9660 H         1 <0>         0.1048
     73 H27         3.9780   -2.3748   -2.9553 H         1 <0>         0.0814
     74 H28         4.4742   -2.2134   -0.5868 H         1 <0>         0.1164
     75 H29         6.0952   -2.6627    1.2115 H         1 <0>         0.1207
     76 H30         7.8221   -4.3917    0.9087 H         1 <0>         0.1211
     77 H31         7.9219   -5.6781   -1.1885 H         1 <0>         0.1221
     78 H32         6.2944   -5.2360   -2.9826 H         1 <0>         0.1215
     79 H33         4.0889   -6.0133   -3.5118 H         1 <0>         0.0883
     80 H34         2.4576   -6.2881   -2.8118 H         1 <0>         0.1029
     81 H35         4.2192   -6.9427   -6.3986 H         1 <0>         0.0830
     82 H36         4.2295   -7.5134   -4.6954 H         1 <0>         0.0823
     83 H37         3.5166   -9.7649   -4.1438 H         1 <0>         0.1135
     84 H38         3.2472  -12.0862   -4.9199 H         1 <0>         0.1151
     85 H39         3.1047  -12.5697   -7.3301 H         1 <0>         0.1141
     86 H40         3.2222  -10.7311   -8.9638 H         1 <0>         0.1124
     87 H41         3.4823   -8.4089   -8.1872 H         1 <0>         0.1072
     88 H42         1.6309   -5.8686   -7.2883 H         1 <0>         0.4159
     89 H43        -2.0986  -10.1901   -8.1134 H         1 <0>         0.0688
     90 H44        -2.2459   -8.4557   -7.6696 H         1 <0>         0.0572
     91 H45        -1.0734   -9.5073   -6.8059 H         1 <0>         0.0891
     92 H46        -1.6832   -9.5464  -10.4914 H         1 <0>         0.0802
     93 H47        -0.3594   -8.4008  -10.8937 H         1 <0>         0.0658
     94 H48        -1.8305   -7.8120  -10.0477 H         1 <0>         0.0655
     95 H49        -0.0524  -11.0091   -9.2901 H         1 <0>         0.0653
     96 H50         0.9727  -10.3263   -7.9825 H         1 <0>         0.1034
     97 H51         1.2714   -9.8635   -9.6923 H         1 <0>         0.0566
     98 H52         3.0227   -4.5280   -6.7090 H         1 <0>         0.4003
@<TRIPOS>BOND
     1    1    2 1
     2    1   51 1
     3    1   52 1
     4    1   53 1
     5    2    3 1
     6    2    4 1
     7    2   54 1
     8    3   55 1
     9    3   56 1
    10    3   57 1
    11    4    5 1
    12    4   58 1
    13    4   59 1
    14    5    6 1
    15    5    7 1
    16    5   19 1
    17    7    8 2
    18    7    9 am
    19    9   10 1
    20    9   60 1
    21   10   11 1
    22   10   12 1
    23   10   15 1
    24   12   13 1
    25   12   14 1
    26   12   61 1
    27   13   62 1
    28   13   63 1
    29   13   64 1
    30   14   65 1
    31   14   66 1
    32   14   67 1
    33   15   16 2
    34   15   17 1
    35   17   18 1
    36   18   68 1
    37   18   69 1
    38   18   70 1
    39   19   20 am
    40   19   71 1
    41   20   21 2
    42   20   22 am
    43   22   23 1
    44   22   30 1
    45   23   24 1
    46   23   72 1
    47   23   73 1
    48   24   29 ar
    49   24   25 ar
    50   25   26 ar
    51   25   74 1
    52   26   27 ar
    53   26   75 1
    54   27   28 ar
    55   27   76 1
    56   28   29 ar
    57   28   77 1
    58   29   78 1
    59   30   31 1
    60   30   79 1
    61   30   80 1
    62   31   32 1
    63   31   33 1
    64   31   50 1
    65   33   34 1
    66   33   35 1
    67   33   42 1
    68   35   36 1
    69   35   81 1
    70   35   82 1
    71   36   41 ar
    72   36   37 ar
    73   37   38 ar
    74   37   83 1
    75   38   39 ar
    76   38   84 1
    77   39   40 ar
    78   39   85 1
    79   40   41 ar
    80   40   86 1
    81   41   87 1
    82   42   43 am
    83   42   88 1
    84   43   44 2
    85   43   45 1
    86   45   46 1
    87   46   47 1
    88   46   48 1
    89   46   49 1
    90   47   89 1
    91   47   90 1
    92   47   91 1
    93   48   92 1
    94   48   93 1
    95   48   94 1
    96   49   95 1
    97   49   96 1
    98   49   97 1
    99   50   98 1
@<TRIPOS>MOLECULE
ZINC28563767
   44    46     0     0     0
SMALL
USER_CHARGES
4-(4-chlorophenyl)sulfonyl-4-(2,5-difluorophenyl)cyclohexan-1-amine
@<TRIPOS>ATOM
      1 C1          3.7268    4.6619   -1.0144 C.ar      1 <0>        -0.0117
      2 C2          4.7404    5.5172   -1.4036 C.ar      1 <0>        -0.1191
      3 C3          4.5712    6.8858   -1.2921 C.ar      1 <0>         0.0248
      4 C4          3.3874    7.3974   -0.7910 C.ar      1 <0>        -0.1250
      5 C5          2.3746    6.5410   -0.4021 C.ar      1 <0>        -0.0184
      6 C6          2.5442    5.1736   -0.5138 C.ar      1 <0>        -0.6657
      7 S1          1.2524    4.0826   -0.0184 S.o2      1 <0>         2.5084
      8 O1          0.0674    4.6585   -0.5506 O.2       1 <0>        -0.9147
      9 O2          1.6840    2.7954   -0.4379 O.2       1 <0>        -0.9105
     10 C7          1.2329    4.1753    1.7932 C.3       1 <0>        -0.4931
     11 C8          0.0799    3.3280    2.3349 C.3       1 <0>        -0.1212
     12 C9         -1.2452    3.8575    1.7829 C.3       1 <0>        -0.1834
     13 C10        -1.4336    5.3125    2.2171 C.3       1 <0>         0.0529
     14 C11        -0.2805    6.1597    1.6754 C.3       1 <0>        -0.1967
     15 C12         1.0446    5.6303    2.2274 C.3       1 <0>        -0.1322
     16 N1         -1.4493    5.3875    3.6841 N.4       1 <0>        -0.6934
     17 C13         2.5381    3.6538    2.3369 C.ar      1 <0>        -0.0786
     18 C14         3.4836    3.1272    1.4774 C.ar      1 <0>        -0.1681
     19 C15         4.6837    2.6508    1.9765 C.ar      1 <0>         0.1239
     20 C16         4.9337    2.6949    3.3378 C.ar      1 <0>        -0.1119
     21 C17         3.9867    3.2174    4.1975 C.ar      1 <0>        -0.1086
     22 C18         2.7876    3.6970    3.6978 C.ar      1 <0>         0.1049
     23 F1          1.8614    4.2075    4.5385 F         1 <0>        -0.1405
     24 F2          5.6094    2.1391    1.1360 F         1 <0>        -0.1187
     25 Cl1         5.8440    7.9607   -1.7802 Cl        1 <0>        -0.0347
     26 H1          3.8571    3.5936   -1.1055 H         1 <0>         0.1568
     27 H2          5.6644    5.1173   -1.7943 H         1 <0>         0.1535
     28 H3          3.2549    8.4656   -0.7034 H         1 <0>         0.1509
     29 H4          1.4506    6.9403   -0.0106 H         1 <0>         0.1450
     30 H5          0.2154    2.2820    2.0227 H         1 <0>         0.1143
     31 H6          0.0682    3.3842    3.4334 H         1 <0>         0.0953
     32 H7         -1.2334    3.8013    0.6844 H         1 <0>         0.1330
     33 H8         -2.0742    3.2484    2.1723 H         1 <0>         0.1139
     34 H9         -2.3988    5.7004    1.8596 H         1 <0>         0.1509
     35 H10        -0.2687    6.1034    0.5769 H         1 <0>         0.1493
     36 H11        -0.4159    7.2058    1.9875 H         1 <0>         0.1124
     37 H12         1.0329    5.6865    3.3259 H         1 <0>         0.0972
     38 H13         1.8736    6.2394    1.8379 H         1 <0>         0.1124
     39 H14        -1.5847    6.4335    3.9963 H         1 <0>         0.4580
     40 H15        -0.4966    5.0068    4.0809 H         1 <0>         0.4454
     41 H16         3.2871    3.0894    0.4161 H         1 <0>         0.1687
     42 H17         5.8687    2.3205    3.7275 H         1 <0>         0.1589
     43 H18         4.1815    3.2514    5.2592 H         1 <0>         0.1571
     44 H19        -2.2783    4.7783    4.0735 H         1 <0>         0.4582
@<TRIPOS>BOND
     1    1    6 ar
     2    1    2 ar
     3    1   26 1
     4    2    3 ar
     5    2   27 1
     6    3    4 ar
     7    3   25 1
     8    4    5 ar
     9    4   28 1
    10    5    6 ar
    11    5   29 1
    12    6    7 1
    13    7    8 2
    14    7    9 2
    15    7   10 1
    16   10   15 1
    17   10   11 1
    18   10   17 1
    19   11   12 1
    20   11   30 1
    21   11   31 1
    22   12   13 1
    23   12   32 1
    24   12   33 1
    25   13   14 1
    26   13   16 1
    27   13   34 1
    28   14   15 1
    29   14   35 1
    30   14   36 1
    31   15   37 1
    32   15   38 1
    33   16   39 1
    34   16   40 1
    35   16   44 1
    36   17   22 ar
    37   17   18 ar
    38   18   19 ar
    39   18   41 1
    40   19   20 ar
    41   19   24 1
    42   20   21 ar
    43   20   42 1
    44   21   22 ar
    45   21   43 1
    46   22   23 1
@<TRIPOS>MOLECULE
ZINC28564296
   49    51     0     0     0
SMALL
USER_CHARGES
N-[4-(4-chlorophenyl)sulfonyl-4-(2,5-difluorophenyl)cyclohexyl]-1,1,1-trifluoro-methanesulfonamide
@<TRIPOS>ATOM
      1 C1          3.7264    4.6612   -1.0148 C.ar      1 <0>        -0.0132
      2 C2          4.7398    5.5165   -1.4045 C.ar      1 <0>        -0.1237
      3 C3          4.5705    6.8852   -1.2933 C.ar      1 <0>         0.0205
      4 C4          3.3868    7.3968   -0.7922 C.ar      1 <0>        -0.1270
      5 C5          2.3741    6.5405   -0.4030 C.ar      1 <0>        -0.0129
      6 C6          2.5438    5.1730   -0.5142 C.ar      1 <0>        -0.6610
      7 S1          1.2521    4.0821   -0.0183 S.o2      1 <0>         2.5029
      8 O1          0.0670    4.6577   -0.5506 O.2       1 <0>        -0.9115
      9 O2          1.6838    2.7948   -0.4376 O.2       1 <0>        -0.9232
     10 C7          1.2329    4.1753    1.7932 C.3       1 <0>        -0.4811
     11 C8          0.0798    3.3283    2.3353 C.3       1 <0>        -0.1055
     12 C9         -1.2453    3.8578    1.7832 C.3       1 <0>        -0.1721
     13 C10        -1.4334    5.3129    2.2170 C.3       1 <0>         0.1494
     14 C11        -0.2803    6.1599    1.6750 C.3       1 <0>        -0.1790
     15 C12         1.0448    5.6304    2.2270 C.3       1 <0>        -0.1148
     16 N1         -2.7022    5.8199    1.6885 N.pl3     1 <0>        -1.0766
     17 S2         -4.0660    5.7779    2.6269 S.o2      1 <0>         2.5985
     18 O3         -5.0905    6.3154    1.8019 O.2       1 <0>        -0.8820
     19 O4         -4.1419    4.4389    3.0966 O.2       1 <0>        -0.8708
     20 C13        -3.7182    6.9047    4.0053 C.3       1 <0>        -0.0508
     21 F1         -3.4721    8.1887    3.5073 F         1 <0>        -0.1606
     22 F2         -4.8201    6.9419    4.8666 F         1 <0>        -0.1614
     23 F3         -2.5944    6.4526    4.7051 F         1 <0>        -0.1631
     24 C14         2.5381    3.6538    2.3369 C.ar      1 <0>        -0.0724
     25 C15         3.4836    3.1272    1.4774 C.ar      1 <0>        -0.1688
     26 C16         4.6837    2.6508    1.9765 C.ar      1 <0>         0.1115
     27 C17         4.9337    2.6949    3.3378 C.ar      1 <0>        -0.1178
     28 C18         3.9867    3.2174    4.1975 C.ar      1 <0>        -0.1166
     29 C19         2.7876    3.6970    3.6978 C.ar      1 <0>         0.1143
     30 F4          1.8614    4.2075    4.5385 F         1 <0>        -0.1234
     31 F5          5.6094    2.1391    1.1360 F         1 <0>        -0.1262
     32 Cl1         5.8432    7.9600   -1.7820 Cl        1 <0>        -0.0469
     33 H1          3.8568    3.5930   -1.1057 H         1 <0>         0.1552
     34 H2          5.6638    5.1166   -1.7952 H         1 <0>         0.1491
     35 H3          3.2542    8.4650   -0.7049 H         1 <0>         0.1485
     36 H4          1.4501    6.9397   -0.0114 H         1 <0>         0.1502
     37 H5          0.2151    2.2822    2.0234 H         1 <0>         0.0955
     38 H6          0.0681    3.3848    3.4338 H         1 <0>         0.1079
     39 H7         -1.2336    3.8012    0.6847 H         1 <0>         0.1027
     40 H8         -2.0744    3.2489    2.1729 H         1 <0>         0.1061
     41 H9         -1.4862    5.3866    3.3133 H         1 <0>         0.0953
     42 H10        -0.2687    6.1034    0.5765 H         1 <0>         0.1207
     43 H11        -0.4156    7.2060    1.9869 H         1 <0>         0.0964
     44 H12         1.0332    5.6869    3.3255 H         1 <0>         0.1099
     45 H13         1.8739    6.2393    1.8373 H         1 <0>         0.0925
     46 H14        -2.7198    6.3757    0.7394 H         1 <0>         0.4623
     47 H15         3.2871    3.0894    0.4161 H         1 <0>         0.1668
     48 H16         5.8687    2.3205    3.7275 H         1 <0>         0.1527
     49 H17         4.1815    3.2514    5.2592 H         1 <0>         0.1535
@<TRIPOS>BOND
     1    1    6 ar
     2    1    2 ar
     3    1   33 1
     4    2    3 ar
     5    2   34 1
     6    3    4 ar
     7    3   32 1
     8    4    5 ar
     9    4   35 1
    10    5    6 ar
    11    5   36 1
    12    6    7 1
    13    7    8 2
    14    7    9 2
    15    7   10 1
    16   10   15 1
    17   10   11 1
    18   10   24 1
    19   11   12 1
    20   11   37 1
    21   11   38 1
    22   12   13 1
    23   12   39 1
    24   12   40 1
    25   13   14 1
    26   13   16 1
    27   13   41 1
    28   14   15 1
    29   14   42 1
    30   14   43 1
    31   15   44 1
    32   15   45 1
    33   16   17 1
    34   16   46 1
    35   17   18 2
    36   17   19 2
    37   17   20 1
    38   20   21 1
    39   20   22 1
    40   20   23 1
    41   24   29 ar
    42   24   25 ar
    43   25   26 ar
    44   25   47 1
    45   26   27 ar
    46   26   31 1
    47   27   28 ar
    48   27   48 1
    49   28   29 ar
    50   28   49 1
    51   29   30 1
@<TRIPOS>MOLECULE
ZINC28564296
   48    50     0     0     0
SMALL
USER_CHARGES
N-[4-(4-chlorophenyl)sulfonyl-4-(2,5-difluorophenyl)cyclohexyl]-1,1,1-trifluoro-methanesulfonamide
@<TRIPOS>ATOM
      1 C1          3.7264    4.6612   -1.0148 C.ar      1 <0>        -0.0166
      2 C2          4.7398    5.5165   -1.4045 C.ar      1 <0>        -0.1293
      3 C3          4.5705    6.8852   -1.2933 C.ar      1 <0>         0.0163
      4 C4          3.3868    7.3968   -0.7922 C.ar      1 <0>        -0.1282
      5 C5          2.3741    6.5405   -0.4030 C.ar      1 <0>        -0.0063
      6 C6          2.5438    5.1730   -0.5142 C.ar      1 <0>        -0.6566
      7 S1          1.2521    4.0821   -0.0183 S.o2      1 <0>         2.4953
      8 O1          0.0670    4.6577   -0.5506 O.2       1 <0>        -0.8890
      9 O2          1.6838    2.7948   -0.4376 O.2       1 <0>        -0.9367
     10 C7          1.2329    4.1753    1.7932 C.3       1 <0>        -0.4731
     11 C8          0.0798    3.3283    2.3353 C.3       1 <0>        -0.1033
     12 C9         -1.2453    3.8578    1.7832 C.3       1 <0>        -0.1611
     13 C10        -1.4334    5.3129    2.2170 C.3       1 <0>         0.1451
     14 C11        -0.2803    6.1599    1.6750 C.3       1 <0>        -0.1473
     15 C12         1.0448    5.6304    2.2270 C.3       1 <0>        -0.1155
     16 N1         -2.7022    5.8199    1.6885 N.2       1 <0>        -0.9846
     17 S2         -4.0660    5.7779    2.6269 S.o2      1 <0>         2.4253
     18 O3         -5.0905    6.3154    1.8019 O.2       1 <0>        -0.9513
     19 O4         -4.1419    4.4389    3.0966 O.2       1 <0>        -0.9959
     20 C13        -3.7182    6.9047    4.0053 C.3       1 <0>        -0.0746
     21 F1         -3.4721    8.1887    3.5073 F         1 <0>        -0.1801
     22 F2         -4.8201    6.9419    4.8666 F         1 <0>        -0.2039
     23 F3         -2.5944    6.4526    4.7051 F         1 <0>        -0.1858
     24 C14         2.5381    3.6538    2.3369 C.ar      1 <0>        -0.0635
     25 C15         3.4836    3.1272    1.4774 C.ar      1 <0>        -0.1694
     26 C16         4.6837    2.6508    1.9765 C.ar      1 <0>         0.1048
     27 C17         4.9337    2.6949    3.3378 C.ar      1 <0>        -0.1250
     28 C18         3.9867    3.2174    4.1975 C.ar      1 <0>        -0.1215
     29 C19         2.7876    3.6970    3.6978 C.ar      1 <0>         0.1164
     30 F4          1.8614    4.2075    4.5385 F         1 <0>        -0.1194
     31 F5          5.6094    2.1391    1.1360 F         1 <0>        -0.1313
     32 Cl1         5.8432    7.9600   -1.7820 Cl        1 <0>        -0.0590
     33 H1          3.8568    3.5930   -1.1057 H         1 <0>         0.1529
     34 H2          5.6638    5.1166   -1.7952 H         1 <0>         0.1444
     35 H3          3.2542    8.4650   -0.7049 H         1 <0>         0.1469
     36 H4          1.4501    6.9397   -0.0114 H         1 <0>         0.1580
     37 H5          0.2151    2.2822    2.0234 H         1 <0>         0.0767
     38 H6          0.0681    3.3848    3.4338 H         1 <0>         0.0985
     39 H7         -1.2336    3.8012    0.6847 H         1 <0>         0.0878
     40 H8         -2.0744    3.2489    2.1729 H         1 <0>         0.0897
     41 H9         -1.4862    5.3866    3.3133 H         1 <0>         0.0462
     42 H10        -0.2687    6.1034    0.5765 H         1 <0>         0.1072
     43 H11        -0.4156    7.2060    1.9869 H         1 <0>         0.0781
     44 H12         1.0332    5.6869    3.3255 H         1 <0>         0.0996
     45 H13         1.8739    6.2393    1.8373 H         1 <0>         0.0741
     46 H14         3.2871    3.0894    0.4161 H         1 <0>         0.1672
     47 H15         5.8687    2.3205    3.7275 H         1 <0>         0.1478
     48 H16         4.1815    3.2514    5.2592 H         1 <0>         0.1499
@<TRIPOS>BOND
     1    1    6 ar
     2    1    2 ar
     3    1   33 1
     4    2    3 ar
     5    2   34 1
     6    3    4 ar
     7    3   32 1
     8    4    5 ar
     9    4   35 1
    10    5    6 ar
    11    5   36 1
    12    6    7 1
    13    7    8 2
    14    7    9 2
    15    7   10 1
    16   10   15 1
    17   10   11 1
    18   10   24 1
    19   11   12 1
    20   11   37 1
    21   11   38 1
    22   12   13 1
    23   12   39 1
    24   12   40 1
    25   13   14 1
    26   13   16 1
    27   13   41 1
    28   14   15 1
    29   14   42 1
    30   14   43 1
    31   15   44 1
    32   15   45 1
    33   16   17 1
    34   17   18 2
    35   17   19 2
    36   17   20 1
    37   20   21 1
    38   20   22 1
    39   20   23 1
    40   24   29 ar
    41   24   25 ar
    42   25   26 ar
    43   25   46 1
    44   26   27 ar
    45   26   31 1
    46   27   28 ar
    47   27   47 1
    48   28   29 ar
    49   28   48 1
    50   29   30 1
@<TRIPOS>MOLECULE
ZINC22056928
   57    60     0     0     0
SMALL
USER_CHARGES
(2S)-2-[[2-(3,5-difluorophenyl)acetyl]amino]-N-[(7S)-5-methyl-6-oxo-7H-benzo[d][1]benzazepin-7-yl]propanamide
@<TRIPOS>ATOM
      1 C1         -0.7339    1.9542    1.2689 C.3       1 <0>        -0.1577
      2 C2         -0.0178    1.4608    0.0101 C.3       1 <0>         0.1324
      3 H1         -0.5435    1.7904   -0.8982 H         1 <0>         0.1161
      4 C3          1.3960    1.9824   -0.0006 C.2       1 <0>         0.5155
      5 O1          2.3284    1.2069   -0.0137 O.2       1 <0>        -0.5248
      6 N1          1.6243    3.3107    0.0043 N.am      1 <0>        -0.7264
      7 C4          2.9987    3.8178   -0.0061 C.3       1 <0>         0.1820
      8 H2          3.6049    3.1338   -0.6182 H         1 <0>         0.1342
      9 C5          3.0190    5.2067   -0.5879 C.ar      1 <0>        -0.0969
     10 C6          3.8171    5.4545   -1.6918 C.ar      1 <0>        -0.0912
     11 C7          3.8665    6.7196   -2.2456 C.ar      1 <0>        -0.1120
     12 C8          3.1170    7.7447   -1.6965 C.ar      1 <0>        -0.1032
     13 C9          2.3178    7.5057   -0.6002 C.ar      1 <0>        -0.1064
     14 C10         2.2614    6.2241   -0.0361 C.ar      1 <0>        -0.0284
     15 C11         1.3781    6.0224    1.1367 C.ar      1 <0>        -0.0827
     16 C12         0.1406    6.6826    1.1113 C.ar      1 <0>        -0.0852
     17 C13        -0.7478    6.5474    2.1536 C.ar      1 <0>        -0.1278
     18 C14        -0.4219    5.7534    3.2396 C.ar      1 <0>        -0.0852
     19 C15         0.7910    5.1023    3.2779 C.ar      1 <0>        -0.1426
     20 C16         1.7058    5.2315    2.2281 C.ar      1 <0>         0.1746
     21 N2          2.9035    4.5439    2.3595 N.am      1 <0>        -0.5458
     22 C17         3.5265    3.8684    1.3996 C.2       1 <0>         0.5182
     23 O2          4.5504    3.2754    1.6661 O.2       1 <0>        -0.5116
     24 C18         3.5407    4.5648    3.6785 C.3       1 <0>         0.0542
     25 N3          0.0021   -0.0041    0.0020 N.am      1 <0>        -0.7283
     26 C19        -1.0512   -0.6896   -0.4849 C.2       1 <0>         0.5219
     27 O3         -2.0154   -0.0939   -0.9164 O.2       1 <0>        -0.5324
     28 C20        -1.0308   -2.1965   -0.4932 C.3       1 <0>        -0.1050
     29 C21        -2.3172   -2.7131   -1.0842 C.ar      1 <0>        -0.0089
     30 C22        -3.4004   -2.9678   -0.2645 C.ar      1 <0>        -0.1499
     31 C23        -4.5847   -3.4371   -0.8071 C.ar      1 <0>         0.1340
     32 C24        -4.6800   -3.6618   -2.1696 C.ar      1 <0>        -0.1918
     33 C25        -3.5927   -3.4117   -2.9889 C.ar      1 <0>         0.1343
     34 C26        -2.4111   -2.9370   -2.4448 C.ar      1 <0>        -0.1498
     35 F1         -3.6843   -3.6301   -4.3190 F         1 <0>        -0.1294
     36 F2         -5.6453   -3.6804   -0.0064 F         1 <0>        -0.1296
     37 H3         -1.7659    1.5735    1.2767 H         1 <0>         0.0777
     38 H4         -0.7488    3.0541    1.2749 H         1 <0>         0.0698
     39 H5         -0.2019    1.5898    2.1600 H         1 <0>         0.0648
     40 H6          0.7786    4.0140    0.0161 H         1 <0>         0.4276
     41 H7          4.4036    4.6558   -2.1214 H         1 <0>         0.1318
     42 H8          4.4898    6.9079   -3.1073 H         1 <0>         0.1315
     43 H9          3.1589    8.7340   -2.1278 H         1 <0>         0.1308
     44 H10         1.7336    8.3080   -0.1743 H         1 <0>         0.1314
     45 H11        -0.1172    7.3033    0.2659 H         1 <0>         0.1339
     46 H12        -1.6980    7.0599    2.1241 H         1 <0>         0.1323
     47 H13        -1.1191    5.6444    4.0571 H         1 <0>         0.1321
     48 H14         1.0384    4.4844    4.1285 H         1 <0>         0.1311
     49 H15         4.4752    3.9857    3.6434 H         1 <0>         0.1020
     50 H16         2.8615    4.1203    4.4209 H         1 <0>         0.0710
     51 H17         3.7638    5.6041    3.9615 H         1 <0>         0.0711
     52 H18         0.8767   -0.5444    0.3933 H         1 <0>         0.4345
     53 H19        -0.1821   -2.5484   -1.0981 H         1 <0>         0.1152
     54 H20        -0.9256   -2.5675    0.5370 H         1 <0>         0.1146
     55 H21        -3.3243   -2.7970    0.7992 H         1 <0>         0.1416
     56 H22        -5.6018   -4.0324   -2.5931 H         1 <0>         0.1493
     57 H23        -1.5627   -2.7415   -3.0838 H         1 <0>         0.1418
@<TRIPOS>BOND
     1    1    2 1
     2    1   37 1
     3    1   38 1
     4    1   39 1
     5    2    3 1
     6    2    4 1
     7    2   25 1
     8    4    5 2
     9    4    6 am
    10    6    7 1
    11    6   40 1
    12    7    8 1
    13    7   22 1
    14    7    9 1
    15    9   14 ar
    16    9   10 ar
    17   10   11 ar
    18   10   41 1
    19   11   12 ar
    20   11   42 1
    21   12   13 ar
    22   12   43 1
    23   13   14 ar
    24   13   44 1
    25   14   15 1
    26   15   20 ar
    27   15   16 ar
    28   16   17 ar
    29   16   45 1
    30   17   18 ar
    31   17   46 1
    32   18   19 ar
    33   18   47 1
    34   19   20 ar
    35   19   48 1
    36   20   21 1
    37   21   22 am
    38   21   24 1
    39   22   23 2
    40   24   49 1
    41   24   50 1
    42   24   51 1
    43   25   26 am
    44   25   52 1
    45   26   27 2
    46   26   28 1
    47   28   29 1
    48   28   53 1
    49   28   54 1
    50   29   34 ar
    51   29   30 ar
    52   30   31 ar
    53   30   55 1
    54   31   32 ar
    55   31   36 1
    56   32   33 ar
    57   32   56 1
    58   33   34 ar
    59   33   35 1
    60   34   57 1
@<TRIPOS>MOLECULE
ZINC27108312
   57    60     0     0     0
SMALL
USER_CHARGES
(2S)-2-[[2-(3,5-difluorophenyl)acetyl]amino]-N-[(7R)-5-methyl-6-oxo-7H-benzo[d][1]benzazepin-7-yl]propanamide
@<TRIPOS>ATOM
      1 C1         -1.5743    7.7157   -3.5135 C.3       1 <0>        -0.1594
      2 C2         -0.1317    7.6812   -3.0050 C.3       1 <0>         0.1329
      3 H1          0.4846    7.0007   -3.6109 H         1 <0>         0.1143
      4 C3          0.4495    9.0709   -3.0480 C.2       1 <0>         0.5154
      5 O1          0.8419    9.5960   -2.0275 O.2       1 <0>        -0.5249
      6 N1          0.5333    9.7304   -4.2204 N.am      1 <0>        -0.7264
      7 C4          1.0983   11.0814   -4.2622 C.3       1 <0>         0.1823
      8 H2          0.8089   11.5959   -3.3340 H         1 <0>         0.1345
      9 C5          0.5616   11.8151   -5.4629 C.ar      1 <0>        -0.0966
     10 C6         -0.1058   13.0121   -5.2663 C.ar      1 <0>        -0.0911
     11 C7         -0.6040   13.7163   -6.3460 C.ar      1 <0>        -0.1124
     12 C8         -0.4367   13.2253   -7.6286 C.ar      1 <0>        -0.1033
     13 C9          0.2225   12.0328   -7.8315 C.ar      1 <0>        -0.1065
     14 C10         0.7272   11.3128   -6.7402 C.ar      1 <0>        -0.0274
     15 C11         1.4197   10.0321   -7.0167 C.ar      1 <0>        -0.0836
     16 C12         0.8651    9.2223   -8.0189 C.ar      1 <0>        -0.0855
     17 C13         1.4363    8.0117   -8.3383 C.ar      1 <0>        -0.1274
     18 C14         2.5688    7.5844   -7.6669 C.ar      1 <0>        -0.0843
     19 C15         3.1248    8.3715   -6.6829 C.ar      1 <0>        -0.1428
     20 C16         2.5580    9.6054   -6.3485 C.ar      1 <0>         0.1739
     21 N2          3.1923   10.3302   -5.3501 N.am      1 <0>        -0.5461
     22 C17         2.5945   10.9974   -4.3686 C.2       1 <0>         0.5171
     23 O2          3.2765   11.5551   -3.5349 O.2       1 <0>        -0.5118
     24 C18         4.6566   10.3628   -5.3803 C.3       1 <0>         0.0540
     25 N3         -0.1116    7.1859   -1.6264 N.am      1 <0>        -0.7283
     26 C19        -0.0912    5.8597   -1.3870 C.2       1 <0>         0.5217
     27 O3         -0.0895    5.0763   -2.3129 O.2       1 <0>        -0.5326
     28 C20        -0.0705    5.3502    0.0311 C.3       1 <0>        -0.1050
     29 C21        -0.0501    3.8434    0.0233 C.ar      1 <0>        -0.0089
     30 C22         1.1563    3.1692    0.0081 C.ar      1 <0>        -0.1499
     31 C23         1.1763    1.7847    0.0004 C.ar      1 <0>         0.1342
     32 C24        -0.0126    1.0758    0.0080 C.ar      1 <0>        -0.1917
     33 C25        -1.2203    1.7521    0.0174 C.ar      1 <0>         0.1340
     34 C26        -1.2378    3.1367    0.0308 C.ar      1 <0>        -0.1496
     35 F1         -2.3815    1.0615    0.0186 F         1 <0>        -0.1295
     36 F2          2.3557    1.1260   -0.0140 F         1 <0>        -0.1295
     37 H3         -1.9985    6.7013   -3.4821 H         1 <0>         0.0775
     38 H4         -1.5894    8.0876   -4.5486 H         1 <0>         0.0706
     39 H5         -2.1721    8.3831   -2.8754 H         1 <0>         0.0675
     40 H6          0.1774    9.2542   -5.1459 H         1 <0>         0.4276
     41 H7         -0.2373   13.3972   -4.2659 H         1 <0>         0.1319
     42 H8         -1.1241   14.6496   -6.1886 H         1 <0>         0.1313
     43 H9         -0.8239   13.7776   -8.4721 H         1 <0>         0.1306
     44 H10         0.3509   11.6520   -8.8340 H         1 <0>         0.1313
     45 H11        -0.0187    9.5520   -8.5447 H         1 <0>         0.1340
     46 H12         1.0013    7.3957   -9.1114 H         1 <0>         0.1325
     47 H13         3.0168    6.6334   -7.9148 H         1 <0>         0.1324
     48 H14         4.0088    8.0319   -6.1638 H         1 <0>         0.1311
     49 H15         5.0273   10.9673   -4.5394 H         1 <0>         0.1021
     50 H16         4.9940   10.8074   -6.3282 H         1 <0>         0.0715
     51 H17         5.0480    9.3382   -5.2960 H         1 <0>         0.0710
     52 H18        -0.1132    7.8964   -0.7866 H         1 <0>         0.4347
     53 H19         0.8276    5.7264    0.5428 H         1 <0>         0.1150
     54 H20        -0.9684    5.7020    0.5603 H         1 <0>         0.1150
     55 H21         2.0838    3.7225    0.0026 H         1 <0>         0.1415
     56 H22         0.0021   -0.0041    0.0020 H         1 <0>         0.1493
     57 H23        -2.1799    3.6645    0.0430 H         1 <0>         0.1418
@<TRIPOS>BOND
     1    1    2 1
     2    1   37 1
     3    1   38 1
     4    1   39 1
     5    2    3 1
     6    2    4 1
     7    2   25 1
     8    4    5 2
     9    4    6 am
    10    6    7 1
    11    6   40 1
    12    7    8 1
    13    7   22 1
    14    7    9 1
    15    9   14 ar
    16    9   10 ar
    17   10   11 ar
    18   10   41 1
    19   11   12 ar
    20   11   42 1
    21   12   13 ar
    22   12   43 1
    23   13   14 ar
    24   13   44 1
    25   14   15 1
    26   15   20 ar
    27   15   16 ar
    28   16   17 ar
    29   16   45 1
    30   17   18 ar
    31   17   46 1
    32   18   19 ar
    33   18   47 1
    34   19   20 ar
    35   19   48 1
    36   20   21 1
    37   21   22 am
    38   21   24 1
    39   22   23 2
    40   24   49 1
    41   24   50 1
    42   24   51 1
    43   25   26 am
    44   25   52 1
    45   26   27 2
    46   26   28 1
    47   28   29 1
    48   28   53 1
    49   28   54 1
    50   29   34 ar
    51   29   30 ar
    52   30   31 ar
    53   30   55 1
    54   31   32 ar
    55   31   36 1
    56   32   33 ar
    57   32   56 1
    58   33   34 ar
    59   33   35 1
    60   34   57 1
