@<TRIPOS>MOLECULE
ZINC26508883
   81    80     0     0     0
SMALL
USER_CHARGES
ethyl (3R,4R)-3-hydroxy-6-methyl-4-[[(2R)-3-methyl-2-[[(2R)-3-methyl-2-(3-methylbutanoylamino)butanoyl]amino]butanoyl]amino]heptanoate
@<TRIPOS>ATOM
      1 C1         11.8154    1.0557    4.5363 C.3       1 <0>        -0.1558
      2 C2         10.9015    2.1588    5.0736 C.3       1 <0>         0.0610
      3 O1          9.5265    1.8691    4.7079 O.3       1 <0>        -0.3616
      4 C3          8.5921    2.7465    5.1064 C.2       1 <0>         0.4623
      5 O2          8.9125    3.7243    5.7398 O.2       1 <0>        -0.4936
      6 C4          7.1434    2.5122    4.7637 C.3       1 <0>        -0.1110
      7 C5          6.2943    3.6512    5.3316 C.3       1 <0>         0.1209
      8 H1          6.5035    3.8103    6.3997 H         1 <0>         0.0823
      9 C6          4.8130    3.3498    5.0952 C.3       1 <0>         0.1192
     10 H2          4.5326    2.3943    5.5625 H         1 <0>         0.0973
     11 C7          3.9643    4.4929    5.6553 C.3       1 <0>        -0.1255
     12 C8          4.1093    4.5372    7.1778 C.3       1 <0>        -0.0980
     13 C9          3.3579    5.7517    7.7266 C.3       1 <0>        -0.1489
     14 C10         3.5247    3.2595    7.7832 C.3       1 <0>        -0.1504
     15 N1          4.5652    3.2167    3.6574 N.am      1 <0>        -0.7288
     16 C11         3.4661    2.5708    3.2201 C.2       1 <0>         0.5185
     17 O3          2.6393    2.1746    4.0140 O.2       1 <0>        -0.5342
     18 C12         3.2645    2.3408    1.7444 C.3       1 <0>         0.1378
     19 H3          3.6604    3.1957    1.1765 H         1 <0>         0.1058
     20 C13         3.9557    1.0396    1.3319 C.3       1 <0>        -0.0953
     21 C14         3.6687    0.7553   -0.1438 C.3       1 <0>        -0.1374
     22 C15         5.4652    1.1755    1.5410 C.3       1 <0>        -0.1585
     23 N2          1.8313    2.2450    1.4564 N.am      1 <0>        -0.7226
     24 C16         1.3700    2.5416    0.2253 C.2       1 <0>         0.5233
     25 O4          2.1476    2.8193   -0.6630 O.2       1 <0>        -0.5335
     26 C17        -0.1120    2.5282   -0.0475 C.3       1 <0>         0.1389
     27 H4         -0.5949    1.7460    0.5566 H         1 <0>         0.1054
     28 C18        -0.7006    3.9055    0.2648 C.3       1 <0>        -0.0945
     29 C19        -2.2147    3.8743    0.0475 C.3       1 <0>        -0.1386
     30 C20        -0.4016    4.2697    1.7204 C.3       1 <0>        -0.1549
     31 N3         -0.3462    2.2053   -1.4572 N.am      1 <0>        -0.7317
     32 C21        -1.5139    1.6493   -1.8362 C.2       1 <0>         0.5177
     33 O5         -2.3709    1.4162   -1.0103 O.2       1 <0>        -0.5326
     34 C22        -1.7548    1.3172   -3.2863 C.3       1 <0>        -0.1376
     35 C23        -3.1464    0.7012   -3.4441 C.3       1 <0>        -0.0797
     36 C24        -4.2086    1.7423   -3.0855 C.3       1 <0>        -0.1558
     37 C25        -3.3431    0.2500   -4.8928 C.3       1 <0>        -0.1508
     38 O6          6.6414    4.8747    4.6800 O.3       1 <0>        -0.5843
     39 H5         12.8571    1.2752    4.8134 H         1 <0>         0.0819
     40 H6         11.7293    1.0096    3.4406 H         1 <0>         0.0678
     41 H7         11.5168    0.0893    4.9686 H         1 <0>         0.0676
     42 H8         10.9876    2.2049    6.1693 H         1 <0>         0.0705
     43 H9         11.2000    3.1253    4.6413 H         1 <0>         0.0713
     44 H10         7.0262    2.4774    3.6705 H         1 <0>         0.1145
     45 H11         6.8136    1.5571    5.1984 H         1 <0>         0.1198
     46 H12         4.3053    5.4468    5.2266 H         1 <0>         0.0661
     47 H13         2.9089    4.3290    5.3921 H         1 <0>         0.0786
     48 H14         5.1741    4.6145    7.4426 H         1 <0>         0.0716
     49 H15         3.4622    5.7835    8.8212 H         1 <0>         0.0569
     50 H16         2.2930    5.6744    7.4618 H         1 <0>         0.0556
     51 H17         3.7783    6.6703    7.2914 H         1 <0>         0.0548
     52 H18         3.6290    3.2914    8.8778 H         1 <0>         0.0551
     53 H19         4.0650    2.3863    7.3887 H         1 <0>         0.0544
     54 H20         2.4599    3.1822    7.5184 H         1 <0>         0.0586
     55 H21         5.2762    3.6439    2.9349 H         1 <0>         0.4272
     56 H22         3.5737    0.2108    1.9460 H         1 <0>         0.0770
     57 H23         4.1656   -0.1802   -0.4404 H         1 <0>         0.0504
     58 H24         4.0507    1.5841   -0.7579 H         1 <0>         0.0696
     59 H25         2.5834    0.6576   -0.2940 H         1 <0>         0.0526
     60 H26         5.9621    0.2400    1.2444 H         1 <0>         0.0663
     61 H27         5.6714    1.3799    2.6020 H         1 <0>         0.0593
     62 H28         5.8473    2.0043    0.9269 H         1 <0>         0.0621
     63 H29         1.1316    1.9310    2.2450 H         1 <0>         0.4344
     64 H30        -0.2501    4.6564   -0.4010 H         1 <0>         0.0768
     65 H31        -2.6378    4.8645    0.2720 H         1 <0>         0.0505
     66 H32        -2.6653    3.1235    0.7133 H         1 <0>         0.0647
     67 H33        -2.4296    3.6125   -0.9990 H         1 <0>         0.0581
     68 H34        -0.8248    5.2599    1.9449 H         1 <0>         0.0631
     69 H35         0.6870    4.2922    1.8765 H         1 <0>         0.0577
     70 H36        -0.8521    3.5189    2.3862 H         1 <0>         0.0613
     71 H37         0.4310    2.4167   -2.2063 H         1 <0>         0.4308
     72 H38        -1.6899    2.2355   -3.8884 H         1 <0>         0.0938
     73 H39        -0.9951    0.5994   -3.6292 H         1 <0>         0.0933
     74 H40        -3.2418   -0.1658   -2.7738 H         1 <0>         0.0775
     75 H41        -5.2091    1.2994   -3.1990 H         1 <0>         0.0522
     76 H42        -4.1132    2.6093   -3.7558 H         1 <0>         0.0469
     77 H43        -4.0671    2.0667   -2.0440 H         1 <0>         0.0755
     78 H44        -4.3436   -0.1929   -5.0063 H         1 <0>         0.0586
     79 H45        -2.5794   -0.4985   -5.1506 H         1 <0>         0.0546
     80 H46        -3.2477    1.1170   -5.5630 H         1 <0>         0.0552
     81 H47         6.1324    5.8094    4.9578 H         1 <0>         0.4106
@<TRIPOS>BOND
     1    1    2 1
     2    1   39 1
     3    1   40 1
     4    1   41 1
     5    2    3 1
     6    2   42 1
     7    2   43 1
     8    3    4 1
     9    4    5 2
    10    4    6 1
    11    6    7 1
    12    6   44 1
    13    6   45 1
    14    7    8 1
    15    7    9 1
    16    7   38 1
    17    9   10 1
    18    9   11 1
    19    9   15 1
    20   11   12 1
    21   11   46 1
    22   11   47 1
    23   12   13 1
    24   12   14 1
    25   12   48 1
    26   13   49 1
    27   13   50 1
    28   13   51 1
    29   14   52 1
    30   14   53 1
    31   14   54 1
    32   15   16 am
    33   15   55 1
    34   16   17 2
    35   16   18 1
    36   18   19 1
    37   18   20 1
    38   18   23 1
    39   20   21 1
    40   20   22 1
    41   20   56 1
    42   21   57 1
    43   21   58 1
    44   21   59 1
    45   22   60 1
    46   22   61 1
    47   22   62 1
    48   23   24 am
    49   23   63 1
    50   24   25 2
    51   24   26 1
    52   26   27 1
    53   26   28 1
    54   26   31 1
    55   28   29 1
    56   28   30 1
    57   28   64 1
    58   29   65 1
    59   29   66 1
    60   29   67 1
    61   30   68 1
    62   30   69 1
    63   30   70 1
    64   31   32 am
    65   31   71 1
    66   32   33 2
    67   32   34 1
    68   34   35 1
    69   34   72 1
    70   34   73 1
    71   35   36 1
    72   35   37 1
    73   35   74 1
    74   36   75 1
    75   36   76 1
    76   36   77 1
    77   37   78 1
    78   37   79 1
    79   37   80 1
    80   38   81 1
@<TRIPOS>MOLECULE
ZINC13536503
   81    80     0     0     0
SMALL
USER_CHARGES
ethyl (3S,4S)-3-hydroxy-6-methyl-4-[[(2S)-3-methyl-2-[[(2S)-3-methyl-2-(3-methylbutanoylamino)butanoyl]amino]butanoyl]amino]heptanoate
@<TRIPOS>ATOM
      1 C1         -1.4226    1.0845  -10.9292 C.3       1 <0>        -0.1539
      2 C2         -0.4393    0.9897   -9.7608 C.3       1 <0>         0.0626
      3 O1         -1.1573    1.1537   -8.5094 O.3       1 <0>        -0.3617
      4 C3         -0.4344    1.0961   -7.3800 C.2       1 <0>         0.4589
      5 O2          0.7589    0.9148   -7.4351 O.2       1 <0>        -0.4890
      6 C4         -1.1110    1.2577   -6.0431 C.3       1 <0>        -0.1493
      7 C5         -0.0689    1.1517   -4.9279 C.3       1 <0>         0.1140
      8 H1          0.7258    1.8767   -5.1032 H         1 <0>         0.1242
      9 C6         -0.7334    1.4392   -3.5801 C.3       1 <0>         0.1131
     10 H2         -1.1543    2.4446   -3.5896 H         1 <0>         0.1069
     11 C7          0.3087    1.3332   -2.4648 C.3       1 <0>        -0.1206
     12 C8         -0.3255    1.7417   -1.1337 C.3       1 <0>        -0.0915
     13 C9         -0.7132    3.2208   -1.1861 C.3       1 <0>        -0.1399
     14 C10         0.6779    1.5173   -0.0006 C.3       1 <0>        -0.1489
     15 N1         -1.8016    0.4647   -3.3445 N.am      1 <0>        -0.7226
     16 C11        -2.8299    0.7756   -2.5306 C.2       1 <0>         0.5169
     17 O3         -2.8709    1.8621   -1.9933 O.2       1 <0>        -0.5127
     18 C12        -3.9288   -0.2268   -2.2883 C.3       1 <0>         0.1328
     19 H3         -3.5064   -1.1291   -1.8460 H         1 <0>         0.1142
     20 C13        -4.6018   -0.5770   -3.6169 C.3       1 <0>        -0.1005
     21 C14        -5.7174   -1.5947   -3.3709 C.3       1 <0>        -0.1381
     22 C15        -5.1946    0.6895   -4.2377 C.3       1 <0>        -0.1505
     23 N2         -4.9202    0.3467   -1.3749 N.am      1 <0>        -0.7041
     24 C16        -5.6914   -0.4631   -0.6226 C.2       1 <0>         0.5201
     25 O4         -5.6277   -1.6658   -0.7656 O.2       1 <0>        -0.5260
     26 C17        -6.6329    0.1257    0.3962 C.3       1 <0>         0.1353
     27 H4         -7.1248    1.0015   -0.0271 H         1 <0>         0.1094
     28 C18        -5.8448    0.5358    1.6419 C.3       1 <0>        -0.0988
     29 C19        -6.7890    1.1968    2.6480 C.3       1 <0>        -0.1378
     30 C20        -5.2113   -0.7043    2.2756 C.3       1 <0>        -0.1471
     31 N3         -7.6416   -0.8714    0.7628 N.am      1 <0>        -0.7146
     32 C21        -8.8409   -0.4754    1.2331 C.2       1 <0>         0.5169
     33 O5         -9.0851    0.7065    1.3528 O.2       1 <0>        -0.5280
     34 C22        -9.8785   -1.5011    1.6101 C.3       1 <0>        -0.1371
     35 C23       -11.1385   -0.7919    2.1106 C.3       1 <0>        -0.0795
     36 C24       -12.2347   -1.8259    2.3753 C.3       1 <0>        -0.1497
     37 C25       -10.8212   -0.0421    3.4059 C.3       1 <0>        -0.1545
     38 O6          0.4830   -0.1664   -4.9154 O.3       1 <0>        -0.5347
     39 H5         -2.1741    0.3006  -10.8361 H         1 <0>         0.0669
     40 H6         -1.9105    2.0591  -10.9153 H         1 <0>         0.0671
     41 H7         -0.8835    0.9615  -11.8686 H         1 <0>         0.0815
     42 H8          0.3122    1.7737   -9.8539 H         1 <0>         0.0706
     43 H9          0.0486    0.0152   -9.7747 H         1 <0>         0.0709
     44 H10        -1.8587    0.4746   -5.9174 H         1 <0>         0.1076
     45 H11        -1.5952    2.2332   -5.9965 H         1 <0>         0.1169
     46 H12         1.1464    1.9945   -2.6863 H         1 <0>         0.0746
     47 H13         0.6652    0.3053   -2.3972 H         1 <0>         0.0725
     48 H14        -1.2158    1.1388   -0.9553 H         1 <0>         0.0722
     49 H15         0.1772    3.8237   -1.3646 H         1 <0>         0.0414
     50 H16        -1.4280    3.3807   -1.9934 H         1 <0>         0.0706
     51 H17        -1.1650    3.5118   -0.2378 H         1 <0>         0.0478
     52 H18         0.2261    1.8083    0.9477 H         1 <0>         0.0524
     53 H19         0.9541    0.4635    0.0367 H         1 <0>         0.0499
     54 H20         1.5683    2.1202   -0.1791 H         1 <0>         0.0526
     55 H21        -1.7688   -0.4043   -3.7742 H         1 <0>         0.3965
     56 H22        -3.8641   -1.0037   -4.2965 H         1 <0>         0.0800
     57 H23        -6.1968   -1.8442   -4.3174 H         1 <0>         0.0512
     58 H24        -5.2950   -2.4970   -2.9286 H         1 <0>         0.0664
     59 H25        -6.4551   -1.1680   -2.6913 H         1 <0>         0.0576
     60 H26        -4.3998    1.4145   -4.4130 H         1 <0>         0.0544
     61 H27        -5.6741    0.4400   -5.1843 H         1 <0>         0.0621
     62 H28        -5.9323    1.1162   -3.5581 H         1 <0>         0.0589
     63 H29        -5.0217    1.3093   -1.3116 H         1 <0>         0.4125
     64 H30        -5.0620    1.2404    1.3610 H         1 <0>         0.0829
     65 H31        -7.5087    0.4617    3.0082 H         1 <0>         0.0556
     66 H32        -6.2121    1.5825    3.4885 H         1 <0>         0.0517
     67 H33        -7.3190    2.0173    2.1641 H         1 <0>         0.0673
     68 H34        -4.5386   -1.1753    1.5588 H         1 <0>         0.0542
     69 H35        -4.6498   -0.4122    3.1631 H         1 <0>         0.0586
     70 H36        -5.9940   -1.4090    2.5565 H         1 <0>         0.0582
     71 H37        -7.4463   -1.8167    0.6670 H         1 <0>         0.4098
     72 H38       -10.1246   -2.1067    0.7379 H         1 <0>         0.0936
     73 H39        -9.4853   -2.1428    2.3987 H         1 <0>         0.0937
     74 H40       -11.4812   -0.0843    1.3557 H         1 <0>         0.0776
     75 H41       -11.8920   -2.5336    3.1302 H         1 <0>         0.0550
     76 H42       -13.1323   -1.3207    2.7318 H         1 <0>         0.0586
     77 H43       -12.4607   -2.3602    1.4525 H         1 <0>         0.0544
     78 H44       -10.0402    0.6946    3.2173 H         1 <0>         0.0746
     79 H45       -11.7188    0.4632    3.7625 H         1 <0>         0.0524
     80 H46       -10.4785   -0.7497    4.1608 H         1 <0>         0.0470
     81 H47        -0.1690   -0.8643   -4.7641 H         1 <0>         0.3654
@<TRIPOS>BOND
     1    1    2 1
     2    1   39 1
     3    1   40 1
     4    1   41 1
     5    2    3 1
     6    2   42 1
     7    2   43 1
     8    3    4 1
     9    4    5 2
    10    4    6 1
    11    6    7 1
    12    6   44 1
    13    6   45 1
    14    7    8 1
    15    7    9 1
    16    7   38 1
    17    9   10 1
    18    9   11 1
    19    9   15 1
    20   11   12 1
    21   11   46 1
    22   11   47 1
    23   12   13 1
    24   12   14 1
    25   12   48 1
    26   13   49 1
    27   13   50 1
    28   13   51 1
    29   14   52 1
    30   14   53 1
    31   14   54 1
    32   15   16 am
    33   15   55 1
    34   16   17 2
    35   16   18 1
    36   18   19 1
    37   18   20 1
    38   18   23 1
    39   20   21 1
    40   20   22 1
    41   20   56 1
    42   21   57 1
    43   21   58 1
    44   21   59 1
    45   22   60 1
    46   22   61 1
    47   22   62 1
    48   23   24 am
    49   23   63 1
    50   24   25 2
    51   24   26 1
    52   26   27 1
    53   26   28 1
    54   26   31 1
    55   28   29 1
    56   28   30 1
    57   28   64 1
    58   29   65 1
    59   29   66 1
    60   29   67 1
    61   30   68 1
    62   30   69 1
    63   30   70 1
    64   31   32 am
    65   31   71 1
    66   32   33 2
    67   32   34 1
    68   34   35 1
    69   34   72 1
    70   34   73 1
    71   35   36 1
    72   35   37 1
    73   35   74 1
    74   36   75 1
    75   36   76 1
    76   36   77 1
    77   37   78 1
    78   37   79 1
    79   37   80 1
    80   38   81 1
