@<TRIPOS>MOLECULE
ZINC12468792
   71    72     0     0     0
SMALL
USER_CHARGES

@<TRIPOS>ATOM
      1 C1          2.6800   -6.6318   -1.3791 C.3       1 <0>        -0.1717
      2 C2          2.2005   -6.0359   -2.7042 C.3       1 <0>         0.0770
      3 C3          3.1083   -6.5171   -3.8379 C.3       1 <0>        -0.1501
      4 O1          0.8584   -6.4563   -2.9576 O.3       1 <0>        -0.3500
      5 C4         -0.1247   -5.6742   -2.4848 C.2       1 <0>         0.4592
      6 O2          0.1453   -4.6661   -1.8758 O.2       1 <0>        -0.5060
      7 C5         -1.5651   -6.0535   -2.7133 C.3       1 <0>        -0.1144
      8 C6         -2.4765   -5.0018   -2.0776 C.3       1 <0>        -0.1029
      9 C7         -3.9390   -5.3869   -2.3096 C.3       1 <0>        -0.0996
     10 C8         -4.8366   -4.3510   -1.6834 C.2       1 <0>        -0.1593
     11 C9         -5.7829   -3.7887   -2.3937 C.2       1 <0>        -0.1542
     12 C10        -6.0860   -4.2950   -3.7804 C.3       1 <0>        -0.0819
     13 C11        -7.5772   -4.6191   -3.8904 C.3       1 <0>        -0.0730
     14 H1         -8.1696   -3.7369   -3.6478 H         1 <0>         0.0812
     15 C12        -7.9091   -5.1025   -5.3173 C.3       1 <0>         0.1040
     16 H2         -8.9059   -4.7725   -5.6097 H         1 <0>         0.0636
     17 C13        -7.8573   -6.6473   -5.2166 C.3       1 <0>        -0.1925
     18 C14        -8.4749   -6.9198   -3.8225 C.3       1 <0>         0.1057
     19 H3         -9.5631   -6.8832   -3.8735 H         1 <0>         0.0627
     20 C15        -7.9372   -5.7737   -2.9391 C.3       1 <0>        -0.0784
     21 H4         -7.0495   -6.1032   -2.3990 H         1 <0>         0.0916
     22 C16        -9.0149   -5.3223   -1.9513 C.3       1 <0>        -0.1068
     23 C17        -9.2737   -6.4361   -0.9347 C.3       1 <0>        -0.1468
     24 C18       -10.3514   -5.9847    0.0531 C.3       1 <0>         0.1047
     25 H5        -10.0537   -5.0405    0.5092 H         1 <0>         0.0970
     26 C19       -10.5217   -7.0458    1.1421 C.3       1 <0>        -0.1437
     27 C20       -11.5078   -6.5402    2.1970 C.3       1 <0>        -0.0779
     28 C21       -11.6756   -7.5854    3.2696 C.ar      1 <0>        -0.0817
     29 C22       -12.6548   -8.5531    3.1445 C.ar      1 <0>        -0.1188
     30 C23       -12.8087   -9.5118    4.1284 C.ar      1 <0>        -0.1182
     31 C24       -11.9832   -9.5031    5.2372 C.ar      1 <0>        -0.1262
     32 C25       -11.0035   -8.5358    5.3619 C.ar      1 <0>        -0.1179
     33 C26       -10.8467   -7.5797    4.3759 C.ar      1 <0>        -0.1194
     34 O3        -11.5891   -5.8098   -0.6394 O.3       1 <0>        -0.5602
     35 O4         -8.0412   -8.1862   -3.3223 O.3       1 <0>        -0.5596
     36 O5         -6.9333   -4.6263   -6.2463 O.3       1 <0>        -0.5576
     37 H6          3.7037   -6.3112   -1.1858 H         1 <0>         0.0749
     38 H7          2.0332   -6.2890   -0.5714 H         1 <0>         0.0604
     39 H8          2.6446   -7.7197   -1.4361 H         1 <0>         0.0663
     40 H9          2.2359   -4.9480   -2.6473 H         1 <0>         0.0830
     41 H10         3.0729   -7.6050   -3.8949 H         1 <0>         0.0680
     42 H11         2.7667   -6.0925   -4.7820 H         1 <0>         0.0643
     43 H12         4.1320   -6.1964   -3.6446 H         1 <0>         0.0783
     44 H13        -1.7618   -6.1051   -3.7842 H         1 <0>         0.1060
     45 H14        -1.7611   -7.0255   -2.2607 H         1 <0>         0.1061
     46 H15        -2.2799   -4.9502   -1.0067 H         1 <0>         0.0719
     47 H16        -2.2805   -4.0298   -2.5302 H         1 <0>         0.0729
     48 H17        -4.1356   -5.4385   -3.3805 H         1 <0>         0.0794
     49 H18        -4.1350   -6.3589   -1.8570 H         1 <0>         0.0712
     50 H19        -4.6998   -4.0721   -0.6490 H         1 <0>         0.1079
     51 H20        -6.3458   -2.9623   -1.9856 H         1 <0>         0.1072
     52 H21        -5.8256   -3.5297   -4.5116 H         1 <0>         0.0797
     53 H22        -5.5032   -5.1956   -3.9738 H         1 <0>         0.0776
     54 H23        -8.4585   -7.1059   -6.0017 H         1 <0>         0.0688
     55 H24        -6.8279   -7.0029   -5.2593 H         1 <0>         0.0862
     56 H25        -8.6779   -4.4261   -1.4304 H         1 <0>         0.0655
     57 H26        -9.9353   -5.1035   -2.4927 H         1 <0>         0.0677
     58 H27        -9.6107   -7.3323   -1.4556 H         1 <0>         0.0702
     59 H28        -8.3533   -6.6549   -0.3933 H         1 <0>         0.0709
     60 H29       -10.9046   -7.9644    0.6975 H         1 <0>         0.0664
     61 H30        -9.5577   -7.2433    1.6109 H         1 <0>         0.0724
     62 H31       -11.1250   -5.6216    2.6415 H         1 <0>         0.0709
     63 H32       -12.4718   -6.3427    1.7282 H         1 <0>         0.0783
     64 H33       -13.2997   -8.5600    2.2783 H         1 <0>         0.1202
     65 H34       -13.5741  -10.2675    4.0311 H         1 <0>         0.1211
     66 H35       -12.1039  -10.2517    6.0063 H         1 <0>         0.1207
     67 H36       -10.3587   -8.5288    6.2283 H         1 <0>         0.1213
     68 H37       -10.0789   -6.8263    4.4715 H         1 <0>         0.1203
     69 H38       -11.9151   -6.6116   -1.0707 H         1 <0>         0.3718
     70 H39        -8.3040   -8.9371   -3.8719 H         1 <0>         0.3768
     71 H40        -7.0929   -4.9007   -7.1597 H         1 <0>         0.3776
@<TRIPOS>BOND
     1    1    2 1
     2    1   37 1
     3    1   38 1
     4    1   39 1
     5    2    3 1
     6    2    4 1
     7    2   40 1
     8    3   41 1
     9    3   42 1
    10    3   43 1
    11    4    5 1
    12    5    6 2
    13    5    7 1
    14    7    8 1
    15    7   44 1
    16    7   45 1
    17    8    9 1
    18    8   46 1
    19    8   47 1
    20    9   10 1
    21    9   48 1
    22    9   49 1
    23   10   11 2
    24   10   50 1
    25   11   12 1
    26   11   51 1
    27   12   13 1
    28   12   52 1
    29   12   53 1
    30   13   14 1
    31   13   20 1
    32   13   15 1
    33   15   16 1
    34   15   17 1
    35   15   36 1
    36   17   18 1
    37   17   54 1
    38   17   55 1
    39   18   19 1
    40   18   20 1
    41   18   35 1
    42   20   21 1
    43   20   22 1
    44   22   23 1
    45   22   56 1
    46   22   57 1
    47   23   24 1
    48   23   58 1
    49   23   59 1
    50   24   25 1
    51   24   26 1
    52   24   34 1
    53   26   27 1
    54   26   60 1
    55   26   61 1
    56   27   28 1
    57   27   62 1
    58   27   63 1
    59   28   33 ar
    60   28   29 ar
    61   29   30 ar
    62   29   64 1
    63   30   31 ar
    64   30   65 1
    65   31   32 ar
    66   31   66 1
    67   32   33 ar
    68   32   67 1
    69   33   68 1
    70   34   69 1
    71   35   70 1
    72   36   71 1
@<TRIPOS>MOLECULE
ZINC04718748
   70    71     0     0     0
SMALL
USER_CHARGES

@<TRIPOS>ATOM
      1 C1         -1.5143   -9.1210  -12.4992 C.3       1 <0>        -0.1506
      2 C2         -1.7160   -9.6877  -11.0924 C.3       1 <0>         0.0779
      3 C3         -0.5860  -10.6675  -10.7703 C.3       1 <0>        -0.1708
      4 O1         -1.7057   -8.6199  -10.1428 O.3       1 <0>        -0.3494
      5 C4         -2.4407   -8.7852   -9.0319 C.2       1 <0>         0.4592
      6 O2         -3.0720   -9.8028   -8.8710 O.2       1 <0>        -0.5064
      7 C5         -2.4786   -7.7016   -7.9853 C.3       1 <0>        -0.1162
      8 C6         -3.3826   -8.1388   -6.8309 C.3       1 <0>        -0.1031
      9 C7         -3.4210   -7.0387   -5.7683 C.3       1 <0>        -0.0900
     10 C8         -4.3114   -7.4694   -4.6313 C.2       1 <0>        -0.1612
     11 C9         -3.8494   -7.4803   -3.4055 C.2       1 <0>        -0.1510
     12 C10        -4.7398   -7.9110   -2.2685 C.3       1 <0>        -0.0728
     13 C11        -4.0605   -9.0376   -1.4874 C.3       1 <0>        -0.0692
     14 H1         -3.0763   -8.7152   -1.1474 H         1 <0>         0.0850
     15 C12        -4.9305   -9.4424   -0.2795 C.3       1 <0>         0.1040
     16 H2         -4.3025   -9.7328    0.5628 H         1 <0>         0.0659
     17 C13        -5.7480  -10.6551   -0.7896 C.3       1 <0>        -0.1924
     18 C14        -4.7242  -11.4101   -1.6732 C.3       1 <0>         0.1083
     19 H3         -4.0629  -12.0183   -1.0560 H         1 <0>         0.0654
     20 C15        -3.9282  -10.2884   -2.3740 C.3       1 <0>        -0.0517
     21 H4         -4.3479  -10.0927   -3.3607 H         1 <0>         0.0967
     22 C16        -2.4789  -10.6824   -2.4977 C.2       1 <0>        -0.1241
     23 C17        -1.9082  -10.7183   -3.6763 C.2       1 <0>        -0.1915
     24 C18        -0.4589  -11.1124   -3.8001 C.3       1 <0>         0.1447
     25 H5          0.1184  -10.2635   -4.1663 H         1 <0>         0.1189
     26 C19        -0.3296  -12.2788   -4.7818 C.3       1 <0>         0.0307
     27 O3          1.0527  -12.5765   -4.9884 O.3       1 <0>        -0.2997
     28 C20         1.3440  -13.5949   -5.8398 C.ar      1 <0>         0.1321
     29 C21         0.3204  -14.2897   -6.4680 C.ar      1 <0>        -0.1785
     30 C22         0.6190  -15.3241   -7.3332 C.ar      1 <0>        -0.0774
     31 C23         1.9369  -15.6674   -7.5736 C.ar      1 <0>        -0.1118
     32 C24         2.9585  -14.9770   -6.9485 C.ar      1 <0>        -0.1431
     33 C25         2.6652  -13.9378   -6.0866 C.ar      1 <0>        -0.1029
     34 C26         4.3935  -15.3541   -7.2124 C.3       1 <0>         0.5103
     35 F1          4.4367  -16.4216   -8.1156 F         1 <0>        -0.1746
     36 F2          5.0719  -14.2571   -7.7542 F         1 <0>        -0.1741
     37 F3          5.0041  -15.7337   -6.0123 F         1 <0>        -0.1739
     38 O4          0.0377  -11.5096   -2.5203 O.3       1 <0>        -0.5469
     39 O5         -5.3982  -12.2246   -2.6348 O.3       1 <0>        -0.5604
     40 O6         -5.7996   -8.3707    0.0923 O.3       1 <0>        -0.5570
     41 H6         -1.5221   -9.9355  -13.2236 H         1 <0>         0.0785
     42 H7         -2.3193   -8.4230  -12.7287 H         1 <0>         0.0644
     43 H8         -0.5576   -8.6010  -12.5477 H         1 <0>         0.0684
     44 H9         -2.6727  -10.2077  -11.0439 H         1 <0>         0.0828
     45 H10        -0.5939  -11.4820  -11.4946 H         1 <0>         0.0749
     46 H11         0.3707  -10.1474  -10.8188 H         1 <0>         0.0667
     47 H12        -0.7297  -11.0712   -9.7681 H         1 <0>         0.0590
     48 H13        -1.4708   -7.5233   -7.6102 H         1 <0>         0.1061
     49 H14        -2.8698   -6.7845   -8.4258 H         1 <0>         0.1069
     50 H15        -4.3903   -8.3171   -7.2060 H         1 <0>         0.0733
     51 H16        -2.9914   -9.0559   -6.3904 H         1 <0>         0.0708
     52 H17        -2.4132   -6.8605   -5.3932 H         1 <0>         0.0685
     53 H18        -3.8122   -6.1216   -6.2088 H         1 <0>         0.0736
     54 H19        -5.3304   -7.7691   -4.8270 H         1 <0>         0.1076
     55 H20        -2.8304   -7.1806   -3.2098 H         1 <0>         0.1072
     56 H21        -4.9170   -7.0645   -1.6051 H         1 <0>         0.0846
     57 H22        -5.6904   -8.2664   -2.6660 H         1 <0>         0.0666
     58 H23        -6.0740  -11.2788    0.0428 H         1 <0>         0.0721
     59 H24        -6.6005  -10.3243   -1.3828 H         1 <0>         0.0879
     60 H25        -1.9107  -10.9353   -1.6147 H         1 <0>         0.1203
     61 H26        -2.4764  -10.4655   -4.5593 H         1 <0>         0.1222
     62 H27        -0.8328  -13.1551   -4.3732 H         1 <0>         0.0698
     63 H28        -0.7886  -12.0064   -5.7321 H         1 <0>         0.0758
     64 H29        -0.7090  -14.0222   -6.2803 H         1 <0>         0.1367
     65 H30        -0.1774  -15.8655   -7.8222 H         1 <0>         0.1391
     66 H31         2.1683  -16.4766   -8.2505 H         1 <0>         0.1413
     67 H32         3.4638  -13.3957   -5.6020 H         1 <0>         0.1430
     68 H33        -0.4305  -12.2619   -2.1330 H         1 <0>         0.3749
     69 H34        -5.9583  -12.9103   -2.2459 H         1 <0>         0.3799
     70 H35        -6.3700   -8.5707    0.8472 H         1 <0>         0.3790
@<TRIPOS>BOND
     1    1    2 1
     2    1   41 1
     3    1   42 1
     4    1   43 1
     5    2    3 1
     6    2    4 1
     7    2   44 1
     8    3   45 1
     9    3   46 1
    10    3   47 1
    11    4    5 1
    12    5    6 2
    13    5    7 1
    14    7    8 1
    15    7   48 1
    16    7   49 1
    17    8    9 1
    18    8   50 1
    19    8   51 1
    20    9   10 1
    21    9   52 1
    22    9   53 1
    23   10   11 2
    24   10   54 1
    25   11   12 1
    26   11   55 1
    27   12   13 1
    28   12   56 1
    29   12   57 1
    30   13   14 1
    31   13   20 1
    32   13   15 1
    33   15   16 1
    34   15   17 1
    35   15   40 1
    36   17   18 1
    37   17   58 1
    38   17   59 1
    39   18   19 1
    40   18   20 1
    41   18   39 1
    42   20   21 1
    43   20   22 1
    44   22   23 2
    45   22   60 1
    46   23   24 1
    47   23   61 1
    48   24   25 1
    49   24   26 1
    50   24   38 1
    51   26   27 1
    52   26   62 1
    53   26   63 1
    54   27   28 1
    55   28   33 ar
    56   28   29 ar
    57   29   30 ar
    58   29   64 1
    59   30   31 ar
    60   30   65 1
    61   31   32 ar
    62   31   66 1
    63   32   33 ar
    64   32   34 1
    65   33   67 1
    66   34   35 1
    67   34   36 1
    68   34   37 1
    69   38   68 1
    70   39   69 1
    71   40   70 1
@<TRIPOS>MOLECULE
ZINC28375880
   70    71     0     0     0
SMALL
USER_CHARGES

@<TRIPOS>ATOM
      1 C1         -1.5143   -9.1211  -12.4992 C.3       1 <0>        -0.1508
      2 C2         -1.7160   -9.6877  -11.0924 C.3       1 <0>         0.0779
      3 C3         -0.5860  -10.6675  -10.7703 C.3       1 <0>        -0.1709
      4 O1         -1.7057   -8.6199  -10.1428 O.3       1 <0>        -0.3491
      5 C4         -2.4407   -8.7852   -9.0319 C.2       1 <0>         0.4589
      6 O2         -3.0720   -9.8028   -8.8710 O.2       1 <0>        -0.5067
      7 C5         -2.4786   -7.7016   -7.9853 C.3       1 <0>        -0.1165
      8 C6         -3.3826   -8.1388   -6.8309 C.3       1 <0>        -0.1025
      9 C7         -3.4210   -7.0387   -5.7683 C.3       1 <0>        -0.0901
     10 C8         -4.3114   -7.4694   -4.6313 C.2       1 <0>        -0.1617
     11 C9         -3.8494   -7.4803   -3.4055 C.2       1 <0>        -0.1505
     12 C10        -4.7398   -7.9110   -2.2685 C.3       1 <0>        -0.0728
     13 C11        -4.0605   -9.0376   -1.4874 C.3       1 <0>        -0.0692
     14 H1         -3.0763   -8.7152   -1.1474 H         1 <0>         0.0850
     15 C12        -4.9305   -9.4424   -0.2795 C.3       1 <0>         0.1039
     16 H2         -4.3025   -9.7328    0.5628 H         1 <0>         0.0659
     17 C13        -5.7480  -10.6551   -0.7896 C.3       1 <0>        -0.1923
     18 C14        -4.7242  -11.4101   -1.6732 C.3       1 <0>         0.1080
     19 H3         -4.0629  -12.0183   -1.0560 H         1 <0>         0.0657
     20 C15        -3.9282  -10.2884   -2.3740 C.3       1 <0>        -0.0536
     21 H4         -4.3479  -10.0927   -3.3607 H         1 <0>         0.0981
     22 C16        -2.4789  -10.6824   -2.4977 C.2       1 <0>        -0.1128
     23 C17        -1.9082  -10.7183   -3.6763 C.2       1 <0>        -0.1894
     24 C18        -0.4589  -11.1124   -3.8001 C.3       1 <0>         0.1458
     25 H5         -0.0558  -11.3301   -2.8110 H         1 <0>         0.1116
     26 C19        -0.3422  -12.3562   -4.6834 C.3       1 <0>         0.0285
     27 O3          1.0165  -12.7983   -4.7064 O.3       1 <0>        -0.2995
     28 C20         1.2940  -13.9009   -5.4509 C.ar      1 <0>         0.1319
     29 C21         0.2803  -14.5407   -6.1498 C.ar      1 <0>        -0.1787
     30 C22         0.5650  -15.6608   -6.9061 C.ar      1 <0>        -0.0775
     31 C23         1.8590  -16.1446   -6.9673 C.ar      1 <0>        -0.1118
     32 C24         2.8707  -15.5092   -6.2716 C.ar      1 <0>        -0.1431
     33 C25         2.5921  -14.3851   -5.5182 C.ar      1 <0>        -0.1029
     34 C26         4.2797  -16.0395   -6.3401 C.3       1 <0>         0.5103
     35 F1          4.3126  -17.1710   -7.1621 F         1 <0>        -0.1746
     36 F2          5.1231  -15.0556   -6.8671 F         1 <0>        -0.1739
     37 F3          4.7112  -16.3841   -5.0547 F         1 <0>        -0.1740
     38 O4          0.2780  -10.0391   -4.3891 O.3       1 <0>        -0.5437
     39 O5         -5.3982  -12.2246   -2.6348 O.3       1 <0>        -0.5602
     40 O6         -5.7996   -8.3707    0.0923 O.3       1 <0>        -0.5568
     41 H6         -1.5221   -9.9355  -13.2235 H         1 <0>         0.0785
     42 H7         -2.3193   -8.4230  -12.7287 H         1 <0>         0.0644
     43 H8         -0.5576   -8.6010  -12.5477 H         1 <0>         0.0685
     44 H9         -2.6727  -10.2077  -11.0439 H         1 <0>         0.0827
     45 H10        -0.5938  -11.4820  -11.4946 H         1 <0>         0.0748
     46 H11         0.3707  -10.1474  -10.8188 H         1 <0>         0.0669
     47 H12        -0.7297  -11.0712   -9.7681 H         1 <0>         0.0590
     48 H13        -1.4708   -7.5233   -7.6102 H         1 <0>         0.1071
     49 H14        -2.8698   -6.7845   -8.4258 H         1 <0>         0.1069
     50 H15        -4.3903   -8.3171   -7.2060 H         1 <0>         0.0728
     51 H16        -2.9914   -9.0559   -6.3904 H         1 <0>         0.0700
     52 H17        -2.4132   -6.8605   -5.3932 H         1 <0>         0.0697
     53 H18        -3.8122   -6.1216   -6.2088 H         1 <0>         0.0733
     54 H19        -5.3304   -7.7691   -4.8270 H         1 <0>         0.1071
     55 H20        -2.8304   -7.1806   -3.2098 H         1 <0>         0.1080
     56 H21        -4.9170   -7.0645   -1.6051 H         1 <0>         0.0848
     57 H22        -5.6904   -8.2664   -2.6660 H         1 <0>         0.0667
     58 H23        -6.0740  -11.2788    0.0428 H         1 <0>         0.0724
     59 H24        -6.6005  -10.3243   -1.3828 H         1 <0>         0.0882
     60 H25        -1.9107  -10.9353   -1.6147 H         1 <0>         0.1142
     61 H26        -2.4764  -10.4655   -4.5593 H         1 <0>         0.1189
     62 H27        -0.9751  -13.1477   -4.2818 H         1 <0>         0.0757
     63 H28        -0.6626  -12.1137   -5.6966 H         1 <0>         0.0693
     64 H29        -0.7305  -14.1634   -6.1020 H         1 <0>         0.1367
     65 H30        -0.2237  -16.1594   -7.4499 H         1 <0>         0.1391
     66 H31         2.0796  -17.0206   -7.5593 H         1 <0>         0.1414
     67 H32         3.3836  -13.8864   -4.9784 H         1 <0>         0.1430
     68 H33        -0.0268   -9.7911   -5.2727 H         1 <0>         0.3746
     69 H34        -5.9583  -12.9103   -2.2459 H         1 <0>         0.3802
     70 H35        -6.3700   -8.5707    0.8472 H         1 <0>         0.3791
@<TRIPOS>BOND
     1    1    2 1
     2    1   41 1
     3    1   42 1
     4    1   43 1
     5    2    3 1
     6    2    4 1
     7    2   44 1
     8    3   45 1
     9    3   46 1
    10    3   47 1
    11    4    5 1
    12    5    6 2
    13    5    7 1
    14    7    8 1
    15    7   48 1
    16    7   49 1
    17    8    9 1
    18    8   50 1
    19    8   51 1
    20    9   10 1
    21    9   52 1
    22    9   53 1
    23   10   11 2
    24   10   54 1
    25   11   12 1
    26   11   55 1
    27   12   13 1
    28   12   56 1
    29   12   57 1
    30   13   14 1
    31   13   20 1
    32   13   15 1
    33   15   16 1
    34   15   17 1
    35   15   40 1
    36   17   18 1
    37   17   58 1
    38   17   59 1
    39   18   19 1
    40   18   20 1
    41   18   39 1
    42   20   21 1
    43   20   22 1
    44   22   23 2
    45   22   60 1
    46   23   24 1
    47   23   61 1
    48   24   25 1
    49   24   26 1
    50   24   38 1
    51   26   27 1
    52   26   62 1
    53   26   63 1
    54   27   28 1
    55   28   33 ar
    56   28   29 ar
    57   29   30 ar
    58   29   64 1
    59   30   31 ar
    60   30   65 1
    61   31   32 ar
    62   31   66 1
    63   32   33 ar
    64   32   34 1
    65   33   67 1
    66   34   35 1
    67   34   36 1
    68   34   37 1
    69   38   68 1
    70   39   69 1
    71   40   70 1
@<TRIPOS>MOLECULE
ZINC04097345
   71    72     0     0     0
SMALL
USER_CHARGES
isopropyl (E)-7-[(1R,2R,3R,5S)-3,5-dihydroxy-2-[(3R)-3-hydroxy-5-phenyl-pentyl]cyclopentyl]hept-5-enoate
@<TRIPOS>ATOM
      1 C1        -10.8495   -5.5559   -8.9568 C.3       1 <0>        -0.1699
      2 C2         -9.8205   -6.6791   -8.8134 C.3       1 <0>         0.0797
      3 C3        -10.4960   -7.9170   -8.2201 C.3       1 <0>        -0.1508
      4 O1         -8.7490   -6.2446   -7.9351 O.3       1 <0>        -0.3558
      5 C4         -7.7004   -5.6338   -8.5090 C.2       1 <0>         0.4592
      6 O2         -7.6787   -5.4678   -9.7056 O.2       1 <0>        -0.5059
      7 C5         -6.5504   -5.1553   -7.6609 C.3       1 <0>        -0.1156
      8 C6         -5.4956   -4.4999   -8.5547 C.3       1 <0>        -0.1036
      9 C7         -4.3280   -4.0140   -7.6936 C.3       1 <0>        -0.0895
     10 C8         -3.2891   -3.3686   -8.5739 C.2       1 <0>        -0.1598
     11 C9         -2.8899   -2.1455   -8.3273 C.2       1 <0>        -0.1522
     12 C10        -1.8510   -1.5000   -9.2077 C.3       1 <0>        -0.0722
     13 C11        -2.3884   -0.1699   -9.7396 C.3       1 <0>        -0.0737
     14 H1         -2.6875    0.4703   -8.9097 H         1 <0>         0.0819
     15 C12        -1.3101    0.5339  -10.5892 C.3       1 <0>         0.1040
     16 H2         -1.3770    1.6154  -10.4711 H         1 <0>         0.0640
     17 C13        -1.6472    0.1257  -12.0449 C.3       1 <0>        -0.1923
     18 C14        -3.1960    0.1398  -12.0538 C.3       1 <0>         0.1055
     19 H3         -3.5675    1.1577  -12.1722 H         1 <0>         0.0629
     20 C15        -3.5875   -0.4204  -10.6708 C.3       1 <0>        -0.0789
     21 H4         -3.7871   -1.4895  -10.7431 H         1 <0>         0.0913
     22 C16        -4.8239    0.3085  -10.1409 C.3       1 <0>        -0.1056
     23 C17        -6.0356   -0.0487  -11.0041 C.3       1 <0>        -0.1472
     24 C18        -7.2720    0.6803  -10.4742 C.3       1 <0>         0.1058
     25 H5         -7.4067    0.4466   -9.4181 H         1 <0>         0.0963
     26 C19        -8.5057    0.2279  -11.2580 C.3       1 <0>        -0.1440
     27 C20        -9.7578    0.8611  -10.6480 C.3       1 <0>        -0.0773
     28 C21       -10.9730    0.4155  -11.4200 C.ar      1 <0>        -0.0811
     29 C22       -11.4141    1.1548  -12.5015 C.ar      1 <0>        -0.1186
     30 C23       -12.5262    0.7438  -13.2123 C.ar      1 <0>        -0.1181
     31 C24       -13.2025   -0.4016  -12.8360 C.ar      1 <0>        -0.1261
     32 C25       -12.7644   -1.1380  -11.7512 C.ar      1 <0>        -0.1174
     33 C26       -11.6498   -0.7293  -11.0431 C.ar      1 <0>        -0.1184
     34 O3         -7.0979    2.0898  -10.6318 O.3       1 <0>        -0.5604
     35 O4         -3.6978   -0.7012  -13.0945 O.3       1 <0>        -0.5588
     36 O5         -0.0075    0.0698  -10.2286 O.3       1 <0>        -0.5580
     37 H6        -11.2595   -5.3116   -7.9768 H         1 <0>         0.0664
     38 H7        -10.3683   -4.6740   -9.3795 H         1 <0>         0.0609
     39 H8        -11.6539   -5.8821   -9.6161 H         1 <0>         0.0755
     40 H9         -9.4105   -6.9234   -9.7934 H         1 <0>         0.0846
     41 H10       -11.3003   -8.2432   -8.8794 H         1 <0>         0.0790
     42 H11        -9.7629   -8.7171   -8.1180 H         1 <0>         0.0645
     43 H12       -10.9060   -7.6726   -7.2401 H         1 <0>         0.0682
     44 H13        -6.9129   -4.4285   -6.9338 H         1 <0>         0.1053
     45 H14        -6.1075   -6.0027   -7.1376 H         1 <0>         0.1058
     46 H15        -5.1331   -5.2267   -9.2817 H         1 <0>         0.0727
     47 H16        -5.9385   -3.6525   -9.0779 H         1 <0>         0.0729
     48 H17        -4.6905   -3.2873   -6.9665 H         1 <0>         0.0677
     49 H18        -3.8851   -4.8615   -7.1703 H         1 <0>         0.0728
     50 H19        -2.8736   -3.9143   -9.4082 H         1 <0>         0.1075
     51 H20        -3.3054   -1.5997   -7.4931 H         1 <0>         0.1063
     52 H21        -0.9450   -1.3204   -8.6289 H         1 <0>         0.0821
     53 H22        -1.6227   -2.1603  -10.0444 H         1 <0>         0.0657
     54 H23        -1.2687   -0.8728  -12.2635 H         1 <0>         0.0858
     55 H24        -1.2501    0.8516  -12.7544 H         1 <0>         0.0684
     56 H25        -5.0101    0.0062   -9.1104 H         1 <0>         0.0652
     57 H26        -4.6553    1.3848  -10.1790 H         1 <0>         0.0674
     58 H27        -5.8494    0.2537  -12.0347 H         1 <0>         0.0696
     59 H28        -6.2041   -1.1249  -10.9661 H         1 <0>         0.0717
     60 H29        -8.4102    0.5405  -12.2978 H         1 <0>         0.0663
     61 H30        -8.5879   -0.8580  -11.2110 H         1 <0>         0.0726
     62 H31        -9.8533    0.5485   -9.6081 H         1 <0>         0.0701
     63 H32        -9.6756    1.9470  -10.6949 H         1 <0>         0.0783
     64 H33       -10.8879    2.0517  -12.7932 H         1 <0>         0.1201
     65 H34       -12.8682    1.3189  -14.0600 H         1 <0>         0.1211
     66 H35       -14.0729   -0.7213  -13.3897 H         1 <0>         0.1206
     67 H36       -13.2928   -2.0329  -11.4572 H         1 <0>         0.1206
     68 H37       -11.3076   -1.3047  -10.1956 H         1 <0>         0.1190
     69 H38        -6.9723    2.3705  -11.5486 H         1 <0>         0.3717
     70 H39        -3.4807   -0.3960  -13.9860 H         1 <0>         0.3764
     71 H40         0.7093    0.4795  -10.7320 H         1 <0>         0.3776
@<TRIPOS>BOND
     1    1    2 1
     2    1   37 1
     3    1   38 1
     4    1   39 1
     5    2    3 1
     6    2    4 1
     7    2   40 1
     8    3   41 1
     9    3   42 1
    10    3   43 1
    11    4    5 1
    12    5    6 2
    13    5    7 1
    14    7    8 1
    15    7   44 1
    16    7   45 1
    17    8    9 1
    18    8   46 1
    19    8   47 1
    20    9   10 1
    21    9   48 1
    22    9   49 1
    23   10   11 2
    24   10   50 1
    25   11   12 1
    26   11   51 1
    27   12   13 1
    28   12   52 1
    29   12   53 1
    30   13   14 1
    31   13   20 1
    32   13   15 1
    33   15   16 1
    34   15   17 1
    35   15   36 1
    36   17   18 1
    37   17   54 1
    38   17   55 1
    39   18   19 1
    40   18   20 1
    41   18   35 1
    42   20   21 1
    43   20   22 1
    44   22   23 1
    45   22   56 1
    46   22   57 1
    47   23   24 1
    48   23   58 1
    49   23   59 1
    50   24   25 1
    51   24   26 1
    52   24   34 1
    53   26   27 1
    54   26   60 1
    55   26   61 1
    56   27   28 1
    57   27   62 1
    58   27   63 1
    59   28   33 ar
    60   28   29 ar
    61   29   30 ar
    62   29   64 1
    63   30   31 ar
    64   30   65 1
    65   31   32 ar
    66   31   66 1
    67   32   33 ar
    68   32   67 1
    69   33   68 1
    70   34   69 1
    71   35   70 1
    72   36   71 1
@<TRIPOS>MOLECULE
ZINC03830709
   58    58     0     0     0
SMALL
USER_CHARGES

@<TRIPOS>ATOM
      1 C1          1.1636    1.5627    0.2135 C.3       1 <0>        -0.1533
      2 C2          1.1751    0.0327    0.2109 C.3       1 <0>        -0.1261
      3 C3          1.6404   -0.4714   -1.1567 C.3       1 <0>        -0.1204
      4 C4          1.6520   -2.0014   -1.1593 C.3       1 <0>        -0.1179
      5 C5          2.1173   -2.5055   -2.5269 C.3       1 <0>        -0.1440
      6 C6          2.1288   -4.0355   -2.5295 C.3       1 <0>         0.1348
      7 H1          1.1454   -4.4067   -2.2410 H         1 <0>         0.1090
      8 C7          2.4682   -4.5329   -3.9110 C.2       1 <0>        -0.1863
      9 C8          3.4720   -5.3569   -4.0822 C.2       1 <0>        -0.1385
     10 C9          3.8114   -5.8543   -5.4637 C.3       1 <0>        -0.0503
     11 H2          3.1338   -5.4230   -6.2006 H         1 <0>         0.0902
     12 C10         5.2813   -5.5162   -5.8157 C.3       1 <0>         0.1088
     13 H3          5.9248   -5.6371   -4.9443 H         1 <0>         0.0655
     14 C11         5.6234   -6.5673   -6.9008 C.3       1 <0>        -0.1921
     15 C12         4.9078   -7.8485   -6.4253 C.3       1 <0>         0.1074
     16 H4          5.6010   -8.4783   -5.8675 H         1 <0>         0.0585
     17 C13         3.7522   -7.3950   -5.5125 C.3       1 <0>        -0.0685
     18 H5          3.8845   -7.8056   -4.5115 H         1 <0>         0.0838
     19 C14         2.4118   -7.8499   -6.0933 C.3       1 <0>        -0.0766
     20 C15         2.3173   -9.3523   -6.0218 C.2       1 <0>        -0.1574
     21 C16         1.2737   -9.9173   -5.4672 C.2       1 <0>        -0.1538
     22 C17         0.0924   -9.0774   -5.0547 C.3       1 <0>        -0.1023
     23 C18        -1.1818   -9.6464   -5.6820 C.3       1 <0>        -0.0856
     24 C19        -2.3812   -8.7937   -5.2632 C.3       1 <0>        -0.1830
     25 C20        -3.6362   -9.3541   -5.8811 C.2       1 <0>         0.4878
     26 O1         -3.5770  -10.3438   -6.5906 O.co2     1 <0>        -0.6996
     27 O2         -4.7109   -8.8178   -5.6714 O.co2     1 <0>        -0.7102
     28 O3          4.3904   -8.5656   -7.5478 O.3       1 <0>        -0.5476
     29 O4          5.3847   -4.1905   -6.3391 O.3       1 <0>        -0.5585
     30 O5          3.1071   -4.5061   -1.6002 O.3       1 <0>        -0.5572
     31 H6          2.1684    1.9340    0.0121 H         1 <0>         0.0520
     32 H7          0.4820    1.9222   -0.5575 H         1 <0>         0.0533
     33 H8          0.8320    1.9219    1.1878 H         1 <0>         0.0523
     34 H9          1.8566   -0.3268    0.9818 H         1 <0>         0.0601
     35 H10         0.1702   -0.3385    0.4123 H         1 <0>         0.0615
     36 H11         0.9589   -0.1119   -1.9276 H         1 <0>         0.0605
     37 H12         2.6453   -0.1002   -1.3581 H         1 <0>         0.0587
     38 H13         2.3335   -2.3609   -0.3884 H         1 <0>         0.0672
     39 H14         0.6471   -2.3726   -0.9579 H         1 <0>         0.0627
     40 H15         1.4358   -2.1460   -3.2978 H         1 <0>         0.0730
     41 H16         3.1222   -2.1343   -2.7283 H         1 <0>         0.0646
     42 H17         1.8837   -4.2100   -4.7599 H         1 <0>         0.1163
     43 H18         4.0565   -5.6797   -3.2334 H         1 <0>         0.1162
     44 H19         5.2386   -6.2531   -7.8710 H         1 <0>         0.0867
     45 H20         6.7004   -6.7279   -6.9503 H         1 <0>         0.0680
     46 H21         1.5980   -7.4070   -5.5192 H         1 <0>         0.0742
     47 H22         2.3390   -7.5303   -7.1328 H         1 <0>         0.0734
     48 H23         3.1100   -9.9631   -6.4279 H         1 <0>         0.1121
     49 H24         1.2598  -10.9850   -5.3055 H         1 <0>         0.1026
     50 H25        -0.0006   -9.0895   -3.9687 H         1 <0>         0.0601
     51 H26         0.2387   -8.0524   -5.3954 H         1 <0>         0.0680
     52 H27        -1.0889   -9.6342   -6.7679 H         1 <0>         0.0579
     53 H28        -1.3281  -10.6714   -5.3413 H         1 <0>         0.0571
     54 H29        -2.4741   -8.8058   -4.1772 H         1 <0>         0.0542
     55 H30        -2.2349   -7.7687   -5.6039 H         1 <0>         0.0537
     56 H31         5.0674   -8.8602   -8.1724 H         1 <0>         0.3704
     57 H32         6.2856   -3.9301   -6.5753 H         1 <0>         0.3758
     58 H33         4.0079   -4.2136   -1.7955 H         1 <0>         0.3707
@<TRIPOS>BOND
     1    1    2 1
     2    1   31 1
     3    1   32 1
     4    1   33 1
     5    2    3 1
     6    2   34 1
     7    2   35 1
     8    3    4 1
     9    3   36 1
    10    3   37 1
    11    4    5 1
    12    4   38 1
    13    4   39 1
    14    5    6 1
    15    5   40 1
    16    5   41 1
    17    6    7 1
    18    6    8 1
    19    6   30 1
    20    8    9 2
    21    8   42 1
    22    9   10 1
    23    9   43 1
    24   10   11 1
    25   10   17 1
    26   10   12 1
    27   12   13 1
    28   12   14 1
    29   12   29 1
    30   14   15 1
    31   14   44 1
    32   14   45 1
    33   15   16 1
    34   15   17 1
    35   15   28 1
    36   17   18 1
    37   17   19 1
    38   19   20 1
    39   19   46 1
    40   19   47 1
    41   20   21 2
    42   20   48 1
    43   21   22 1
    44   21   49 1
    45   22   23 1
    46   22   50 1
    47   22   51 1
    48   23   24 1
    49   23   52 1
    50   23   53 1
    51   24   25 1
    52   24   54 1
    53   24   55 1
    54   25   26 2
    55   25   27 1
    56   28   56 1
    57   29   57 1
    58   30   58 1
