@<TRIPOS>MOLECULE
ZINC29322759
   62    63     0     0     0
SMALL
USER_CHARGES
(Z)-7-[(1R,2R,3R,5S)-3,5-dihydroxy-2-[(E,3S)-3-hydroxy-5-[3-(trifluoromethyl)phenyl]pent-1-enyl]cyclopentyl]hept-5-enoic acid
@<TRIPOS>ATOM
      1 C1         -2.0881    3.5277    0.6013 C.ar      1 <0>        -0.1184
      2 C2         -2.0640    2.1454    0.5889 C.ar      1 <0>        -0.0839
      3 C3         -0.8770    1.4770    0.3549 C.ar      1 <0>        -0.0776
      4 C4          0.2842    2.1908    0.1237 C.ar      1 <0>        -0.0694
      5 C5          0.2593    3.5727    0.1322 C.ar      1 <0>        -0.1800
      6 C6         -0.9271    4.2412    0.3711 C.ar      1 <0>        -0.0784
      7 C7          1.5252    4.3507   -0.1193 C.3       1 <0>         0.5075
      8 F1          1.6579    4.5947   -1.4905 F         1 <0>        -0.1770
      9 F2          1.4687    5.5681    0.5677 F         1 <0>        -0.1781
     10 F3          2.6242    3.6115    0.3313 F         1 <0>        -0.1748
     11 C8         -0.8499   -0.0297    0.3457 C.3       1 <0>        -0.0813
     12 C9         -0.5569   -0.5432    1.7569 C.3       1 <0>        -0.0986
     13 C10        -0.5293   -2.0729    1.7475 C.3       1 <0>         0.1470
     14 H1          0.1487   -2.4627    0.9740 H         1 <0>         0.0634
     15 C11        -0.1204   -2.5763    3.1078 C.2       1 <0>        -0.1911
     16 C12        -0.8842   -3.4260    3.7486 C.2       1 <0>        -0.1416
     17 C13        -0.4753   -3.9294    5.1089 C.3       1 <0>        -0.0437
     18 H2          0.4613   -3.4020    5.3428 H         1 <0>         0.0912
     19 C14        -1.6005   -3.6738    6.1422 C.3       1 <0>         0.1208
     20 H3         -2.6240   -3.6779    5.7392 H         1 <0>         0.0639
     21 C15        -1.3086   -4.7329    7.2342 C.3       1 <0>        -0.1433
     22 C16        -0.8484   -5.9748    6.4433 C.3       1 <0>         0.1242
     23 H4         -1.6339   -6.7376    6.3373 H         1 <0>         0.0528
     24 C17        -0.3185   -5.4639    5.0920 C.3       1 <0>        -0.1012
     25 H5         -0.8666   -5.9153    4.2518 H         1 <0>         0.0809
     26 C18         1.1563   -5.8384    4.9319 C.3       1 <0>        -0.0907
     27 C19         1.2828   -7.3337    4.7938 C.2       1 <0>        -0.1883
     28 C20         1.9482   -7.8446    3.7877 C.2       1 <0>        -0.1280
     29 C21         2.7290   -6.9438    2.8656 C.3       1 <0>        -0.1054
     30 C22         4.1751   -7.4355    2.7763 C.3       1 <0>        -0.0923
     31 C23         4.9678   -6.5210    1.8402 C.3       1 <0>        -0.1578
     32 C24         6.3921   -7.0053    1.7522 C.2       1 <0>         0.4573
     33 O1          6.7378   -7.9816    2.3744 O.co2     1 <0>        -0.6421
     34 O2          7.2768   -6.3519    0.9827 O.co2     1 <0>        -0.7785
     35 O3          0.1920   -6.6496    7.1535 O.3       1 <0>        -0.6081
     36 O4         -1.5045   -2.3530    6.6792 O.3       1 <0>        -0.6003
     37 O5         -1.8297   -2.5708    1.4264 O.3       1 <0>        -0.5952
     38 H6         -3.0150    4.0499    0.7875 H         1 <0>         0.1341
     39 H7         -2.9720    1.5878    0.7651 H         1 <0>         0.1323
     40 H8          1.2109    1.6686   -0.0632 H         1 <0>         0.1367
     41 H9         -0.9466    5.3210    0.3774 H         1 <0>         0.1340
     42 H10        -1.8258   -0.4119    0.0117 H         1 <0>         0.0859
     43 H11        -0.0649   -0.3781   -0.3416 H         1 <0>         0.0764
     44 H12         0.4189   -0.1609    2.0909 H         1 <0>         0.0800
     45 H13        -1.3419   -0.1948    2.4442 H         1 <0>         0.0738
     46 H14         0.8195   -2.2302    3.5626 H         1 <0>         0.1165
     47 H15        -1.8241   -3.7721    3.2938 H         1 <0>         0.1132
     48 H16        -0.5238   -4.3583    7.9078 H         1 <0>         0.0891
     49 H17        -2.2249   -4.9270    7.8110 H         1 <0>         0.0693
     50 H18         1.5627   -5.3515    4.0332 H         1 <0>         0.0813
     51 H19         1.7179   -5.5031    5.8163 H         1 <0>         0.0792
     52 H20         0.8164   -7.9962    5.5378 H         1 <0>         0.1089
     53 H21         1.9370   -8.9310    3.6159 H         1 <0>         0.1107
     54 H22         2.2735   -6.9604    1.8645 H         1 <0>         0.0661
     55 H23         2.7146   -5.9162    3.2579 H         1 <0>         0.0732
     56 H24         4.6305   -7.4189    3.7775 H         1 <0>         0.0612
     57 H25         4.1895   -8.4631    2.3840 H         1 <0>         0.0604
     58 H26         4.5123   -6.5376    0.8391 H         1 <0>         0.0617
     59 H27         4.9535   -5.4935    2.2326 H         1 <0>         0.0617
     60 H28         0.6420   -7.5616    6.7344 H         1 <0>         0.4031
     61 H29        -2.2319   -2.0103    7.4298 H         1 <0>         0.4036
     62 H30        -2.0055   -3.6553    1.3723 H         1 <0>         0.4039
@<TRIPOS>BOND
     1    1    6 ar
     2    1    2 ar
     3    1   38 1
     4    2    3 ar
     5    2   39 1
     6    3    4 ar
     7    3   11 1
     8    4    5 ar
     9    4   40 1
    10    5    6 ar
    11    5    7 1
    12    6   41 1
    13    7    8 1
    14    7    9 1
    15    7   10 1
    16   11   12 1
    17   11   42 1
    18   11   43 1
    19   12   13 1
    20   12   44 1
    21   12   45 1
    22   13   14 1
    23   13   15 1
    24   13   37 1
    25   15   16 2
    26   15   46 1
    27   16   17 1
    28   16   47 1
    29   17   18 1
    30   17   24 1
    31   17   19 1
    32   19   20 1
    33   19   21 1
    34   19   36 1
    35   21   22 1
    36   21   48 1
    37   21   49 1
    38   22   23 1
    39   22   24 1
    40   22   35 1
    41   24   25 1
    42   24   26 1
    43   26   27 1
    44   26   50 1
    45   26   51 1
    46   27   28 2
    47   27   52 1
    48   28   29 1
    49   28   53 1
    50   29   30 1
    51   29   54 1
    52   29   55 1
    53   30   31 1
    54   30   56 1
    55   30   57 1
    56   31   32 1
    57   31   58 1
    58   31   59 1
    59   32   33 2
    60   32   34 1
    61   35   60 1
    62   36   61 1
    63   37   62 1
@<TRIPOS>MOLECULE
ZINC13470222
   57    58     0     0     0
SMALL
USER_CHARGES
(Z)-7-[(1R,2R,3R,5S)-3,5-dihydroxy-2-[(E,3R)-3-hydroxy-4-phenoxy-but-1-enyl]cyclopentyl]hept-5-enoic acid
@<TRIPOS>ATOM
      1 C1         -5.0160    3.1096   -6.9251 C.ar      1 <0>        -0.1620
      2 C2         -4.0263    3.7888   -7.6114 C.ar      1 <0>        -0.0810
      3 C3         -2.8540    4.1379   -6.9693 C.ar      1 <0>        -0.1527
      4 C4         -2.6703    3.8065   -5.6348 C.ar      1 <0>         0.1313
      5 C5         -3.6624    3.1199   -4.9500 C.ar      1 <0>        -0.2113
      6 C6         -4.8350    2.7777   -5.5952 C.ar      1 <0>        -0.0806
      7 O1         -1.5179    4.1489   -5.0008 O.3       1 <0>        -0.3046
      8 C7         -1.3977    3.7753   -3.6268 C.3       1 <0>         0.0338
      9 C8         -0.0439    4.2420   -3.0880 C.3       1 <0>         0.1427
     10 H1          0.0653    5.3131   -3.2583 H         1 <0>         0.1217
     11 C9          0.0335    3.9579   -1.6100 C.2       1 <0>        -0.1917
     12 C10         1.0264    3.2508   -1.1301 C.2       1 <0>        -0.1236
     13 C11         1.1038    2.9668    0.3479 C.3       1 <0>        -0.0522
     14 H2          0.2702    3.4366    0.8699 H         1 <0>         0.0928
     15 C12         1.1139    1.4397    0.6066 C.3       1 <0>         0.1088
     16 H3          1.7027    0.9233   -0.1515 H         1 <0>         0.0668
     17 C13         1.7874    1.3330    1.9973 C.3       1 <0>        -0.1917
     18 C14         2.8838    2.4179    1.9708 C.3       1 <0>         0.1075
     19 H4          3.8393    1.9773    1.6862 H         1 <0>         0.0591
     20 C15         2.4492    3.4567    0.9221 C.3       1 <0>        -0.0692
     21 H5          3.1933    3.5195    0.1281 H         1 <0>         0.0850
     22 C16         2.2699    4.8250    1.5827 C.3       1 <0>        -0.0775
     23 C17         3.6112    5.3465    2.0299 C.2       1 <0>        -0.1565
     24 C18         4.0004    6.5451    1.6720 C.2       1 <0>        -0.1543
     25 C19         3.0440    7.4665    0.9598 C.3       1 <0>        -0.1016
     26 C20         2.9704    8.8005    1.7054 C.3       1 <0>        -0.0911
     27 C21         1.9994    9.7361    0.9823 C.3       1 <0>        -0.1575
     28 C22         1.9269   11.0500    1.7167 C.2       1 <0>         0.4574
     29 O2          2.5845   11.2207    2.7159 O.co2     1 <0>        -0.6423
     30 O3          2.9929    3.0350    3.2551 O.3       1 <0>        -0.5476
     31 O4         -0.2183    0.9242    0.6482 O.3       1 <0>        -0.5594
     32 O5          1.0040    3.5431   -3.7629 O.3       1 <0>        -0.5468
     33 H6         -5.9317    2.8375   -7.4289 H         1 <0>         0.1225
     34 H7         -4.1697    4.0463   -8.6504 H         1 <0>         0.1286
     35 H8         -2.0812    4.6682   -7.5059 H         1 <0>         0.1311
     36 H9         -3.5198    2.8568   -3.9123 H         1 <0>         0.1269
     37 H10        -5.6093    2.2465   -5.0615 H         1 <0>         0.1237
     38 H11        -1.4703    2.6914   -3.5373 H         1 <0>         0.0663
     39 H12        -2.1979    4.2417   -3.0521 H         1 <0>         0.0745
     40 H13        -0.7296    4.3373   -0.9465 H         1 <0>         0.1223
     41 H14         1.7894    2.8715   -1.7936 H         1 <0>         0.1198
     42 H15         1.0656    1.5393    2.7876 H         1 <0>         0.0874
     43 H16         2.2303    0.3462    2.1320 H         1 <0>         0.0687
     44 H17         1.8304    5.5194    0.8667 H         1 <0>         0.0746
     45 H18         1.6115    4.7282    2.4460 H         1 <0>         0.0744
     46 H19         4.2516    4.7322    2.6454 H         1 <0>         0.1125
     47 H20         5.0067    6.8728    1.8873 H         1 <0>         0.1032
     48 H21         3.3946    7.6380   -0.0580 H         1 <0>         0.0622
     49 H22         2.0541    7.0112    0.9312 H         1 <0>         0.0693
     50 H23         2.6198    8.6291    2.7231 H         1 <0>         0.0592
     51 H24         3.9603    9.2559    1.7339 H         1 <0>         0.0586
     52 H25         2.3500    9.9075   -0.0355 H         1 <0>         0.0616
     53 H26         1.0095    9.2807    0.9537 H         1 <0>         0.0608
     54 H27         3.2640    2.4310    3.9599 H         1 <0>         0.3710
     55 H28        -0.2667   -0.0283    0.8077 H         1 <0>         0.3769
     56 H29         0.9695    2.5828   -3.6547 H         1 <0>         0.3720
     57 O6          1.1319   12.0307    1.2608 O.co2     1 <0>        -0.7799
@<TRIPOS>BOND
     1    1    6 ar
     2    1    2 ar
     3    1   33 1
     4    2    3 ar
     5    2   34 1
     6    3    4 ar
     7    3   35 1
     8    4    5 ar
     9    4    7 1
    10    5    6 ar
    11    5   36 1
    12    6   37 1
    13    7    8 1
    14    8    9 1
    15    8   38 1
    16    8   39 1
    17    9   10 1
    18    9   11 1
    19    9   32 1
    20   11   12 2
    21   11   40 1
    22   12   13 1
    23   12   41 1
    24   13   14 1
    25   13   20 1
    26   13   15 1
    27   15   16 1
    28   15   17 1
    29   15   31 1
    30   17   18 1
    31   17   42 1
    32   17   43 1
    33   18   19 1
    34   18   20 1
    35   18   30 1
    36   20   21 1
    37   20   22 1
    38   22   23 1
    39   22   44 1
    40   22   45 1
    41   23   24 2
    42   23   46 1
    43   24   25 1
    44   24   47 1
    45   25   26 1
    46   25   48 1
    47   25   49 1
    48   26   27 1
    49   26   50 1
    50   26   51 1
    51   27   28 1
    52   27   52 1
    53   27   53 1
    54   28   29 2
    55   28   57 1
    56   30   54 1
    57   31   55 1
    58   32   56 1
@<TRIPOS>MOLECULE
ZINC12496520
   62    62     0     0     0
SMALL
USER_CHARGES
7-[(1R,2R,3R,5S)-3,5-dihydroxy-2-[(3S)-3-hydroxyoctyl]cyclopentyl]heptanoic acid
@<TRIPOS>ATOM
      1 C1         -6.5955   -2.1744   16.0829 C.3       1 <0>        -0.1536
      2 C2         -5.5219   -2.5108   15.0460 C.3       1 <0>        -0.1258
      3 C3         -5.0992   -1.2338   14.3168 C.3       1 <0>        -0.1209
      4 C4         -4.0256   -1.5702   13.2799 C.3       1 <0>        -0.1168
      5 C5         -3.6028   -0.2933   12.5508 C.3       1 <0>        -0.1511
      6 C6         -2.5293   -0.6297   11.5139 C.3       1 <0>         0.1037
      7 H1         -2.8994   -1.4085   10.8473 H         1 <0>         0.0975
      8 C7         -2.1962    0.6224   10.7001 C.3       1 <0>        -0.1476
      9 C8         -1.2158    0.2587    9.5831 C.3       1 <0>        -0.1081
     10 C9         -0.8827    1.5108    8.7693 C.3       1 <0>        -0.0815
     11 H2         -1.8006    1.9860    8.4233 H         1 <0>         0.0920
     12 C10        -0.0667    2.4982    9.6289 C.3       1 <0>         0.1066
     13 H3          0.4539    1.9691   10.4271 H         1 <0>         0.0615
     14 C11         0.9487    3.1167    8.6363 C.3       1 <0>        -0.1914
     15 C12         1.3266    1.9121    7.7390 C.3       1 <0>         0.1045
     16 H4          2.0723    1.2883    8.2320 H         1 <0>         0.0607
     17 C13         0.0032    1.1381    7.5677 C.3       1 <0>        -0.0789
     18 H5          0.1952    0.0651    7.5638 H         1 <0>         0.0804
     19 C14        -0.6811    1.5524    6.2635 C.3       1 <0>        -0.0993
     20 C15        -1.9561    0.7284    6.0725 C.3       1 <0>        -0.1201
     21 C16        -2.5720    1.0504    4.7094 C.3       1 <0>        -0.1179
     22 C17        -3.8469    0.2265    4.5184 C.3       1 <0>        -0.1189
     23 C18        -4.4628    0.5485    3.1554 C.3       1 <0>        -0.0987
     24 C19        -5.7378   -0.2755    2.9643 C.3       1 <0>        -0.1579
     25 C20        -6.3444    0.0417    1.6218 C.2       1 <0>         0.4570
     26 O1         -5.8117    0.8444    0.8926 O.co2     1 <0>        -0.6424
     27 O2          1.8093    2.3640    6.4722 O.3       1 <0>        -0.5542
     28 O3         -0.9177    3.5092   10.1728 O.3       1 <0>        -0.5588
     29 O4         -1.3524   -1.0922   12.1796 O.3       1 <0>        -0.5607
     30 H6         -6.1945   -1.4608   16.8027 H         1 <0>         0.0522
     31 H7         -7.4602   -1.7386   15.5823 H         1 <0>         0.0536
     32 H8         -6.8967   -3.0841   16.6023 H         1 <0>         0.0526
     33 H9         -5.9229   -3.2243   14.3261 H         1 <0>         0.0611
     34 H10        -4.6573   -2.9466   15.5465 H         1 <0>         0.0599
     35 H11        -4.6982   -0.5203   15.0366 H         1 <0>         0.0586
     36 H12        -5.9638   -0.7980   13.8163 H         1 <0>         0.0605
     37 H13        -4.4266   -2.2838   12.5601 H         1 <0>         0.0611
     38 H14        -3.1609   -2.0060   13.7805 H         1 <0>         0.0665
     39 H15        -3.2018    0.4203   13.2706 H         1 <0>         0.0628
     40 H16        -4.4675    0.1425   12.0503 H         1 <0>         0.0715
     41 H17        -1.7435    1.3696   11.3519 H         1 <0>         0.0684
     42 H18        -3.1100    1.0262   10.2642 H         1 <0>         0.0721
     43 H19        -1.6685   -0.4885    8.9314 H         1 <0>         0.0680
     44 H20        -0.3020   -0.1451   10.0190 H         1 <0>         0.0666
     45 H21         0.4814    3.9057    8.0470 H         1 <0>         0.0866
     46 H22         1.8227    3.4975    9.1648 H         1 <0>         0.0660
     47 H23        -0.0055    1.3757    5.4266 H         1 <0>         0.0727
     48 H24        -0.9360    2.6113    6.3073 H         1 <0>         0.0601
     49 H25        -2.6685    0.9736    6.8601 H         1 <0>         0.0587
     50 H26        -1.7132   -0.3331    6.1197 H         1 <0>         0.0576
     51 H27        -1.8595    0.8053    3.9217 H         1 <0>         0.0598
     52 H28        -2.8149    2.1120    4.6621 H         1 <0>         0.0589
     53 H29        -4.5594    0.4716    5.3061 H         1 <0>         0.0546
     54 H30        -3.6040   -0.8351    4.5657 H         1 <0>         0.0549
     55 H31        -3.7504    0.3033    2.3677 H         1 <0>         0.0583
     56 H32        -4.7058    1.6100    3.1081 H         1 <0>         0.0581
     57 H33        -6.4502   -0.0304    3.7520 H         1 <0>         0.0608
     58 H34        -5.4949   -1.3370    3.0116 H         1 <0>         0.0609
     59 H35         2.6397    2.8572    6.5209 H         1 <0>         0.3741
     60 H36        -0.4566    4.1576   10.7224 H         1 <0>         0.3743
     61 H37        -0.9675   -0.4489   12.7904 H         1 <0>         0.3694
     62 O5         -7.4766   -0.5676    1.2361 O.co2     1 <0>        -0.7806
@<TRIPOS>BOND
     1    1    2 1
     2    1   30 1
     3    1   31 1
     4    1   32 1
     5    2    3 1
     6    2   33 1
     7    2   34 1
     8    3    4 1
     9    3   35 1
    10    3   36 1
    11    4    5 1
    12    4   37 1
    13    4   38 1
    14    5    6 1
    15    5   39 1
    16    5   40 1
    17    6    7 1
    18    6    8 1
    19    6   29 1
    20    8    9 1
    21    8   41 1
    22    8   42 1
    23    9   10 1
    24    9   43 1
    25    9   44 1
    26   10   11 1
    27   10   17 1
    28   10   12 1
    29   12   13 1
    30   12   14 1
    31   12   28 1
    32   14   15 1
    33   14   45 1
    34   14   46 1
    35   15   16 1
    36   15   17 1
    37   15   27 1
    38   17   18 1
    39   17   19 1
    40   19   20 1
    41   19   47 1
    42   19   48 1
    43   20   21 1
    44   20   49 1
    45   20   50 1
    46   21   22 1
    47   21   51 1
    48   21   52 1
    49   22   23 1
    50   22   53 1
    51   22   54 1
    52   23   24 1
    53   23   55 1
    54   23   56 1
    55   24   25 1
    56   24   57 1
    57   24   58 1
    58   25   26 2
    59   25   62 1
    60   27   59 1
    61   28   60 1
    62   29   61 1
@<TRIPOS>MOLECULE
ZINC04536236
   57    58     0     0     0
SMALL
USER_CHARGES

@<TRIPOS>ATOM
      1 C1          0.2051    1.0524   -1.1415 C.ar      1 <0>        -0.0670
      2 C2          1.3851    1.7705   -1.1107 C.ar      1 <0>        -0.1477
      3 C3          2.5879    1.1177   -0.8839 C.ar      1 <0>         0.1465
      4 C4          2.6033   -0.2556   -0.6883 C.ar      1 <0>        -0.2051
      5 C5          1.4204   -0.9701   -0.7200 C.ar      1 <0>         0.0055
      6 C6          0.2219   -0.3159   -0.9465 C.ar      1 <0>        -0.1521
      7 Cl1         1.4381   -2.6888   -0.4760 Cl        1 <0>        -0.0671
      8 O1          3.7495    1.8225   -0.8537 O.3       1 <0>        -0.2982
      9 C7          4.9499    1.0847   -0.6151 C.3       1 <0>         0.0304
     10 C8          6.1447    2.0404   -0.6168 C.3       1 <0>         0.1438
     11 H1          5.9734    2.8375    0.1067 H         1 <0>         0.1224
     12 C9          7.3937    1.2838   -0.2443 C.2       1 <0>        -0.1935
     13 C10         8.4365    1.3104   -1.0367 C.2       1 <0>        -0.1215
     14 C11         9.6854    0.5538   -0.6642 C.3       1 <0>        -0.0528
     15 H2          9.5464    0.0326    0.2830 H         1 <0>         0.0928
     16 C12        10.0667   -0.4473   -1.7829 C.3       1 <0>         0.1089
     17 H3          9.8800   -0.0167   -2.7667 H         1 <0>         0.0666
     18 C13        11.5844   -0.6546   -1.5534 C.3       1 <0>        -0.1921
     19 C14        12.1003    0.7423   -1.1504 C.3       1 <0>         0.1075
     20 H4         12.4967    1.2602   -2.0238 H         1 <0>         0.0592
     21 C15        10.8922    1.5112   -0.5816 C.3       1 <0>        -0.0687
     22 H5         10.7029    2.4030   -1.1790 H         1 <0>         0.0847
     23 C16        11.1534    1.9008    0.8747 C.3       1 <0>        -0.0769
     24 C17        12.2536    2.9293    0.9300 C.2       1 <0>        -0.1583
     25 C18        12.0684    4.0523    1.5786 C.2       1 <0>        -0.1529
     26 C19        10.8264    4.2464    2.4097 C.3       1 <0>        -0.1024
     27 C20        11.2221    4.6514    3.8311 C.3       1 <0>        -0.0858
     28 C21         9.9612    4.8485    4.6750 C.3       1 <0>        -0.1830
     29 C22        10.3510    5.2474    6.0750 C.2       1 <0>         0.4877
     30 O2         11.5282    5.3632    6.3705 O.co2     1 <0>        -0.6996
     31 O3          9.4891    5.4542    6.9122 O.co2     1 <0>        -0.7100
     32 O4         13.1151    0.6200   -0.1518 O.3       1 <0>        -0.5474
     33 O5          9.3546   -1.6764   -1.6269 O.3       1 <0>        -0.5590
     34 O6          6.3010    2.6055   -1.9200 O.3       1 <0>        -0.5467
     35 H6         -0.7318    1.5613   -1.3137 H         1 <0>         0.1400
     36 H7          1.3711    2.8396   -1.2635 H         1 <0>         0.1388
     37 H8          3.5386   -0.7661   -0.5119 H         1 <0>         0.1384
     38 H9         -0.7016   -0.8754   -0.9709 H         1 <0>         0.1345
     39 H10         4.8842    0.5868    0.3523 H         1 <0>         0.0770
     40 H11         5.0800    0.3390   -1.3994 H         1 <0>         0.0688
     41 H12         7.4290    0.7196    0.6760 H         1 <0>         0.1228
     42 H13         8.4011    1.8746   -1.9569 H         1 <0>         0.1198
     43 H14        11.7543   -1.3706   -0.7493 H         1 <0>         0.0873
     44 H15        12.0669   -0.9892   -2.4717 H         1 <0>         0.0689
     45 H16        10.2442    2.3178    1.3079 H         1 <0>         0.0744
     46 H17        11.4529    1.0177    1.4390 H         1 <0>         0.0740
     47 H18        13.1946    2.7404    0.4349 H         1 <0>         0.1123
     48 H19        12.8058    4.8390    1.5176 H         1 <0>         0.1029
     49 H20        10.2115    5.0298    1.9667 H         1 <0>         0.0605
     50 H21        10.2611    3.3150    2.4414 H         1 <0>         0.0678
     51 H22        11.8371    3.8680    4.2742 H         1 <0>         0.0579
     52 H23        11.7874    5.5828    3.7995 H         1 <0>         0.0573
     53 H24         9.3463    5.6319    4.2319 H         1 <0>         0.0543
     54 H25         9.3959    3.9171    4.7066 H         1 <0>         0.0536
     55 H26        13.8946    0.1265   -0.4416 H         1 <0>         0.3709
     56 H27         9.5580   -2.3373   -2.3028 H         1 <0>         0.3770
     57 H28         6.4571    1.9523   -2.6157 H         1 <0>         0.3725
@<TRIPOS>BOND
     1    1    6 ar
     2    1    2 ar
     3    1   35 1
     4    2    3 ar
     5    2   36 1
     6    3    4 ar
     7    3    8 1
     8    4    5 ar
     9    4   37 1
    10    5    6 ar
    11    5    7 1
    12    6   38 1
    13    8    9 1
    14    9   10 1
    15    9   39 1
    16    9   40 1
    17   10   11 1
    18   10   12 1
    19   10   34 1
    20   12   13 2
    21   12   41 1
    22   13   14 1
    23   13   42 1
    24   14   15 1
    25   14   21 1
    26   14   16 1
    27   16   17 1
    28   16   18 1
    29   16   33 1
    30   18   19 1
    31   18   43 1
    32   18   44 1
    33   19   20 1
    34   19   21 1
    35   19   32 1
    36   21   22 1
    37   21   23 1
    38   23   24 1
    39   23   45 1
    40   23   46 1
    41   24   25 2
    42   24   47 1
    43   25   26 1
    44   25   48 1
    45   26   27 1
    46   26   49 1
    47   26   50 1
    48   27   28 1
    49   27   51 1
    50   27   52 1
    51   28   29 1
    52   28   53 1
    53   28   54 1
    54   29   30 2
    55   29   31 1
    56   32   55 1
    57   33   56 1
    58   34   57 1
@<TRIPOS>MOLECULE
ZINC29327528
   66    67     0     0     0
SMALL
USER_CHARGES
7-[(1R,2R,3R,5S)-3,5-dihydroxy-2-[(3R)-3-hydroxy-5-[3-(trifluoromethyl)phenyl]pentyl]cyclopentyl]heptanoic acid
@<TRIPOS>ATOM
      1 C1         -7.3892   -0.9701   14.8861 C.ar      1 <0>        -0.1165
      2 C2         -6.4190   -1.2737   13.9490 C.ar      1 <0>        -0.0853
      3 C3         -5.0830   -1.2389   14.3013 C.ar      1 <0>        -0.0787
      4 C4         -4.7170   -0.9055   15.5922 C.ar      1 <0>        -0.0669
      5 C5         -5.6865   -0.5969   16.5276 C.ar      1 <0>        -0.1817
      6 C6         -7.0230   -0.6318   16.1752 C.ar      1 <0>        -0.0801
      7 C7         -5.2873   -0.2286   17.9332 C.3       1 <0>         0.5082
      8 F1         -6.4342    0.0332   18.6903 F         1 <0>        -0.1779
      9 F2         -4.5797   -1.2887   18.5100 F         1 <0>        -0.1770
     10 F3         -4.4773    0.9118   17.9043 F         1 <0>        -0.1765
     11 C8         -4.0256   -1.5702   13.2799 C.3       1 <0>        -0.0803
     12 C9         -3.6028   -0.2933   12.5508 C.3       1 <0>        -0.1061
     13 C10        -2.5293   -0.6297   11.5139 C.3       1 <0>         0.1159
     14 H1         -2.8495   -1.4557   10.8619 H         1 <0>         0.0509
     15 C11        -2.1962    0.6224   10.7001 C.3       1 <0>        -0.1489
     16 C12        -1.2158    0.2587    9.5831 C.3       1 <0>        -0.1155
     17 C13        -0.8827    1.5108    8.7693 C.3       1 <0>        -0.0737
     18 H2         -1.8345    1.9540    8.4412 H         1 <0>         0.0920
     19 C14        -0.0667    2.4982    9.6289 C.3       1 <0>         0.1165
     20 H3          0.3823    2.0558   10.5304 H         1 <0>         0.0595
     21 C15         0.9487    3.1167    8.6363 C.3       1 <0>        -0.1423
     22 C16         1.3266    1.9121    7.7390 C.3       1 <0>         0.1210
     23 H4          2.1650    1.3049    8.1111 H         1 <0>         0.0575
     24 C17         0.0032    1.1381    7.5677 C.3       1 <0>        -0.1145
     25 H5          0.1748    0.0526    7.5199 H         1 <0>         0.0769
     26 C18        -0.6811    1.5524    6.2635 C.3       1 <0>        -0.1031
     27 C19        -1.9561    0.7284    6.0725 C.3       1 <0>        -0.1193
     28 C20        -2.5720    1.0504    4.7094 C.3       1 <0>        -0.1187
     29 C21        -3.8469    0.2265    4.5184 C.3       1 <0>        -0.1190
     30 C22        -4.4628    0.5485    3.1554 C.3       1 <0>        -0.0993
     31 C23        -5.7378   -0.2755    2.9643 C.3       1 <0>        -0.1580
     32 C24        -6.3444    0.0417    1.6218 C.2       1 <0>         0.4568
     33 O1         -5.8117    0.8444    0.8926 O.co2     1 <0>        -0.6423
     34 O2         -7.4766   -0.5676    1.2361 O.co2     1 <0>        -0.7802
     35 O3          1.8093    2.3640    6.4722 O.3       1 <0>        -0.5993
     36 O4         -0.9177    3.5092   10.1728 O.3       1 <0>        -0.5987
     37 O5         -1.3524   -1.0922   12.1796 O.3       1 <0>        -0.5988
     38 H6         -8.4332   -0.9977   14.6109 H         1 <0>         0.1358
     39 H7         -6.7052   -1.5384   12.9418 H         1 <0>         0.1335
     40 H8         -3.6732   -0.8827   15.8686 H         1 <0>         0.1327
     41 H9         -7.7808   -0.3950   16.9073 H         1 <0>         0.1370
     42 H10        -3.1530   -2.0100   13.7850 H         1 <0>         0.0839
     43 H11        -4.4303   -2.2903   12.5535 H         1 <0>         0.0760
     44 H12        -4.4754    0.1465   12.0457 H         1 <0>         0.0790
     45 H13        -3.1981    0.4268   13.2772 H         1 <0>         0.0721
     46 H14        -3.1184    1.0299   10.2603 H         1 <0>         0.0708
     47 H15        -1.7394    1.3765   11.3579 H         1 <0>         0.0769
     48 H16        -0.2936   -0.1489   10.0230 H         1 <0>         0.0591
     49 H17        -1.6727   -0.4954    8.9253 H         1 <0>         0.0677
     50 H18         0.4643    3.9292    8.0749 H         1 <0>         0.0877
     51 H19         1.8083    3.5177    9.1933 H         1 <0>         0.0678
     52 H20        -0.9383    2.6210    6.3078 H         1 <0>         0.0629
     53 H21         0.0007    1.3741    5.4189 H         1 <0>         0.0657
     54 H22        -1.7109   -0.3429    6.1203 H         1 <0>         0.0570
     55 H23        -2.6751    0.9758    6.8674 H         1 <0>         0.0595
     56 H24        -2.8171    2.1217    4.6617 H         1 <0>         0.0600
     57 H25        -1.8530    0.8030    3.9145 H         1 <0>         0.0599
     58 H26        -3.6017   -0.8448    4.5661 H         1 <0>         0.0547
     59 H27        -4.5659    0.4739    5.3133 H         1 <0>         0.0548
     60 H28        -4.7080    1.6198    3.1077 H         1 <0>         0.0587
     61 H29        -3.7438    0.3012    2.3605 H         1 <0>         0.0586
     62 H30        -5.4926   -1.3468    3.0120 H         1 <0>         0.0608
     63 H31        -6.4568   -0.0282    3.7592 H         1 <0>         0.0609
     64 H32         2.1230    1.6344    5.7110 H         1 <0>         0.4057
     65 H33        -0.4954    4.2975   10.8134 H         1 <0>         0.4034
     66 H34        -0.4678   -1.3834   11.5941 H         1 <0>         0.4006
@<TRIPOS>BOND
     1    1    6 ar
     2    1    2 ar
     3    1   38 1
     4    2    3 ar
     5    2   39 1
     6    3    4 ar
     7    3   11 1
     8    4    5 ar
     9    4   40 1
    10    5    6 ar
    11    5    7 1
    12    6   41 1
    13    7    8 1
    14    7    9 1
    15    7   10 1
    16   11   12 1
    17   11   42 1
    18   11   43 1
    19   12   13 1
    20   12   44 1
    21   12   45 1
    22   13   14 1
    23   13   15 1
    24   13   37 1
    25   15   16 1
    26   15   46 1
    27   15   47 1
    28   16   17 1
    29   16   48 1
    30   16   49 1
    31   17   18 1
    32   17   24 1
    33   17   19 1
    34   19   20 1
    35   19   21 1
    36   19   36 1
    37   21   22 1
    38   21   50 1
    39   21   51 1
    40   22   23 1
    41   22   24 1
    42   22   35 1
    43   24   25 1
    44   24   26 1
    45   26   27 1
    46   26   52 1
    47   26   53 1
    48   27   28 1
    49   27   54 1
    50   27   55 1
    51   28   29 1
    52   28   56 1
    53   28   57 1
    54   29   30 1
    55   29   58 1
    56   29   59 1
    57   30   31 1
    58   30   60 1
    59   30   61 1
    60   31   32 1
    61   31   62 1
    62   31   63 1
    63   32   33 2
    64   32   34 1
    65   35   64 1
    66   36   65 1
    67   37   66 1
@<TRIPOS>MOLECULE
ZINC29323758
   64    64     0     0     0
SMALL
USER_CHARGES
(Z)-7-[(1R,2R,3R,5S)-3,5-dihydroxy-2-[(E,3R)-3-hydroxy-4,4-dimethyl-oct-1-enyl]cyclopentyl]hept-5-enoic acid
@<TRIPOS>ATOM
      1 C1          8.2004   12.0853   -0.5900 C.3       1 <0>        -0.1543
      2 C2          7.3726   11.1676    0.3119 C.3       1 <0>        -0.1252
      3 C3          6.5495   10.2103   -0.5524 C.3       1 <0>        -0.1250
      4 C4          5.7217    9.2926    0.3495 C.3       1 <0>        -0.1049
      5 C5          4.8987    8.3353   -0.5148 C.3       1 <0>        -0.0436
      6 C6          5.8387    7.4904   -1.3770 C.3       1 <0>        -0.1370
      7 C7          3.9633    9.1407   -1.4189 C.3       1 <0>        -0.1494
      8 C8          4.0709    7.4176    0.3871 C.3       1 <0>         0.1571
      9 H1          3.4139    7.9911    1.0575 H         1 <0>         0.0549
     10 C9          3.2602    6.4747   -0.4642 C.2       1 <0>        -0.1823
     11 C10         3.3557    5.1810   -0.2818 C.2       1 <0>        -0.1443
     12 C11         2.5450    4.2381   -1.1332 C.3       1 <0>        -0.0435
     13 H2          1.9772    4.8607   -1.8403 H         1 <0>         0.0946
     14 C12         3.4780    3.2478   -1.8603 C.3       1 <0>         0.1202
     15 H3          4.4934    3.1869   -1.4418 H         1 <0>         0.0597
     16 C13         2.6926    1.9128   -1.8558 C.3       1 <0>        -0.1430
     17 C14         2.0142    1.9200   -0.4633 C.3       1 <0>         0.1209
     18 H4          2.6192    1.4869    0.3469 H         1 <0>         0.0584
     19 C15         1.6143    3.3939   -0.2450 C.3       1 <0>        -0.1003
     20 H5          1.7022    3.6826    0.8128 H         1 <0>         0.0758
     21 C16         0.1573    3.6085   -0.6596 C.3       1 <0>        -0.0846
     22 C17        -0.2508    5.0249   -0.3459 C.2       1 <0>        -0.1769
     23 C18        -0.7702    5.7795   -1.2824 C.2       1 <0>        -0.1385
     24 C19        -1.1163    5.1853   -2.6233 C.3       1 <0>        -0.1041
     25 C20        -2.5682    5.5208   -2.9704 C.3       1 <0>        -0.0908
     26 C21        -2.9196    4.9176   -4.3318 C.3       1 <0>        -0.1581
     27 C22        -4.3497    5.2480   -4.6736 C.2       1 <0>         0.4579
     28 O1         -5.0191    5.8992   -3.9070 O.co2     1 <0>        -0.6427
     29 O2         -4.8797    4.8189   -5.8297 O.co2     1 <0>        -0.7795
     30 O3          0.8562    1.0828   -0.4668 O.3       1 <0>        -0.5972
     31 O4          3.7203    3.6810   -3.2003 O.3       1 <0>        -0.5979
     32 O5          4.9445    6.6654    1.2315 O.3       1 <0>        -0.5905
     33 H6          8.7921   12.7735    0.0314 H         1 <0>         0.0516
     34 H7          7.5279   12.6643   -1.2400 H         1 <0>         0.0534
     35 H8          8.8762   11.4778   -1.2098 H         1 <0>         0.0530
     36 H9          8.0451   10.5886    0.9619 H         1 <0>         0.0592
     37 H10         6.6968   11.7751    0.9318 H         1 <0>         0.0590
     38 H11         5.8771   10.7894   -1.2024 H         1 <0>         0.0638
     39 H12         7.2253    9.6028   -1.1723 H         1 <0>         0.0643
     40 H13         6.3942    8.7136    0.9995 H         1 <0>         0.0691
     41 H14         5.0458    9.9001    0.9693 H         1 <0>         0.0565
     42 H15         5.2469    6.8022   -1.9984 H         1 <0>         0.0575
     43 H16         6.5112    6.9114   -0.7270 H         1 <0>         0.0585
     44 H17         6.4338    8.1502   -2.0255 H         1 <0>         0.0522
     45 H18         3.3716    8.4524   -2.0403 H         1 <0>         0.0615
     46 H19         4.5584    9.8005   -2.0673 H         1 <0>         0.0637
     47 H20         3.2874    9.7481   -0.7990 H         1 <0>         0.0554
     48 H21         2.5882    6.8728   -1.2388 H         1 <0>         0.1174
     49 H22         4.0276    4.7829    0.4928 H         1 <0>         0.1109
     50 H23         1.9665    1.9118   -2.6821 H         1 <0>         0.0904
     51 H24         3.3935    1.0746   -1.9826 H         1 <0>         0.0693
     52 H25         0.0529    3.4275   -1.7396 H         1 <0>         0.0827
     53 H26        -0.4880    2.9100   -0.1067 H         1 <0>         0.0708
     54 H27        -0.1126    5.4251    0.6693 H         1 <0>         0.1017
     55 H28        -0.9537    6.8469   -1.0900 H         1 <0>         0.1059
     56 H29        -0.4496    5.6026   -3.3923 H         1 <0>         0.0640
     57 H30        -0.9918    4.0931   -2.5835 H         1 <0>         0.0728
     58 H31        -3.2349    5.1035   -2.2014 H         1 <0>         0.0595
     59 H32        -2.6927    6.6130   -3.0101 H         1 <0>         0.0588
     60 H33        -2.2530    5.3350   -5.1008 H         1 <0>         0.0617
     61 H34        -2.7950    3.8254   -4.2921 H         1 <0>         0.0618
     62 H35         0.2535    0.9738    0.4469 H         1 <0>         0.4047
     63 H36         4.3682    3.0871   -3.8617 H         1 <0>         0.4039
     64 H37         4.5282    5.9471    1.9531 H         1 <0>         0.3992
@<TRIPOS>BOND
     1    1    2 1
     2    1   33 1
     3    1   34 1
     4    1   35 1
     5    2    3 1
     6    2   36 1
     7    2   37 1
     8    3    4 1
     9    3   38 1
    10    3   39 1
    11    4    5 1
    12    4   40 1
    13    4   41 1
    14    5    6 1
    15    5    7 1
    16    5    8 1
    17    6   42 1
    18    6   43 1
    19    6   44 1
    20    7   45 1
    21    7   46 1
    22    7   47 1
    23    8    9 1
    24    8   10 1
    25    8   32 1
    26   10   11 2
    27   10   48 1
    28   11   12 1
    29   11   49 1
    30   12   13 1
    31   12   19 1
    32   12   14 1
    33   14   15 1
    34   14   16 1
    35   14   31 1
    36   16   17 1
    37   16   50 1
    38   16   51 1
    39   17   18 1
    40   17   19 1
    41   17   30 1
    42   19   20 1
    43   19   21 1
    44   21   22 1
    45   21   52 1
    46   21   53 1
    47   22   23 2
    48   22   54 1
    49   23   24 1
    50   23   55 1
    51   24   25 1
    52   24   56 1
    53   24   57 1
    54   25   26 1
    55   25   58 1
    56   25   59 1
    57   26   27 1
    58   26   60 1
    59   26   61 1
    60   27   28 2
    61   27   29 1
    62   30   62 1
    63   31   63 1
    64   32   64 1
@<TRIPOS>MOLECULE
ZINC03961849
   47    50     0     0     0
SMALL
USER_CHARGES
2-[(4-chlorophenyl)methyl-fluoro-methylsulfonyl-BLAHyl]acetic acid
@<TRIPOS>ATOM
      1 C1         -6.4410    3.4422   -0.0771 C.3       1 <0>        -0.6680
      2 S1         -6.2263    5.1766    0.4093 S.o2      1 <0>         2.4753
      3 O1         -6.2757    5.2978    1.8243 O.2       1 <0>        -0.9191
      4 O2         -7.0177    6.0184   -0.4179 O.2       1 <0>        -0.9355
      5 C2         -4.5612    5.5638   -0.0173 C.ar      1 <0>        -0.6388
      6 C3         -4.2992    6.5062   -0.9872 C.ar      1 <0>        -0.0283
      7 C4         -2.9909    6.8221   -1.3340 C.ar      1 <0>         0.0424
      8 C5         -1.9346    6.1941   -0.7095 C.ar      1 <0>        -0.0445
      9 C6         -2.1863    5.2365    0.2749 C.ar      1 <0>        -0.0680
     10 C7         -3.5098    4.9174    0.6244 C.ar      1 <0>         0.1754
     11 N1         -3.4482    3.9554    1.6069 N.pl3     1 <0>        -0.4588
     12 C8         -2.1367    3.6549    1.8906 C.2       1 <0>         0.0813
     13 C9         -1.3294    4.3965    1.1188 C.2       1 <0>        -0.1840
     14 C10         0.1222    4.0855    1.4114 C.3       1 <0>        -0.0512
     15 C11         0.0955    2.7384    2.1661 C.3       1 <0>        -0.0908
     16 C12        -1.3147    2.7562    2.7946 C.3       1 <0>        -0.0057
     17 H1         -1.2744    3.1663    3.8037 H         1 <0>         0.0987
     18 C13        -1.9038    1.3444    2.8187 C.3       1 <0>        -0.1654
     19 C14        -1.0210    0.4458    3.6458 C.2       1 <0>         0.4635
     20 O3         -0.0204    0.8879    4.1589 O.co2     1 <0>        -0.6318
     21 C15        -4.6097    3.3411    2.2547 C.3       1 <0>         0.1233
     22 C16        -4.6851    3.7981    3.6888 C.ar      1 <0>        -0.1087
     23 C17        -3.6604    3.4941    4.5656 C.ar      1 <0>        -0.1050
     24 C18        -3.7264    3.9178    5.8795 C.ar      1 <0>        -0.1157
     25 C19        -4.8234    4.6366    6.3201 C.ar      1 <0>        -0.0240
     26 C20        -5.8512    4.9356    5.4435 C.ar      1 <0>        -0.1266
     27 C21        -5.7815    4.5162    4.1284 C.ar      1 <0>        -0.0643
     28 Cl1        -4.9105    5.1625    7.9722 Cl        1 <0>        -0.0786
     29 F1         -2.7532    7.7493   -2.2873 F         1 <0>        -0.1388
     30 H2         -5.6239    2.8468    0.3303 H         1 <0>         0.1359
     31 H3         -7.3896    3.0709    0.3107 H         1 <0>         0.1413
     32 H4         -6.4384    3.3669   -1.1645 H         1 <0>         0.1398
     33 H5         -5.1189    7.0050   -1.4830 H         1 <0>         0.1576
     34 H6         -0.9186    6.4415   -0.9797 H         1 <0>         0.1436
     35 H7          0.5575    4.8631    2.0390 H         1 <0>         0.0746
     36 H8          0.6855    3.9889    0.4832 H         1 <0>         0.0692
     37 H9          0.8655    2.7079    2.9370 H         1 <0>         0.0988
     38 H10         0.2040    1.9022    1.4754 H         1 <0>         0.0724
     39 H11        -1.9636    0.9582    1.8011 H         1 <0>         0.0704
     40 H12        -2.9022    1.3747    3.2551 H         1 <0>         0.0660
     41 H13        -5.5178    3.6386    1.7304 H         1 <0>         0.0915
     42 H14        -4.5112    2.2560    2.2239 H         1 <0>         0.1076
     43 H15        -2.8062    2.9293    4.2227 H         1 <0>         0.1531
     44 H16        -2.9238    3.6841    6.5634 H         1 <0>         0.1351
     45 H17        -6.7080    5.4963    5.7869 H         1 <0>         0.1316
     46 H18        -6.5839    4.7492    3.4441 H         1 <0>         0.1730
     47 O4         -1.3434   -0.8471    3.8080 O.co2     1 <0>        -0.7697
@<TRIPOS>BOND
     1    1    2 1
     2    1   30 1
     3    1   31 1
     4    1   32 1
     5    2    3 2
     6    2    4 2
     7    2    5 1
     8    5   10 ar
     9    5    6 ar
    10    6    7 ar
    11    6   33 1
    12    7    8 ar
    13    7   29 1
    14    8    9 ar
    15    8   34 1
    16    9   13 1
    17    9   10 ar
    18   10   11 1
    19   11   12 1
    20   11   21 1
    21   12   16 1
    22   12   13 2
    23   13   14 1
    24   14   15 1
    25   14   35 1
    26   14   36 1
    27   15   16 1
    28   15   37 1
    29   15   38 1
    30   16   17 1
    31   16   18 1
    32   18   19 1
    33   18   39 1
    34   18   40 1
    35   19   20 2
    36   19   47 1
    37   21   22 1
    38   21   41 1
    39   21   42 1
    40   22   27 ar
    41   22   23 ar
    42   23   24 ar
    43   23   43 1
    44   24   25 ar
    45   24   44 1
    46   25   26 ar
    47   25   28 1
    48   26   27 ar
    49   26   45 1
    50   27   46 1
@<TRIPOS>MOLECULE
ZINC03830709
   58    58     0     0     0
SMALL
USER_CHARGES

@<TRIPOS>ATOM
      1 C1          1.1636    1.5627    0.2135 C.3       1 <0>        -0.1533
      2 C2          1.1751    0.0327    0.2109 C.3       1 <0>        -0.1261
      3 C3          1.6404   -0.4714   -1.1567 C.3       1 <0>        -0.1204
      4 C4          1.6520   -2.0014   -1.1593 C.3       1 <0>        -0.1179
      5 C5          2.1173   -2.5055   -2.5269 C.3       1 <0>        -0.1440
      6 C6          2.1288   -4.0355   -2.5295 C.3       1 <0>         0.1348
      7 H1          1.1454   -4.4067   -2.2410 H         1 <0>         0.1090
      8 C7          2.4682   -4.5329   -3.9110 C.2       1 <0>        -0.1863
      9 C8          3.4720   -5.3569   -4.0822 C.2       1 <0>        -0.1385
     10 C9          3.8114   -5.8543   -5.4637 C.3       1 <0>        -0.0503
     11 H2          3.1338   -5.4230   -6.2006 H         1 <0>         0.0902
     12 C10         5.2813   -5.5162   -5.8157 C.3       1 <0>         0.1088
     13 H3          5.9248   -5.6371   -4.9443 H         1 <0>         0.0655
     14 C11         5.6234   -6.5673   -6.9008 C.3       1 <0>        -0.1921
     15 C12         4.9078   -7.8485   -6.4253 C.3       1 <0>         0.1074
     16 H4          5.6010   -8.4783   -5.8675 H         1 <0>         0.0585
     17 C13         3.7522   -7.3950   -5.5125 C.3       1 <0>        -0.0685
     18 H5          3.8845   -7.8056   -4.5115 H         1 <0>         0.0838
     19 C14         2.4118   -7.8499   -6.0933 C.3       1 <0>        -0.0766
     20 C15         2.3173   -9.3523   -6.0218 C.2       1 <0>        -0.1574
     21 C16         1.2737   -9.9173   -5.4672 C.2       1 <0>        -0.1538
     22 C17         0.0924   -9.0774   -5.0547 C.3       1 <0>        -0.1023
     23 C18        -1.1818   -9.6464   -5.6820 C.3       1 <0>        -0.0856
     24 C19        -2.3812   -8.7937   -5.2632 C.3       1 <0>        -0.1830
     25 C20        -3.6362   -9.3541   -5.8811 C.2       1 <0>         0.4878
     26 O1         -3.5770  -10.3438   -6.5906 O.co2     1 <0>        -0.6996
     27 O2         -4.7109   -8.8178   -5.6714 O.co2     1 <0>        -0.7102
     28 O3          4.3904   -8.5656   -7.5478 O.3       1 <0>        -0.5476
     29 O4          5.3847   -4.1905   -6.3391 O.3       1 <0>        -0.5585
     30 O5          3.1071   -4.5061   -1.6002 O.3       1 <0>        -0.5572
     31 H6          2.1684    1.9340    0.0121 H         1 <0>         0.0520
     32 H7          0.4820    1.9222   -0.5575 H         1 <0>         0.0533
     33 H8          0.8320    1.9219    1.1878 H         1 <0>         0.0523
     34 H9          1.8566   -0.3268    0.9818 H         1 <0>         0.0601
     35 H10         0.1702   -0.3385    0.4123 H         1 <0>         0.0615
     36 H11         0.9589   -0.1119   -1.9276 H         1 <0>         0.0605
     37 H12         2.6453   -0.1002   -1.3581 H         1 <0>         0.0587
     38 H13         2.3335   -2.3609   -0.3884 H         1 <0>         0.0672
     39 H14         0.6471   -2.3726   -0.9579 H         1 <0>         0.0627
     40 H15         1.4358   -2.1460   -3.2978 H         1 <0>         0.0730
     41 H16         3.1222   -2.1343   -2.7283 H         1 <0>         0.0646
     42 H17         1.8837   -4.2100   -4.7599 H         1 <0>         0.1163
     43 H18         4.0565   -5.6797   -3.2334 H         1 <0>         0.1162
     44 H19         5.2386   -6.2531   -7.8710 H         1 <0>         0.0867
     45 H20         6.7004   -6.7279   -6.9503 H         1 <0>         0.0680
     46 H21         1.5980   -7.4070   -5.5192 H         1 <0>         0.0742
     47 H22         2.3390   -7.5303   -7.1328 H         1 <0>         0.0734
     48 H23         3.1100   -9.9631   -6.4279 H         1 <0>         0.1121
     49 H24         1.2598  -10.9850   -5.3055 H         1 <0>         0.1026
     50 H25        -0.0006   -9.0895   -3.9687 H         1 <0>         0.0601
     51 H26         0.2387   -8.0524   -5.3954 H         1 <0>         0.0680
     52 H27        -1.0889   -9.6342   -6.7679 H         1 <0>         0.0579
     53 H28        -1.3281  -10.6714   -5.3413 H         1 <0>         0.0571
     54 H29        -2.4741   -8.8058   -4.1772 H         1 <0>         0.0542
     55 H30        -2.2349   -7.7687   -5.6039 H         1 <0>         0.0537
     56 H31         5.0674   -8.8602   -8.1724 H         1 <0>         0.3704
     57 H32         6.2856   -3.9301   -6.5753 H         1 <0>         0.3758
     58 H33         4.0079   -4.2136   -1.7955 H         1 <0>         0.3707
@<TRIPOS>BOND
     1    1    2 1
     2    1   31 1
     3    1   32 1
     4    1   33 1
     5    2    3 1
     6    2   34 1
     7    2   35 1
     8    3    4 1
     9    3   36 1
    10    3   37 1
    11    4    5 1
    12    4   38 1
    13    4   39 1
    14    5    6 1
    15    5   40 1
    16    5   41 1
    17    6    7 1
    18    6    8 1
    19    6   30 1
    20    8    9 2
    21    8   42 1
    22    9   10 1
    23    9   43 1
    24   10   11 1
    25   10   17 1
    26   10   12 1
    27   12   13 1
    28   12   14 1
    29   12   29 1
    30   14   15 1
    31   14   44 1
    32   14   45 1
    33   15   16 1
    34   15   17 1
    35   15   28 1
    36   17   18 1
    37   17   19 1
    38   19   20 1
    39   19   46 1
    40   19   47 1
    41   20   21 2
    42   20   48 1
    43   21   22 1
    44   21   49 1
    45   22   23 1
    46   22   50 1
    47   22   51 1
    48   23   24 1
    49   23   52 1
    50   23   53 1
    51   24   25 1
    52   24   54 1
    53   24   55 1
    54   25   26 2
    55   25   27 1
    56   28   56 1
    57   29   57 1
    58   30   58 1
