@<TRIPOS>MOLECULE
ZINC00007460
   40    43     0     0     0
SMALL
USER_CHARGES

@<TRIPOS>ATOM
      1 C1          0.0099    1.3100   -0.6665 C.ar      1 <0>        -0.0873
      2 C2          1.1932    2.0449   -0.6736 C.ar      1 <0>        -0.1031
      3 C3          2.3989    1.4389   -0.4755 C.ar      1 <0>        -0.0878
      4 C4          2.4464    0.0575   -0.2619 C.ar      1 <0>        -0.1050
      5 C5          1.2413   -0.6922   -0.2545 C.ar      1 <0>        -0.0366
      6 C6          0.0201   -0.0377   -0.4614 C.ar      1 <0>        -0.1000
      7 C7          1.3338   -2.0791   -0.0357 C.ar      1 <0>         0.0670
      8 N1          2.5164   -2.6188    0.1508 N.ar      1 <0>        -0.2122
      9 N2          3.6082   -1.9490    0.1455 N.ar      1 <0>        -0.3148
     10 C8          3.6557   -0.6424   -0.0488 C.ar      1 <0>         0.3624
     11 N3          4.8682    0.0284   -0.0441 N.pl3     1 <0>        -0.6425
     12 C9          6.0641   -0.6900    0.0467 C.ar      1 <0>         0.1605
     13 C10         6.1747   -1.9364   -0.5565 C.ar      1 <0>        -0.1016
     14 C11         7.3572   -2.6438   -0.4652 C.ar      1 <0>        -0.0857
     15 C12         8.4313   -2.1122    0.2268 C.ar      1 <0>        -0.0509
     16 C13         8.3240   -0.8708    0.8288 C.ar      1 <0>        -0.0880
     17 C14         7.1459   -0.1562    0.7354 C.ar      1 <0>        -0.1365
     18 Cl1         9.9160   -3.0048    0.3406 Cl        1 <0>        -0.0690
     19 C15         0.0926   -2.9335   -0.0150 C.3       1 <0>        -0.0232
     20 C16        -0.1981   -3.4309   -1.4076 C.ar      1 <0>        -0.0363
     21 C17        -0.9979   -2.6976   -2.2706 C.ar      1 <0>        -0.1703
     22 C18        -1.2425   -3.1855   -3.5404 C.ar      1 <0>         0.0995
     23 N4         -0.7257   -4.3333   -3.9331 N.ar      1 <0>        -0.4856
     24 C19         0.0392   -5.0571   -3.1393 C.ar      1 <0>         0.1005
     25 C20         0.3326   -4.6300   -1.8581 C.ar      1 <0>        -0.1573
     26 H1         -0.9311    1.8168   -0.8216 H         1 <0>         0.1364
     27 H2          1.1553    3.1115   -0.8389 H         1 <0>         0.1355
     28 H3          3.3089    2.0205   -0.4838 H         1 <0>         0.1315
     29 H4         -0.9047   -0.5955   -0.4580 H         1 <0>         0.1411
     30 H5          4.8872    0.9963   -0.1038 H         1 <0>         0.4199
     31 H6          5.3365   -2.3519   -1.0962 H         1 <0>         0.1422
     32 H7          7.4438   -3.6128   -0.9340 H         1 <0>         0.1376
     33 H8          9.1638   -0.4583    1.3683 H         1 <0>         0.1380
     34 H9          7.0641    0.8146    1.2016 H         1 <0>         0.1341
     35 H10         0.2476   -3.7836    0.6494 H         1 <0>         0.1044
     36 H11        -0.7500   -2.3417    0.3426 H         1 <0>         0.0975
     37 H12        -1.4246   -1.7571   -1.9546 H         1 <0>         0.1331
     38 H13        -1.8645   -2.6203   -4.2187 H         1 <0>         0.1558
     39 H14         0.4444   -5.9925   -3.4961 H         1 <0>         0.1573
     40 H15         0.9637   -5.2248   -1.2145 H         1 <0>         0.1397
@<TRIPOS>BOND
     1    1    6 ar
     2    1    2 ar
     3    1   26 1
     4    2    3 ar
     5    2   27 1
     6    3    4 ar
     7    3   28 1
     8    4   10 ar
     9    4    5 ar
    10    5    6 ar
    11    5    7 ar
    12    6   29 1
    13    7    8 ar
    14    7   19 1
    15    8    9 ar
    16    9   10 ar
    17   10   11 1
    18   11   12 1
    19   11   30 1
    20   12   17 ar
    21   12   13 ar
    22   13   14 ar
    23   13   31 1
    24   14   15 ar
    25   14   32 1
    26   15   16 ar
    27   15   18 1
    28   16   17 ar
    29   16   33 1
    30   17   34 1
    31   19   20 1
    32   19   35 1
    33   19   36 1
    34   20   25 ar
    35   20   21 ar
    36   21   22 ar
    37   21   37 1
    38   22   23 ar
    39   22   38 1
    40   23   24 ar
    41   24   25 ar
    42   24   39 1
    43   25   40 1
@<TRIPOS>MOLECULE
ZINC13474785
   63    67     0     0     0
SMALL
USER_CHARGES

@<TRIPOS>ATOM
      1 C1         -2.1246    1.3061   -5.4588 C.3       1 <0>         0.0239
      2 O1         -2.0667   -0.1208   -5.5091 O.3       1 <0>        -0.3002
      3 C2         -0.8829   -0.7027   -5.1790 C.ar      1 <0>         0.1156
      4 C3          0.1763    0.0798   -4.8158 C.ar      1 <0>        -0.1419
      5 C4          1.3954   -0.5183   -4.4752 C.ar      1 <0>        -0.1517
      6 C5          1.5241   -1.9290   -4.5090 C.ar      1 <0>         0.1777
      7 C6          0.4256   -2.7116   -4.8848 C.ar      1 <0>        -0.1830
      8 C7         -0.7646   -2.0992   -5.2096 C.ar      1 <0>         0.1606
      9 O2         -1.8337   -2.8563   -5.5691 O.3       1 <0>        -0.2971
     10 C8         -1.6504   -4.2735   -5.5810 C.3       1 <0>         0.0201
     11 N1          2.7036   -2.4771   -4.1769 N.ar      1 <0>        -0.5096
     12 C9          3.7149   -1.7180   -3.8285 C.ar      1 <0>         0.3107
     13 N2          3.6413   -0.3971   -3.7826 N.ar      1 <0>        -0.5396
     14 C10         2.5229    0.2460   -4.0910 C.ar      1 <0>         0.4677
     15 N3          2.4606    1.6231   -4.0392 N.pl3     1 <0>        -0.6596
     16 C11         1.9700    2.3048   -2.8332 C.3       1 <0>         0.1330
     17 C12         3.0387    3.2996   -2.3635 C.3       1 <0>         0.1145
     18 N4          3.4622    4.1113   -3.5131 N.am      1 <0>        -0.6209
     19 C13         3.9528    3.4297   -4.7192 C.3       1 <0>         0.0940
     20 C14         2.8894    2.4350   -5.1867 C.3       1 <0>         0.1337
     21 C15         3.4014    5.4568   -3.4625 C.2       1 <0>         0.7098
     22 O3          3.1198    6.0137   -2.4190 O.2       1 <0>        -0.5683
     23 N5          3.6527    6.1848   -4.5685 N.am      1 <0>        -0.6809
     24 C16         3.7821    7.5772   -4.4764 C.ar      1 <0>         0.1309
     25 C17         3.1691    8.2644   -3.4373 C.ar      1 <0>        -0.0986
     26 C18         3.2969    9.6363   -3.3471 C.ar      1 <0>        -0.1707
     27 C19         4.0378   10.3281   -4.2944 C.ar      1 <0>         0.1023
     28 C20         4.6503    9.6419   -5.3332 C.ar      1 <0>        -0.1232
     29 C21         4.5282    8.2692   -5.4209 C.ar      1 <0>        -0.1151
     30 O4          4.1634   11.6789   -4.2051 O.3       1 <0>        -0.2607
     31 C22         3.6606   12.2948   -3.1032 C.ar      1 <0>         0.0843
     32 C23         4.3611   12.2581   -1.9060 C.ar      1 <0>        -0.1315
     33 C24         3.8477   12.8850   -0.7872 C.ar      1 <0>        -0.1050
     34 C25         2.6369   13.5487   -0.8597 C.ar      1 <0>        -0.1186
     35 C26         1.9365   13.5864   -2.0513 C.ar      1 <0>        -0.1056
     36 C27         2.4484   12.9664   -3.1746 C.ar      1 <0>        -0.1237
     37 H1         -1.9050    1.6432   -4.4457 H         1 <0>         0.0580
     38 H2         -1.3906    1.7240   -6.1478 H         1 <0>         0.0575
     39 H3         -3.1222    1.6396   -5.7445 H         1 <0>         0.1064
     40 H4          0.0737    1.1546   -4.7918 H         1 <0>         0.1486
     41 H5          0.5096   -3.7879   -4.9153 H         1 <0>         0.1554
     42 H6         -1.3739   -4.6125   -4.5827 H         1 <0>         0.0621
     43 H7         -2.5786   -4.7573   -5.8850 H         1 <0>         0.1077
     44 H8         -0.8589   -4.5315   -6.2846 H         1 <0>         0.0620
     45 H9          4.6495   -2.1919   -3.5670 H         1 <0>         0.1963
     46 H10         1.0488    2.8396   -3.0644 H         1 <0>         0.0667
     47 H11         1.7831    1.5713   -2.0488 H         1 <0>         0.0849
     48 H12         2.6219    3.9472   -1.5922 H         1 <0>         0.1045
     49 H13         3.8948    2.7556   -1.9646 H         1 <0>         0.0762
     50 H14         4.1397    4.1631   -5.5035 H         1 <0>         0.0839
     51 H15         4.8741    2.8949   -4.4879 H         1 <0>         0.0830
     52 H16         3.3096    1.7875   -5.9563 H         1 <0>         0.0850
     53 H17         2.0352    2.9792   -5.5894 H         1 <0>         0.0665
     54 H18         3.7439    5.7451   -5.4282 H         1 <0>         0.4059
     55 H19         2.5921    7.7260   -2.7000 H         1 <0>         0.1646
     56 H20         2.8198   10.1710   -2.5391 H         1 <0>         0.1299
     57 H21         5.2266   10.1809   -6.0706 H         1 <0>         0.1365
     58 H22         5.0089    7.7346   -6.2268 H         1 <0>         0.1327
     59 H23         5.3068   11.7395   -1.8487 H         1 <0>         0.1300
     60 H24         4.3924   12.8564    0.1449 H         1 <0>         0.1305
     61 H25         2.2372   14.0382    0.0161 H         1 <0>         0.1287
     62 H26         0.9908   14.1052   -2.1052 H         1 <0>         0.1314
     63 H27         1.9036   13.0006   -4.1065 H         1 <0>         0.1317
@<TRIPOS>BOND
     1    1    2 1
     2    1   37 1
     3    1   38 1
     4    1   39 1
     5    2    3 1
     6    3    8 ar
     7    3    4 ar
     8    4    5 ar
     9    4   40 1
    10    5   14 ar
    11    5    6 ar
    12    6    7 ar
    13    6   11 ar
    14    7    8 ar
    15    7   41 1
    16    8    9 1
    17    9   10 1
    18   10   42 1
    19   10   43 1
    20   10   44 1
    21   11   12 ar
    22   12   13 ar
    23   12   45 1
    24   13   14 ar
    25   14   15 1
    26   15   20 1
    27   15   16 1
    28   16   17 1
    29   16   46 1
    30   16   47 1
    31   17   18 1
    32   17   48 1
    33   17   49 1
    34   18   19 1
    35   18   21 am
    36   19   20 1
    37   19   50 1
    38   19   51 1
    39   20   52 1
    40   20   53 1
    41   21   22 2
    42   21   23 am
    43   23   24 1
    44   23   54 1
    45   24   29 ar
    46   24   25 ar
    47   25   26 ar
    48   25   55 1
    49   26   27 ar
    50   26   56 1
    51   27   28 ar
    52   27   30 1
    53   28   29 ar
    54   28   57 1
    55   29   58 1
    56   30   31 1
    57   31   36 ar
    58   31   32 ar
    59   32   33 ar
    60   32   59 1
    61   33   34 ar
    62   33   60 1
    63   34   35 ar
    64   34   61 1
    65   35   36 ar
    66   35   62 1
    67   36   63 1
@<TRIPOS>MOLECULE
ZINC13474785
   64    68     0     0     0
SMALL
USER_CHARGES

@<TRIPOS>ATOM
      1 C1         -2.1246    1.3061   -5.4588 C.3       1 <0>         0.0152
      2 O1         -2.0667   -0.1208   -5.5091 O.3       1 <0>        -0.2837
      3 C2         -0.8829   -0.7027   -5.1790 C.ar      1 <0>         0.1374
      4 C3          0.1763    0.0798   -4.8158 C.ar      1 <0>        -0.1240
      5 C4          1.3954   -0.5183   -4.4752 C.ar      1 <0>        -0.1342
      6 C5          1.5241   -1.9290   -4.5090 C.ar      1 <0>         0.1852
      7 C6          0.4256   -2.7116   -4.8848 C.ar      1 <0>        -0.2356
      8 C7         -0.7646   -2.0992   -5.2096 C.ar      1 <0>         0.2285
      9 O2         -1.8337   -2.8563   -5.5691 O.3       1 <0>        -0.2724
     10 C8         -1.6504   -4.2735   -5.5810 C.3       1 <0>         0.0100
     11 N1          2.7036   -2.4771   -4.1769 N.ar      1 <0>        -0.5056
     12 C9          3.7148   -1.7180   -3.8281 C.ar      1 <0>         0.4113
     13 N2          3.6411   -0.3972   -3.7821 N.ar      1 <0>        -0.5127
     14 C10         2.5229    0.2460   -4.0910 C.ar      1 <0>         0.5628
     15 N3          2.4606    1.6231   -4.0392 N.pl3     1 <0>        -0.6689
     16 C11         1.9700    2.3048   -2.8332 C.3       1 <0>         0.1266
     17 C12         3.0387    3.2996   -2.3635 C.3       1 <0>         0.1144
     18 N4          3.4622    4.1113   -3.5131 N.am      1 <0>        -0.6269
     19 C13         3.9528    3.4297   -4.7192 C.3       1 <0>         0.0932
     20 C14         2.8894    2.4350   -5.1867 C.3       1 <0>         0.1273
     21 C15         3.4014    5.4568   -3.4625 C.2       1 <0>         0.7099
     22 O3          3.1198    6.0137   -2.4190 O.2       1 <0>        -0.5601
     23 N5          3.6527    6.1848   -4.5685 N.am      1 <0>        -0.6776
     24 C16         3.7821    7.5772   -4.4764 C.ar      1 <0>         0.1208
     25 C17         3.1691    8.2644   -3.4373 C.ar      1 <0>        -0.0966
     26 C18         3.2969    9.6363   -3.3471 C.ar      1 <0>        -0.1715
     27 C19         4.0378   10.3281   -4.2944 C.ar      1 <0>         0.1096
     28 C20         4.6503    9.6419   -5.3332 C.ar      1 <0>        -0.1237
     29 C21         4.5282    8.2692   -5.4209 C.ar      1 <0>        -0.1115
     30 O4          4.1634   11.6789   -4.2051 O.3       1 <0>        -0.2586
     31 C22         3.6606   12.2948   -3.1032 C.ar      1 <0>         0.0808
     32 C23         4.3611   12.2581   -1.9060 C.ar      1 <0>        -0.1313
     33 C24         3.8477   12.8850   -0.7872 C.ar      1 <0>        -0.1047
     34 C25         2.6369   13.5487   -0.8597 C.ar      1 <0>        -0.1164
     35 C26         1.9365   13.5864   -2.0513 C.ar      1 <0>        -0.1050
     36 C27         2.4484   12.9664   -3.1746 C.ar      1 <0>        -0.1228
     37 H1         -1.9050    1.6432   -4.4457 H         1 <0>         0.0675
     38 H2         -1.3906    1.7240   -6.1478 H         1 <0>         0.0671
     39 H3         -3.1222    1.6396   -5.7444 H         1 <0>         0.1209
     40 H4          0.0737    1.1546   -4.7918 H         1 <0>         0.1728
     41 H5          0.5096   -3.7879   -4.9153 H         1 <0>         0.1743
     42 H6         -1.3739   -4.6125   -4.5827 H         1 <0>         0.0718
     43 H7         -2.5786   -4.7573   -5.8849 H         1 <0>         0.1244
     44 H8         -0.8589   -4.5315   -6.2845 H         1 <0>         0.0717
     45 H9          4.6493   -2.1919   -3.5663 H         1 <0>         0.2445
     46 H10         1.0488    2.8396   -3.0644 H         1 <0>         0.0826
     47 H11         1.7831    1.5713   -2.0488 H         1 <0>         0.0906
     48 H12         2.6219    3.9472   -1.5922 H         1 <0>         0.1138
     49 H13         3.8948    2.7556   -1.9646 H         1 <0>         0.0788
     50 H14         4.1397    4.1631   -5.5035 H         1 <0>         0.0934
     51 H15         4.8741    2.8949   -4.4879 H         1 <0>         0.0853
     52 H16         3.3096    1.7875   -5.9563 H         1 <0>         0.0906
     53 H17         2.0352    2.9792   -5.5894 H         1 <0>         0.0833
     54 H18         3.7439    5.7451   -5.4282 H         1 <0>         0.4047
     55 H19         2.5921    7.7260   -2.7000 H         1 <0>         0.1631
     56 H20         2.8198   10.1710   -2.5391 H         1 <0>         0.1317
     57 H21         5.2266   10.1809   -6.0706 H         1 <0>         0.1385
     58 H22         5.0089    7.7346   -6.2268 H         1 <0>         0.1326
     59 H23         5.3068   11.7395   -1.8487 H         1 <0>         0.1299
     60 H24         4.3924   12.8564    0.1449 H         1 <0>         0.1313
     61 H25         2.2372   14.0382    0.0161 H         1 <0>         0.1300
     62 H26         0.9908   14.1052   -2.1052 H         1 <0>         0.1325
     63 H27         1.9036   13.0006   -4.1065 H         1 <0>         0.1321
     64 H28         2.8087   -3.4412   -4.1948 H         1 <0>         0.4514
@<TRIPOS>BOND
     1    1    2 1
     2    1   37 1
     3    1   38 1
     4    1   39 1
     5    2    3 1
     6    3    8 ar
     7    3    4 ar
     8    4    5 ar
     9    4   40 1
    10    5   14 ar
    11    5    6 ar
    12    6    7 ar
    13    6   11 ar
    14    7    8 ar
    15    7   41 1
    16    8    9 1
    17    9   10 1
    18   10   42 1
    19   10   43 1
    20   10   44 1
    21   11   12 ar
    22   11   64 1
    23   12   13 ar
    24   12   45 1
    25   13   14 ar
    26   14   15 1
    27   15   20 1
    28   15   16 1
    29   16   17 1
    30   16   46 1
    31   16   47 1
    32   17   18 1
    33   17   48 1
    34   17   49 1
    35   18   19 1
    36   18   21 am
    37   19   20 1
    38   19   50 1
    39   19   51 1
    40   20   52 1
    41   20   53 1
    42   21   22 2
    43   21   23 am
    44   23   24 1
    45   23   54 1
    46   24   29 ar
    47   24   25 ar
    48   25   26 ar
    49   25   55 1
    50   26   27 ar
    51   26   56 1
    52   27   28 ar
    53   27   30 1
    54   28   29 ar
    55   28   57 1
    56   29   58 1
    57   30   31 1
    58   31   36 ar
    59   31   32 ar
    60   32   33 ar
    61   32   59 1
    62   33   34 ar
    63   33   60 1
    64   34   35 ar
    65   34   61 1
    66   35   36 ar
    67   35   62 1
    68   36   63 1
@<TRIPOS>MOLECULE
ZINC24044436
   76    80     0     0     0
SMALL
USER_CHARGES
1-[5-tert-butyl-2-(p-tolyl)pyrazol-3-yl]-3-[4-(2-morpholinoethoxy)-1-naphthyl]urea
@<TRIPOS>ATOM
      1 C1          3.3307    9.5387   -0.3298 C.3       1 <0>        -0.1193
      2 C2          2.0898    8.6848   -0.2813 C.ar      1 <0>        -0.0892
      3 C3          0.9612    9.0673   -0.9828 C.ar      1 <0>        -0.0934
      4 C4         -0.1775    8.2868   -0.9403 C.ar      1 <0>        -0.1062
      5 C5         -0.1884    7.1174   -0.1919 C.ar      1 <0>         0.1564
      6 C6          0.9444    6.7392    0.5163 C.ar      1 <0>        -0.1500
      7 C7          2.0821    7.5207    0.4649 C.ar      1 <0>        -0.0924
      8 N1         -1.3424    6.3233   -0.1469 N.pl3     1 <0>        -0.3448
      9 C8         -1.3788    4.9645   -0.0790 C.2       1 <0>         0.3309
     10 C9         -2.6878    4.5925   -0.0483 C.2       1 <0>        -0.2629
     11 C10        -3.4651    5.7529   -0.1047 C.2       1 <0>         0.1115
     12 N2         -2.6643    6.7861   -0.1672 N.2       1 <0>        -0.2779
     13 C11        -4.9712    5.8052   -0.0954 C.3       1 <0>         0.0134
     14 C12        -5.4824    5.5257    1.3193 C.3       1 <0>        -0.1388
     15 C13        -5.4360    7.1933   -0.5406 C.3       1 <0>        -0.1390
     16 C14        -5.5242    4.7499   -1.0553 C.3       1 <0>        -0.1399
     17 N3         -0.2771    4.1104   -0.0417 N.am      1 <0>        -0.6731
     18 C15        -0.4603    2.7771    0.0314 C.2       1 <0>         0.7165
     19 O1         -1.5862    2.3190    0.0649 O.2       1 <0>        -0.5445
     20 N4          0.6045    1.9516    0.0675 N.am      1 <0>        -0.6819
     21 C16         0.4162    0.5655    0.0407 C.ar      1 <0>         0.1254
     22 C17        -0.6813    0.0024    0.6542 C.ar      1 <0>        -0.0743
     23 C18        -0.8835   -1.3742    0.6299 C.ar      1 <0>        -0.2061
     24 C19         0.0048   -2.2051    0.0082 C.ar      1 <0>         0.1395
     25 C20         1.1426   -1.6672   -0.6254 C.ar      1 <0>        -0.0565
     26 C21         1.3517   -0.2661   -0.6096 C.ar      1 <0>        -0.0251
     27 C22         2.4862    0.2686   -1.2409 C.ar      1 <0>        -0.1232
     28 C23         3.3687   -0.5639   -1.8588 C.ar      1 <0>        -0.0971
     29 C24         3.1636   -1.9422   -1.8742 C.ar      1 <0>        -0.1313
     30 C25         2.0750   -2.4951   -1.2724 C.ar      1 <0>        -0.0739
     31 O2         -0.2080   -3.5475    0.0012 O.3       1 <0>        -0.2916
     32 C26        -1.3823   -4.0216    0.6634 C.3       1 <0>         0.0605
     33 C27        -1.4510   -5.5459    0.5508 C.3       1 <0>         0.0539
     34 N5         -0.3065   -6.1409    1.2538 N.3       1 <0>        -0.5287
     35 C28        -0.1978   -7.5776    0.9617 C.3       1 <0>         0.0167
     36 C29         1.0390   -8.1436    1.6645 C.3       1 <0>         0.0615
     37 O3          0.9456   -7.8818    3.0674 O.3       1 <0>        -0.3849
     38 C30         0.8389   -6.4921    3.3879 C.3       1 <0>         0.0625
     39 C31        -0.3999   -5.9094    2.7026 C.3       1 <0>         0.0120
     40 H1          3.1476   10.4156   -0.9682 H         1 <0>         0.0687
     41 H2          4.1639    8.9515   -0.7434 H         1 <0>         0.0732
     42 H3          3.5863    9.8722    0.6868 H         1 <0>         0.0734
     43 H4          0.9703    9.9770   -1.5648 H         1 <0>         0.1335
     44 H5         -1.0587    8.5861   -1.4884 H         1 <0>         0.1355
     45 H6          0.9374    5.8324    1.1029 H         1 <0>         0.1262
     46 H7          2.9651    7.2245    1.0118 H         1 <0>         0.1343
     47 H8         -3.0598    3.5802    0.0092 H         1 <0>         0.1784
     48 H9         -6.5817    5.5639    1.3261 H         1 <0>         0.0656
     49 H10        -5.0849    6.2845    2.0094 H         1 <0>         0.0565
     50 H11        -5.1481    4.5278    1.6395 H         1 <0>         0.0614
     51 H12        -6.5353    7.2315   -0.5338 H         1 <0>         0.0604
     52 H13        -5.0684    7.3943   -1.5577 H         1 <0>         0.0568
     53 H14        -5.0385    7.9519    0.1496 H         1 <0>         0.0614
     54 H15        -6.6235    4.7882   -1.0484 H         1 <0>         0.0647
     55 H16        -5.1900    3.7520   -0.7351 H         1 <0>         0.0637
     56 H17        -5.1566    4.9509   -2.0724 H         1 <0>         0.0570
     57 H18         0.7414    4.5248   -0.0719 H         1 <0>         0.4294
     58 H19         1.6215    2.3677    0.1180 H         1 <0>         0.4280
     59 H20        -1.3959    0.6376    1.1566 H         1 <0>         0.1450
     60 H21        -1.7537   -1.7925    1.1139 H         1 <0>         0.1296
     61 H22         2.6580    1.3348   -1.2361 H         1 <0>         0.1222
     62 H23         4.2405   -0.1501   -2.3437 H         1 <0>         0.1243
     63 H24         3.8790   -2.5810   -2.3706 H         1 <0>         0.1250
     64 H25         1.9286   -3.5650   -1.2926 H         1 <0>         0.1353
     65 H26        -1.3465   -3.7335    1.7244 H         1 <0>         0.0659
     66 H27        -2.2726   -3.5787    0.1931 H         1 <0>         0.0716
     67 H28        -2.3868   -5.9052    1.0039 H         1 <0>         0.0605
     68 H29        -1.4216   -5.8370   -0.5096 H         1 <0>         0.0912
     69 H30        -1.0977   -8.0949    1.3258 H         1 <0>         0.0437
     70 H31        -0.1044   -7.7249   -0.1244 H         1 <0>         0.0891
     71 H32         1.0925   -9.2291    1.4949 H         1 <0>         0.1001
     72 H33         1.9424   -7.6643    1.2595 H         1 <0>         0.0618
     73 H34         0.7475   -6.3731    4.4776 H         1 <0>         0.0994
     74 H35         1.7375   -5.9645    3.0355 H         1 <0>         0.0616
     75 H36        -0.4553   -4.8284    2.8983 H         1 <0>         0.0869
     76 H37        -1.3031   -6.3997    3.0948 H         1 <0>         0.0443
@<TRIPOS>BOND
     1    1    2 1
     2    1   40 1
     3    1   41 1
     4    1   42 1
     5    2    7 ar
     6    2    3 ar
     7    3    4 ar
     8    3   43 1
     9    4    5 ar
    10    4   44 1
    11    5    6 ar
    12    5    8 1
    13    6    7 ar
    14    6   45 1
    15    7   46 1
    16    8   12 1
    17    8    9 1
    18    9   10 2
    19    9   17 1
    20   10   11 1
    21   10   47 1
    22   11   12 2
    23   11   13 1
    24   13   14 1
    25   13   15 1
    26   13   16 1
    27   14   48 1
    28   14   49 1
    29   14   50 1
    30   15   51 1
    31   15   52 1
    32   15   53 1
    33   16   54 1
    34   16   55 1
    35   16   56 1
    36   17   18 am
    37   17   57 1
    38   18   19 2
    39   18   20 am
    40   20   21 1
    41   20   58 1
    42   21   26 ar
    43   21   22 ar
    44   22   23 ar
    45   22   59 1
    46   23   24 ar
    47   23   60 1
    48   24   25 ar
    49   24   31 1
    50   25   30 ar
    51   25   26 ar
    52   26   27 ar
    53   27   28 ar
    54   27   61 1
    55   28   29 ar
    56   28   62 1
    57   29   30 ar
    58   29   63 1
    59   30   64 1
    60   31   32 1
    61   32   33 1
    62   32   65 1
    63   32   66 1
    64   33   34 1
    65   33   67 1
    66   33   68 1
    67   34   39 1
    68   34   35 1
    69   35   36 1
    70   35   69 1
    71   35   70 1
    72   36   37 1
    73   36   71 1
    74   36   72 1
    75   37   38 1
    76   38   39 1
    77   38   73 1
    78   38   74 1
    79   39   75 1
    80   39   76 1
@<TRIPOS>MOLECULE
ZINC00008741
   43    45     0     0     0
SMALL
USER_CHARGES

@<TRIPOS>ATOM
      1 C1          1.2321    6.1407    0.0215 C.3       1 <0>         0.0224
      2 O1         -0.0318    5.4740    0.0301 O.3       1 <0>        -0.3016
      3 C2         -0.0127    4.1149    0.0232 C.ar      1 <0>         0.1132
      4 C3          1.1827    3.4576    0.0087 C.ar      1 <0>        -0.1385
      5 C4          1.2066    2.0527    0.0016 C.ar      1 <0>         0.0317
      6 C5         -0.0161    1.3350    0.0094 C.ar      1 <0>         0.1565
      7 C6         -1.2309    2.0396    0.0189 C.ar      1 <0>        -0.1859
      8 C7         -1.2227    3.4044    0.0315 C.ar      1 <0>         0.1580
      9 O2         -2.3999    4.0829    0.0463 O.3       1 <0>        -0.2984
     10 C8         -3.5978    3.3038    0.0541 C.3       1 <0>         0.0213
     11 N1          0.0021   -0.0041    0.0020 N.ar      1 <0>        -0.5092
     12 C9          1.1576   -0.6415   -0.0124 C.ar      1 <0>         0.3763
     13 C10         2.3666    0.0737   -0.0200 C.ar      1 <0>         0.0339
     14 N2          2.3671    1.3855   -0.0134 N.ar      1 <0>        -0.3913
     15 N3          1.1784   -2.0293   -0.0196 N.pl3     1 <0>        -0.7027
     16 C11         2.4579   -2.7426   -0.0356 C.3       1 <0>         0.1474
     17 C12         2.9507   -2.8739   -1.4781 C.3       1 <0>        -0.1361
     18 C13         1.9218   -3.6535   -2.2995 C.3       1 <0>        -0.1509
     19 C14         1.7366   -5.0468   -1.6951 C.3       1 <0>         0.1040
     20 C15         1.2439   -4.9155   -0.2525 C.3       1 <0>        -0.1160
     21 C16         2.2727   -4.1359    0.5689 C.3       1 <0>        -0.1234
     22 O3          0.7757   -5.7749   -2.4623 O.3       1 <0>        -0.5681
     23 H1          1.0741    7.2192    0.0283 H         1 <0>         0.1049
     24 H2          1.8015    5.8513    0.9048 H         1 <0>         0.0587
     25 H3          1.7848    5.8601   -0.8751 H         1 <0>         0.0586
     26 H4          2.1076    4.0153    0.0032 H         1 <0>         0.1508
     27 H5         -2.1683    1.5033    0.0205 H         1 <0>         0.1513
     28 H6         -4.4626    3.9672    0.0659 H         1 <0>         0.1061
     29 H7         -3.6309    2.6794   -0.8387 H         1 <0>         0.0604
     30 H8         -3.6135    2.6706    0.9412 H         1 <0>         0.0604
     31 H9          3.3046   -0.4615   -0.0318 H         1 <0>         0.1690
     32 H10         0.3458   -2.5269   -0.0140 H         1 <0>         0.4079
     33 H11         3.1909   -2.1872    0.5496 H         1 <0>         0.0899
     34 H12         3.0826   -1.8813   -1.9087 H         1 <0>         0.0712
     35 H13         3.9026   -3.4046   -1.4900 H         1 <0>         0.0796
     36 H14         2.2729   -3.7470   -3.3272 H         1 <0>         0.0663
     37 H15         0.9699   -3.1228   -2.2876 H         1 <0>         0.0730
     38 H16         2.6886   -5.5775   -1.7070 H         1 <0>         0.0570
     39 H17         1.1119   -5.9081    0.1781 H         1 <0>         0.0764
     40 H18         0.2919   -4.3848   -0.2407 H         1 <0>         0.0693
     41 H19         3.2247   -4.6666    0.5570 H         1 <0>         0.0863
     42 H20         1.9216   -4.0424    1.5965 H         1 <0>         0.0805
     43 H21         1.0230   -5.8965   -3.3891 H         1 <0>         0.3796
@<TRIPOS>BOND
     1    1    2 1
     2    1   23 1
     3    1   24 1
     4    1   25 1
     5    2    3 1
     6    3    8 ar
     7    3    4 ar
     8    4    5 ar
     9    4   26 1
    10    5   14 ar
    11    5    6 ar
    12    6    7 ar
    13    6   11 ar
    14    7    8 ar
    15    7   27 1
    16    8    9 1
    17    9   10 1
    18   10   28 1
    19   10   29 1
    20   10   30 1
    21   11   12 ar
    22   12   13 ar
    23   12   15 1
    24   13   14 ar
    25   13   31 1
    26   15   16 1
    27   15   32 1
    28   16   21 1
    29   16   17 1
    30   16   33 1
    31   17   18 1
    32   17   34 1
    33   17   35 1
    34   18   19 1
    35   18   36 1
    36   18   37 1
    37   19   20 1
    38   19   22 1
    39   19   38 1
    40   20   21 1
    41   20   39 1
    42   20   40 1
    43   21   41 1
    44   21   42 1
    45   22   43 1
@<TRIPOS>MOLECULE
ZINC13812765
   54    58     0     0     0
SMALL
USER_CHARGES
6-(2,6-dichlorophenyl)-8-methyl-2-[(4-morpholinophenyl)amino]pyrido[6,5-d]pyrimidin-7-one
@<TRIPOS>ATOM
      1 C1          0.0687    1.0901    0.1116 C.3       1 <0>         0.0701
      2 N1         -0.4256    1.5832    1.3995 N.am      1 <0>        -0.5063
      3 C2         -0.5381    2.9341    1.6116 C.ar      1 <0>         0.4672
      4 C3         -1.0181    3.4257    2.8449 C.ar      1 <0>        -0.2783
      5 C4         -1.3766    2.5289    3.8770 C.2       1 <0>         0.0316
      6 C5         -1.2558    1.1827    3.6582 C.2       1 <0>        -0.1650
      7 C6         -0.7600    0.7060    2.3653 C.2       1 <0>         0.5578
      8 O1         -0.6498   -0.4900    2.1622 O.2       1 <0>        -0.5029
      9 C7         -1.6228    0.2170    4.7202 C.ar      1 <0>        -0.0099
     10 C8         -0.6646   -0.2107    5.6401 C.ar      1 <0>        -0.0065
     11 C9         -1.0148   -1.1067    6.6311 C.ar      1 <0>        -0.1065
     12 C10        -2.3092   -1.5888    6.7060 C.ar      1 <0>        -0.0874
     13 C11        -3.2624   -1.1733    5.7937 C.ar      1 <0>        -0.1064
     14 C12        -2.9268   -0.2732    4.8013 C.ar      1 <0>        -0.0065
     15 Cl1        -4.1243    0.2466    3.6571 Cl        1 <0>        -0.0502
     16 Cl2         0.9621    0.3876    5.5434 Cl        1 <0>        -0.0503
     17 C13        -1.1231    4.8139    3.0190 C.ar      1 <0>         0.2640
     18 N2         -0.7738    5.6040    2.0212 N.ar      1 <0>        -0.5685
     19 C14        -0.3309    5.1056    0.8720 C.ar      1 <0>         0.6086
     20 N3         -0.2147    3.8034    0.6608 N.ar      1 <0>        -0.5957
     21 N4          0.0216    5.9777   -0.1395 N.pl3     1 <0>        -0.6241
     22 C15        -0.1990    7.3525    0.0126 C.ar      1 <0>         0.1313
     23 C16        -1.3055    7.8041    0.7199 C.ar      1 <0>        -0.0798
     24 C17        -1.5204    9.1593    0.8740 C.ar      1 <0>        -0.1488
     25 C18        -0.6355   10.0708    0.3129 C.ar      1 <0>         0.0971
     26 C19         0.4681    9.6192   -0.3990 C.ar      1 <0>        -0.1172
     27 C20         0.6855    8.2640   -0.5489 C.ar      1 <0>        -0.1155
     28 N5         -0.8562   11.4443    0.4644 N.pl3     1 <0>        -0.4872
     29 C21         0.3065   12.0999    1.0805 C.3       1 <0>         0.0198
     30 C22         0.0470   13.6060    1.1727 C.3       1 <0>         0.0611
     31 O2         -1.1567   13.8329    1.9108 O.3       1 <0>        -0.3827
     32 C23        -2.3093   13.2091    1.3385 C.3       1 <0>         0.0615
     33 C24        -2.0737   11.6990    1.2481 C.3       1 <0>         0.0123
     34 H1          0.0953    0.0006    0.1257 H         1 <0>         0.1006
     35 H2          1.0730    1.4758   -0.0638 H         1 <0>         0.0800
     36 H3         -0.5943    1.4272   -0.6852 H         1 <0>         0.0803
     37 H4         -1.7407    2.8999    4.8237 H         1 <0>         0.1502
     38 H5         -0.2753   -1.4351    7.3464 H         1 <0>         0.1437
     39 H6         -2.5767   -2.2930    7.4799 H         1 <0>         0.1454
     40 H7         -4.2711   -1.5537    5.8574 H         1 <0>         0.1437
     41 H8         -1.4818    5.2273    3.9501 H         1 <0>         0.1873
     42 H9          0.4219    5.6381   -0.9552 H         1 <0>         0.4261
     43 H10        -1.9958    7.0952    1.1528 H         1 <0>         0.1359
     44 H11        -2.3786    9.5104    1.4276 H         1 <0>         0.1305
     45 H12         1.1560   10.3280   -0.8357 H         1 <0>         0.1300
     46 H13         1.5438    7.9128   -1.1025 H         1 <0>         0.1287
     47 H14         0.4646   11.6960    2.0805 H         1 <0>         0.0544
     48 H15         1.1916   11.9198    0.4704 H         1 <0>         0.0931
     49 H16        -0.0578   14.0192    0.1695 H         1 <0>         0.0625
     50 H17         0.8818   14.0894    1.6801 H         1 <0>         0.1034
     51 H18        -2.4827   13.6108    0.3402 H         1 <0>         0.0622
     52 H19        -3.1791   13.4048    1.9657 H         1 <0>         0.1035
     53 H20        -2.9261   11.2262    0.7602 H         1 <0>         0.0942
     54 H21        -1.9540   11.2880    2.2505 H         1 <0>         0.0573
@<TRIPOS>BOND
     1    1    2 1
     2    1   34 1
     3    1   35 1
     4    1   36 1
     5    2    7 am
     6    2    3 1
     7    3   20 ar
     8    3    4 ar
     9    4    5 1
    10    4   17 ar
    11    5    6 2
    12    5   37 1
    13    6    7 1
    14    6    9 1
    15    7    8 2
    16    9   14 ar
    17    9   10 ar
    18   10   11 ar
    19   10   16 1
    20   11   12 ar
    21   11   38 1
    22   12   13 ar
    23   12   39 1
    24   13   14 ar
    25   13   40 1
    26   14   15 1
    27   17   18 ar
    28   17   41 1
    29   18   19 ar
    30   19   20 ar
    31   19   21 1
    32   21   22 1
    33   21   42 1
    34   22   27 ar
    35   22   23 ar
    36   23   24 ar
    37   23   43 1
    38   24   25 ar
    39   24   44 1
    40   25   26 ar
    41   25   28 1
    42   26   27 ar
    43   26   45 1
    44   27   46 1
    45   28   33 1
    46   28   29 1
    47   29   30 1
    48   29   47 1
    49   29   48 1
    50   30   31 1
    51   30   49 1
    52   30   50 1
    53   31   32 1
    54   32   33 1
    55   32   51 1
    56   32   52 1
    57   33   53 1
    58   33   54 1
@<TRIPOS>MOLECULE
ZINC13588784
   31    34     0     0     0
SMALL
USER_CHARGES

@<TRIPOS>ATOM
      1 C1         -0.0164    1.3604    0.0095 C.ar      1 <0>        -0.1493
      2 C2          1.1696    2.0826    0.0021 C.ar      1 <0>        -0.0511
      3 C3          2.3856    1.4353   -0.0134 C.ar      1 <0>        -0.1666
      4 C4          2.4314    0.0435   -0.0213 C.ar      1 <0>         0.1925
      5 C5          1.2279   -0.6865   -0.0132 C.ar      1 <0>        -0.1358
      6 C6          0.0021   -0.0041    0.0020 C.ar      1 <0>        -0.0437
      7 C7          1.2577   -2.1030   -0.0206 C.2       1 <0>         0.0471
      8 C8          2.4773   -2.7488   -0.0357 C.2       1 <0>        -0.1447
      9 C9          3.7098   -1.9532   -0.0437 C.2       1 <0>         0.5531
     10 O1          4.7927   -2.5106   -0.0574 O.2       1 <0>        -0.5388
     11 N1          3.6469   -0.6085   -0.0364 N.am      1 <0>        -0.6211
     12 H1          4.4673   -0.0911   -0.0418 H         1 <0>         0.4222
     13 C10         2.5409   -4.2227   -0.0431 C.2       1 <0>         0.3409
     14 N2          3.6941   -4.9619   -0.0525 N.pl3     1 <0>        -0.5811
     15 H2          4.6000   -4.6153   -0.0556 H         1 <0>         0.4339
     16 C11         3.3254   -6.2936   -0.0562 C.ar      1 <0>         0.0503
     17 C12         4.0316   -7.4882   -0.0656 C.ar      1 <0>        -0.1116
     18 C13         3.3485   -8.6863   -0.0675 C.ar      1 <0>        -0.0996
     19 C14         1.9609   -8.7050   -0.0606 C.ar      1 <0>        -0.1271
     20 C15         1.2483   -7.5397   -0.0518 C.ar      1 <0>        -0.0640
     21 C16         1.9193   -6.3123   -0.0488 C.ar      1 <0>         0.0499
     22 N3          1.5013   -5.0233   -0.0361 N.2       1 <0>        -0.4850
     23 H3         -0.9614    1.8829    0.0259 H         1 <0>         0.1352
     24 H4          1.1385    3.1622    0.0081 H         1 <0>         0.1366
     25 H5          3.3021    2.0065   -0.0198 H         1 <0>         0.1374
     26 H6         -0.9252   -0.5577    0.0082 H         1 <0>         0.1419
     27 H7          0.3384   -2.6698   -0.0141 H         1 <0>         0.1618
     28 H8          5.1116   -7.4798   -0.0717 H         1 <0>         0.1241
     29 H9          3.8972   -9.6165   -0.0747 H         1 <0>         0.1315
     30 H10         1.4391   -9.6506   -0.0625 H         1 <0>         0.1309
     31 H11         0.1686   -7.5660   -0.0472 H         1 <0>         0.1305
@<TRIPOS>BOND
     1    1    6 ar
     2    1    2 ar
     3    1   23 1
     4    2    3 ar
     5    2   24 1
     6    3    4 ar
     7    3   25 1
     8    4   11 1
     9    4    5 ar
    10    5    6 ar
    11    5    7 1
    12    6   26 1
    13    7    8 2
    14    7   27 1
    15    8    9 1
    16    8   13 1
    17    9   10 2
    18    9   11 am
    19   11   12 1
    20   13   22 2
    21   13   14 1
    22   14   15 1
    23   14   16 1
    24   16   21 ar
    25   16   17 ar
    26   17   18 ar
    27   17   28 1
    28   18   19 ar
    29   18   29 1
    30   19   20 ar
    31   19   30 1
    32   20   21 ar
    33   20   31 1
    34   21   22 1
@<TRIPOS>MOLECULE
ZINC13493055
   37    40     0     0     0
SMALL
USER_CHARGES
5-(2,6-dichlorophenyl)-2-(2,4-difluorophenyl)sulfanyl-pyrimido[6,1-f]pyridazin-6-one
@<TRIPOS>ATOM
      1 C1          0.7819    4.3410    0.0524 C.ar      1 <0>        -0.0865
      2 C2         -0.4275    5.0027   -0.0644 C.ar      1 <0>        -0.1052
      3 C3         -1.6103    4.2903   -0.0692 C.ar      1 <0>        -0.0078
      4 C4         -1.5836    2.8981    0.0381 C.ar      1 <0>        -0.0051
      5 C5         -0.3594    2.2372    0.1611 C.ar      1 <0>        -0.0079
      6 C6          0.8156    2.9624    0.1649 C.ar      1 <0>        -0.1052
      7 Cl1        -0.3147    0.5075    0.3018 Cl        1 <0>        -0.0496
      8 C7         -2.8461    2.1276    0.0266 C.2       1 <0>        -0.1962
      9 C8         -3.3978    1.6608   -1.1750 C.2       1 <0>         0.1634
     10 C9         -2.7630    1.9018   -2.4066 C.2       1 <0>        -0.0494
     11 C10        -3.3310    1.4261   -3.5469 C.2       1 <0>        -0.1079
     12 C11        -4.5373    0.6985   -3.4809 C.2       1 <0>         0.1181
     13 N1         -5.1260    0.4712   -2.3297 N.2       1 <0>        -0.2574
     14 N2         -4.5673    0.9472   -1.1371 N.pl3     1 <0>        -0.3270
     15 C12        -5.1778    0.7109    0.0511 C.2       1 <0>         0.4228
     16 N3         -4.6823    1.1412    1.1775 N.2       1 <0>        -0.5427
     17 C13        -3.5381    1.8434    1.2263 C.2       1 <0>         0.5151
     18 O1         -3.0989    2.2338    2.2995 O.2       1 <0>        -0.4890
     19 S1         -5.2649    0.0865   -4.9643 S.3       1 <0>         0.1498
     20 C14        -6.6196   -0.8905   -4.4031 C.ar      1 <0>        -0.2138
     21 C15        -7.9169   -0.4067   -4.5085 C.ar      1 <0>         0.0058
     22 C16        -8.9776   -1.1741   -4.0680 C.ar      1 <0>        -0.1725
     23 C17        -8.7491   -2.4257   -3.5211 C.ar      1 <0>         0.1750
     24 C18        -7.4569   -2.9119   -3.4142 C.ar      1 <0>        -0.2011
     25 C19        -6.3919   -2.1502   -3.8590 C.ar      1 <0>         0.1941
     26 F1         -5.1316   -2.6265   -3.7599 F         1 <0>        -0.1130
     27 F2         -9.7887   -3.1735   -3.0908 F         1 <0>        -0.1191
     28 Cl2        -3.1267    5.1227   -0.2165 Cl        1 <0>        -0.0501
     29 H1          1.7040    4.9031    0.0556 H         1 <0>         0.1468
     30 H2         -0.4464    6.0789   -0.1525 H         1 <0>         0.1450
     31 H3          1.7632    2.4523    0.2554 H         1 <0>         0.1450
     32 H4         -1.8394    2.4601   -2.4465 H         1 <0>         0.1694
     33 H5         -2.8589    1.6049   -4.5017 H         1 <0>         0.1688
     34 H6         -6.1009    0.1504    0.0642 H         1 <0>         0.2171
     35 H7         -8.0965    0.5691   -4.9351 H         1 <0>         0.1572
     36 H8         -9.9865   -0.7976   -4.1504 H         1 <0>         0.1548
     37 H9         -7.2812   -3.8884   -2.9877 H         1 <0>         0.1586
@<TRIPOS>BOND
     1    1    6 ar
     2    1    2 ar
     3    1   29 1
     4    2    3 ar
     5    2   30 1
     6    3    4 ar
     7    3   28 1
     8    4    5 ar
     9    4    8 1
    10    5    6 ar
    11    5    7 1
    12    6   31 1
    13    8   17 1
    14    8    9 2
    15    9   14 1
    16    9   10 1
    17   10   11 2
    18   10   32 1
    19   11   12 1
    20   11   33 1
    21   12   13 2
    22   12   19 1
    23   13   14 1
    24   14   15 1
    25   15   16 2
    26   15   34 1
    27   16   17 1
    28   17   18 2
    29   19   20 1
    30   20   25 ar
    31   20   21 ar
    32   21   22 ar
    33   21   35 1
    34   22   23 ar
    35   22   36 1
    36   23   24 ar
    37   23   27 1
    38   24   25 ar
    39   24   37 1
    40   25   26 1
@<TRIPOS>MOLECULE
ZINC13677843
   40    43     0     0     0
SMALL
USER_CHARGES

@<TRIPOS>ATOM
      1 C1         -0.4972    1.2152   -0.2273 C.3       1 <0>         0.0236
      2 O1          0.2492    0.0508    0.1321 O.3       1 <0>        -0.3016
      3 C2          1.0792   -0.4664   -0.8127 C.ar      1 <0>         0.1188
      4 C3          1.1765    0.1382   -2.0569 C.ar      1 <0>        -0.1587
      5 C4          2.0179   -0.3853   -3.0165 C.ar      1 <0>        -0.0646
      6 C5          2.7744   -1.5219   -2.7446 C.ar      1 <0>        -0.0211
      7 C6          2.6764   -2.1301   -1.4915 C.ar      1 <0>        -0.1369
      8 C7          1.8363   -1.6002   -0.5298 C.ar      1 <0>         0.0987
      9 O2          1.7453   -2.1901    0.6922 O.3       1 <0>        -0.3036
     10 C8          2.5502   -3.3498    0.9142 C.3       1 <0>         0.0239
     11 C9          3.5874   -1.8732   -3.9364 C.2       1 <0>         0.1308
     12 C10         3.3328   -0.9438   -4.9607 C.2       1 <0>        -0.3055
     13 C11         4.0858   -1.2858   -6.0373 C.2       1 <0>         0.3755
     14 N1          4.7955   -2.3970   -5.7063 N.pl3     1 <0>        -0.4880
     15 H1          5.4199   -2.8666   -6.2811 H         1 <0>         0.4434
     16 N2          4.4675   -2.7446   -4.3901 N.2       1 <0>        -0.2659
     17 N3          4.1239   -0.6194   -7.2594 N.pl3     1 <0>        -0.6554
     18 C12         4.8518   -1.1551   -8.3248 C.ar      1 <0>         0.1980
     19 C13         4.9430   -2.5328   -8.4827 C.ar      1 <0>        -0.1958
     20 C14         5.6626   -3.0602   -9.5366 C.ar      1 <0>        -0.0481
     21 C15         6.2933   -2.2197  -10.4353 C.ar      1 <0>        -0.1801
     22 C16         6.2052   -0.8460  -10.2819 C.ar      1 <0>         0.1402
     23 C17         5.4809   -0.3118   -9.2312 C.ar      1 <0>        -0.1933
     24 F1          6.8226   -0.0273  -11.1616 F         1 <0>        -0.1319
     25 C18         2.3257    0.0459   -4.4300 C.3       1 <0>         0.0158
     26 H2          0.1893    2.0210   -0.4870 H         1 <0>         0.0572
     27 H3         -1.1328    0.9893   -1.0835 H         1 <0>         0.0572
     28 H4         -1.1174    1.5233    0.6144 H         1 <0>         0.1025
     29 H5          0.5923    1.0200   -2.2751 H         1 <0>         0.1425
     30 H6          3.2595   -3.0123   -1.2723 H         1 <0>         0.1407
     31 H7          2.2797   -4.1229    0.1950 H         1 <0>         0.0564
     32 H8          3.6019   -3.0912    0.7915 H         1 <0>         0.0565
     33 H9          2.3827   -3.7200    1.9257 H         1 <0>         0.1025
     34 H10         3.6450    0.2167   -7.3711 H         1 <0>         0.4302
     35 H11         4.4515   -3.1906   -7.7812 H         1 <0>         0.1322
     36 H12         5.7332   -4.1310   -9.6589 H         1 <0>         0.1413
     37 H13         6.8560   -2.6351  -11.2582 H         1 <0>         0.1408
     38 H14         5.4082    0.7593   -9.1138 H         1 <0>         0.1425
     39 H15         1.4198    0.0201   -5.0355 H         1 <0>         0.0899
     40 H16         2.7500    1.0499   -4.4317 H         1 <0>         0.0894
@<TRIPOS>BOND
     1    1    2 1
     2    1   26 1
     3    1   27 1
     4    1   28 1
     5    2    3 1
     6    3    8 ar
     7    3    4 ar
     8    4    5 ar
     9    4   29 1
    10    5   25 1
    11    5    6 ar
    12    6    7 ar
    13    6   11 1
    14    7    8 ar
    15    7   30 1
    16    8    9 1
    17    9   10 1
    18   10   31 1
    19   10   32 1
    20   10   33 1
    21   11   16 2
    22   11   12 1
    23   12   13 2
    24   12   25 1
    25   13   14 1
    26   13   17 1
    27   14   15 1
    28   14   16 1
    29   17   18 1
    30   17   34 1
    31   18   23 ar
    32   18   19 ar
    33   19   20 ar
    34   19   35 1
    35   20   21 ar
    36   20   36 1
    37   21   22 ar
    38   21   37 1
    39   22   23 ar
    40   22   24 1
    41   23   38 1
    42   25   39 1
    43   25   40 1
@<TRIPOS>MOLECULE
ZINC03966243
   84    88     0     0     0
SMALL
USER_CHARGES
N-(4-isopropoxyphenyl)-4-[6-methoxy-7-[3-(1-piperidyl)propoxy]quinazolin-4-yl]-piperazine-1-carboxamide
@<TRIPOS>ATOM
      1 C1          6.7701    4.5264   -1.2575 C.3       1 <0>        -0.1499
      2 C2          6.4967    3.0958   -0.7889 C.3       1 <0>         0.0769
      3 C3          7.4744    2.7298    0.3295 C.3       1 <0>        -0.1825
      4 O1          5.1571    3.0025   -0.3001 O.3       1 <0>        -0.3102
      5 C4          4.5717    1.7757   -0.3338 C.ar      1 <0>         0.1230
      6 C5          5.3083    0.6665   -0.7228 C.ar      1 <0>        -0.1923
      7 C6          4.7144   -0.5798   -0.7568 C.ar      1 <0>        -0.0743
      8 C7          3.3799   -0.7224   -0.4016 C.ar      1 <0>         0.1159
      9 C8          2.6432    0.3881   -0.0124 C.ar      1 <0>        -0.1027
     10 C9          3.2383    1.6338    0.0213 C.ar      1 <0>        -0.1355
     11 N1          2.7765   -1.9869   -0.4364 N.am      1 <0>        -0.6831
     12 C10         3.4836   -3.0808   -0.0903 C.2       1 <0>         0.7095
     13 O2          4.6669   -2.9820    0.1717 O.2       1 <0>        -0.5659
     14 N2          2.8793   -4.2842   -0.0346 N.am      1 <0>        -0.6302
     15 C11         1.4784   -4.4454   -0.4527 C.3       1 <0>         0.1163
     16 C12         1.4049   -5.6100   -1.4530 C.3       1 <0>         0.0464
     17 N3          2.0146   -6.8039   -0.8522 N.pl3     1 <0>        -0.4805
     18 C13         3.4424   -6.5929   -0.5788 C.3       1 <0>         0.0482
     19 C14         3.6012   -5.4698    0.4515 C.3       1 <0>         0.1328
     20 C15         1.8226   -7.9122   -1.6510 C.ar      1 <0>         0.3962
     21 C16         0.6195   -8.6545   -1.5866 C.ar      1 <0>        -0.1386
     22 C17        -0.4268   -8.2967   -0.7272 C.ar      1 <0>        -0.1287
     23 C18        -1.5707   -9.0425   -0.7073 C.ar      1 <0>         0.1093
     24 C19        -1.7117  -10.1606   -1.5416 C.ar      1 <0>         0.1588
     25 C20        -0.6998  -10.5302   -2.3993 C.ar      1 <0>        -0.1794
     26 C21         0.4818   -9.7794   -2.4366 C.ar      1 <0>         0.1794
     27 N4          1.4973  -10.0975   -3.2547 N.ar      1 <0>        -0.5194
     28 C22         2.5920   -9.3751   -3.2679 C.ar      1 <0>         0.3256
     29 N5          2.7631   -8.3137   -2.4959 N.ar      1 <0>        -0.5577
     30 O3         -2.8592  -10.8868   -1.5038 O.3       1 <0>        -0.2941
     31 C23        -2.9427  -12.0141   -2.3780 C.3       1 <0>         0.0564
     32 C24        -4.2971  -12.7020   -2.1952 C.3       1 <0>        -0.1506
     33 C25        -4.3865  -13.9090   -3.1312 C.3       1 <0>        -0.0020
     34 C26        -5.8040  -15.1525   -1.6130 C.3       1 <0>        -0.0079
     35 C27        -7.2186  -15.7022   -1.4158 C.3       1 <0>        -0.1471
     36 C28        -7.5007  -16.7656   -2.4807 C.3       1 <0>        -0.1398
     37 C29        -7.3247  -16.1452   -3.8695 C.3       1 <0>        -0.1477
     38 C30        -5.9070  -15.5827   -3.9956 C.3       1 <0>        -0.0015
     39 O4         -2.5839   -8.6973    0.1313 O.3       1 <0>        -0.3038
     40 C31        -2.3802   -7.5484    0.9564 C.3       1 <0>         0.0216
     41 H1          6.6397    5.2137   -0.4216 H         1 <0>         0.0680
     42 H2          7.7918    4.5976   -1.6304 H         1 <0>         0.0781
     43 H3          6.0735    4.7871   -2.0543 H         1 <0>         0.0652
     44 H4          6.6271    2.4085   -1.6248 H         1 <0>         0.0735
     45 H5          7.2796    1.7107    0.6634 H         1 <0>         0.0633
     46 H6          8.4962    2.8010   -0.0433 H         1 <0>         0.0733
     47 H7          7.3440    3.4171    1.1654 H         1 <0>         0.0686
     48 H8          6.3476    0.7769   -0.9947 H         1 <0>         0.1332
     49 H9          5.2879   -1.4432   -1.0601 H         1 <0>         0.1408
     50 H10         1.6050    0.2778    0.2637 H         1 <0>         0.1308
     51 H11         2.6653    2.4978    0.3240 H         1 <0>         0.1354
     52 H12         1.8499   -2.0748   -0.7096 H         1 <0>         0.4030
     53 H13         0.8598   -4.6663    0.4171 H         1 <0>         0.0856
     54 H14         1.1308   -3.5290   -0.9296 H         1 <0>         0.0889
     55 H15         1.9431   -5.3458   -2.3633 H         1 <0>         0.0616
     56 H16         0.3620   -5.8162   -1.6938 H         1 <0>         0.0941
     57 H17         3.9521   -6.3150   -1.5013 H         1 <0>         0.0689
     58 H18         3.8770   -7.5117   -0.1852 H         1 <0>         0.0954
     59 H19         4.6578   -5.2309    0.5728 H         1 <0>         0.1082
     60 H20         3.1850   -5.7851    1.4083 H         1 <0>         0.0782
     61 H21        -0.3280   -7.4373   -0.0806 H         1 <0>         0.1573
     62 H22        -0.8167  -11.3925   -3.0389 H         1 <0>         0.1519
     63 H23         3.3895   -9.6593   -3.9384 H         1 <0>         0.1992
     64 H24        -2.8407  -11.6812   -3.4109 H         1 <0>         0.0778
     65 H25        -2.1435  -12.7168   -2.1421 H         1 <0>         0.0777
     66 H26        -4.3991  -13.0349   -1.1623 H         1 <0>         0.1002
     67 H27        -5.0963  -11.9993   -2.4311 H         1 <0>         0.1003
     68 H28        -4.2845  -13.5761   -4.1641 H         1 <0>         0.1340
     69 H29        -3.5873  -14.6117   -2.8953 H         1 <0>         0.1355
     70 H30        -5.0816  -15.9614   -1.5040 H         1 <0>         0.1310
     71 H31        -5.6051  -14.3849   -0.8651 H         1 <0>         0.1299
     72 H32        -7.9407  -14.8913   -1.5110 H         1 <0>         0.0877
     73 H33        -7.3012  -16.1486   -0.4248 H         1 <0>         0.1122
     74 H34        -8.5225  -17.1289   -2.3709 H         1 <0>         0.0942
     75 H35        -6.8042  -17.5956   -2.3615 H         1 <0>         0.0818
     76 H36        -8.0484  -15.3413   -4.0033 H         1 <0>         0.0877
     77 H37        -7.4825  -16.9083   -4.6316 H         1 <0>         0.1125
     78 H38        -5.7830  -15.1275   -4.9782 H         1 <0>         0.1289
     79 H39        -5.1842  -16.3896   -3.8752 H         1 <0>         0.1307
     80 H40        -3.2625   -7.3845    1.5752 H         1 <0>         0.1075
     81 H41        -1.5126   -7.7098    1.5962 H         1 <0>         0.0622
     82 H42        -2.2103   -6.6748    0.3272 H         1 <0>         0.0599
     83 N6         -5.7075  -14.5479   -2.9586 N.4       1 <0>        -0.3926
     84 H43        -6.4386  -13.8336   -3.0559 H         1 <0>         0.4277
@<TRIPOS>BOND
     1    1    2 1
     2    1   41 1
     3    1   42 1
     4    1   43 1
     5    2    3 1
     6    2    4 1
     7    2   44 1
     8    3   45 1
     9    3   46 1
    10    3   47 1
    11    4    5 1
    12    5   10 ar
    13    5    6 ar
    14    6    7 ar
    15    6   48 1
    16    7    8 ar
    17    7   49 1
    18    8    9 ar
    19    8   11 1
    20    9   10 ar
    21    9   50 1
    22   10   51 1
    23   11   12 am
    24   11   52 1
    25   12   13 2
    26   12   14 am
    27   14   19 1
    28   14   15 1
    29   15   16 1
    30   15   53 1
    31   15   54 1
    32   16   17 1
    33   16   55 1
    34   16   56 1
    35   17   18 1
    36   17   20 1
    37   18   19 1
    38   18   57 1
    39   18   58 1
    40   19   59 1
    41   19   60 1
    42   20   29 ar
    43   20   21 ar
    44   21   26 ar
    45   21   22 ar
    46   22   23 ar
    47   22   61 1
    48   23   24 ar
    49   23   39 1
    50   24   25 ar
    51   24   30 1
    52   25   26 ar
    53   25   62 1
    54   26   27 ar
    55   27   28 ar
    56   28   29 ar
    57   28   63 1
    58   30   31 1
    59   31   32 1
    60   31   64 1
    61   31   65 1
    62   32   33 1
    63   32   66 1
    64   32   67 1
    65   33   68 1
    66   33   69 1
    67   33   83 1
    68   34   35 1
    69   34   70 1
    70   34   71 1
    71   34   83 1
    72   35   36 1
    73   35   72 1
    74   35   73 1
    75   36   37 1
    76   36   74 1
    77   36   75 1
    78   37   38 1
    79   37   76 1
    80   37   77 1
    81   38   78 1
    82   38   79 1
    83   38   83 1
    84   39   40 1
    85   40   80 1
    86   40   81 1
    87   40   82 1
    88   83   84 1
@<TRIPOS>MOLECULE
ZINC01493878
   48    50     0     0     0
SMALL
USER_CHARGES

@<TRIPOS>ATOM
      1 C1         -1.0955   -5.0083   -6.9234 C.3       1 <0>         0.0847
      2 N1         -1.5520   -4.3038   -5.7228 N.am      1 <0>        -0.7137
      3 C2         -1.8827   -5.0004   -4.6175 C.2       1 <0>         0.5696
      4 O1         -1.8023   -6.2129   -4.6168 O.2       1 <0>        -0.5284
      5 C3         -2.3445   -4.2878   -3.4031 C.ar      1 <0>         0.1129
      6 C4         -2.6788   -5.0128   -2.2640 C.ar      1 <0>        -0.1883
      7 C5         -3.1110   -4.3279   -1.1310 C.ar      1 <0>         0.1595
      8 C6         -3.1903   -2.9389   -1.1877 C.ar      1 <0>        -0.1766
      9 C7         -2.8404   -2.2885   -2.3571 C.ar      1 <0>         0.1349
     10 N2         -2.4302   -2.9626   -3.4105 N.ar      1 <0>        -0.4815
     11 O2         -3.4471   -4.9979    0.0005 O.3       1 <0>        -0.2437
     12 C8         -3.4462   -6.3570   -0.0383 C.ar      1 <0>         0.0568
     13 C9         -2.2447   -7.0505   -0.0178 C.ar      1 <0>        -0.1074
     14 C10        -2.2431   -8.4307   -0.0577 C.ar      1 <0>        -0.1009
     15 C11        -3.4442   -9.1246   -0.1179 C.ar      1 <0>         0.1671
     16 C12        -4.6464   -8.4301   -0.1379 C.ar      1 <0>        -0.1272
     17 C13        -4.6469   -7.0500   -0.0928 C.ar      1 <0>        -0.0940
     18 N3         -3.4432  -10.5252   -0.1588 N.am      1 <0>        -0.6776
     19 C14        -2.5108  -11.2187    0.5239 C.2       1 <0>         0.7077
     20 O3         -1.6217  -10.6297    1.1080 O.2       1 <0>        -0.5493
     21 N4         -2.5639  -12.5649    0.5593 N.am      1 <0>        -0.6795
     22 C15        -1.6655  -13.2800    1.3600 C.ar      1 <0>         0.1700
     23 C16        -1.2529  -12.7583    2.5792 C.ar      1 <0>        -0.0742
     24 C17        -0.3670  -13.4659    3.3674 C.ar      1 <0>        -0.0871
     25 C18         0.1097  -14.6941    2.9434 C.ar      1 <0>        -0.0077
     26 C19        -0.2993  -15.2159    1.7290 C.ar      1 <0>        -0.1564
     27 C20        -1.1898  -14.5147    0.9394 C.ar      1 <0>        -0.0879
     28 C21         0.2222  -16.5533    1.2702 C.3       1 <0>         0.5112
     29 F1         -0.3299  -16.8663    0.0234 F         1 <0>        -0.1743
     30 F2          1.6160  -16.4983    1.1626 F         1 <0>        -0.1671
     31 F3         -0.1354  -17.5367    2.1987 F         1 <0>        -0.1677
     32 Cl1         1.2234  -15.5812    3.9366 Cl        1 <0>        -0.0394
     33 H1         -0.8760   -4.2843   -7.7081 H         1 <0>         0.0803
     34 H2         -0.1948   -5.5764   -6.6909 H         1 <0>         0.0631
     35 H3         -1.8761   -5.6883   -7.2645 H         1 <0>         0.0629
     36 H4         -1.6162   -3.3359   -5.7233 H         1 <0>         0.4141
     37 H5         -2.6047   -6.0902   -2.2584 H         1 <0>         0.1546
     38 H6         -3.5217   -2.3755   -0.3280 H         1 <0>         0.1523
     39 H7         -2.9005   -1.2112   -2.4052 H         1 <0>         0.1747
     40 H8         -1.3104   -6.5106    0.0290 H         1 <0>         0.1364
     41 H9         -1.3078   -8.9704   -0.0424 H         1 <0>         0.1514
     42 H10        -5.5809   -8.9693   -0.1851 H         1 <0>         0.1386
     43 H11        -5.5820   -6.5098   -0.1039 H         1 <0>         0.1400
     44 H12        -4.1137  -10.9957   -0.6785 H         1 <0>         0.4131
     45 H13        -3.2246  -13.0383    0.0299 H         1 <0>         0.4146
     46 H14        -1.6244  -11.7997    2.9103 H         1 <0>         0.1546
     47 H15        -0.0456  -13.0604    4.3154 H         1 <0>         0.1524
     48 H16        -1.5123  -14.9245   -0.0064 H         1 <0>         0.1525
@<TRIPOS>BOND
     1    1    2 1
     2    1   33 1
     3    1   34 1
     4    1   35 1
     5    2    3 am
     6    2   36 1
     7    3    4 2
     8    3    5 1
     9    5   10 ar
    10    5    6 ar
    11    6    7 ar
    12    6   37 1
    13    7    8 ar
    14    7   11 1
    15    8    9 ar
    16    8   38 1
    17    9   10 ar
    18    9   39 1
    19   11   12 1
    20   12   17 ar
    21   12   13 ar
    22   13   14 ar
    23   13   40 1
    24   14   15 ar
    25   14   41 1
    26   15   16 ar
    27   15   18 1
    28   16   17 ar
    29   16   42 1
    30   17   43 1
    31   18   19 am
    32   18   44 1
    33   19   20 2
    34   19   21 am
    35   21   22 1
    36   21   45 1
    37   22   27 ar
    38   22   23 ar
    39   23   24 ar
    40   23   46 1
    41   24   25 ar
    42   24   47 1
    43   25   26 ar
    44   25   32 1
    45   26   27 ar
    46   26   28 1
    47   27   48 1
    48   28   29 1
    49   28   30 1
    50   28   31 1
@<TRIPOS>MOLECULE
ZINC03989259
   57    59     0     0     0
SMALL
USER_CHARGES

@<TRIPOS>ATOM
      1 C1          4.7940    1.4748   -1.9580 C.3       1 <0>        -0.1866
      2 C2          5.1782    0.4845   -0.8568 C.3       1 <0>        -0.0173
      3 C3          6.5990    2.1351    0.2012 C.3       1 <0>        -0.0111
      4 C4          7.8882    1.3271    0.0399 C.3       1 <0>        -0.1890
      5 C5          4.2763    1.9385    0.8563 C.3       1 <0>        -0.0230
      6 C6          3.2014    0.9315    1.2703 C.3       1 <0>         0.0949
      7 N1          2.0151    1.6500    1.7424 N.am      1 <0>        -0.7291
      8 C7          0.9338    0.9632    2.1616 C.2       1 <0>         0.6111
      9 O1          0.9429   -0.2527    2.1478 O.2       1 <0>        -0.5184
     10 C8         -0.2621    1.6862    2.6309 C.2       1 <0>        -0.2417
     11 C9         -1.3491    2.1107    1.8372 C.2       1 <0>        -0.0585
     12 C10        -2.2403    2.7399    2.6838 C.2       1 <0>        -0.0067
     13 N2         -1.7112    2.7111    3.9576 N.pl3     1 <0>        -0.4914
     14 H1         -2.1295    3.0867    4.7480 H         1 <0>         0.4268
     15 C11        -0.5253    2.0803    3.9303 C.2       1 <0>         0.1152
     16 C12         0.3697    1.8413    5.1189 C.3       1 <0>        -0.0999
     17 C13        -3.4736    3.3170    2.3103 C.2       1 <0>         0.0707
     18 C14        -3.9268    4.4526    2.9516 C.2       1 <0>        -0.1866
     19 C15        -5.2445    5.1082    2.7974 C.ar      1 <0>        -0.0906
     20 C16        -6.3711    4.8169    2.0348 C.ar      1 <0>        -0.0550
     21 C17        -7.4810    5.6350    2.1130 C.ar      1 <0>        -0.0537
     22 C18        -7.4734    6.7373    2.9534 C.ar      1 <0>        -0.0704
     23 C19        -6.3632    7.0298    3.7190 C.ar      1 <0>        -0.1195
     24 C20        -5.2361    6.2179    3.6532 C.ar      1 <0>         0.1435
     25 N3         -4.0089    6.2840    4.3026 N.am      1 <0>        -0.6473
     26 C21        -3.2028    5.2754    3.9301 C.2       1 <0>         0.5595
     27 O2         -2.0702    5.0781    4.3329 O.2       1 <0>        -0.5145
     28 Cl1        -8.8870    5.2828    1.1575 Cl        1 <0>        -0.0549
     29 C22        -1.5083    1.9123    0.3518 C.3       1 <0>        -0.0928
     30 H2          3.9159    2.0409   -1.6474 H         1 <0>         0.0796
     31 H3          5.6233    2.1594   -2.1365 H         1 <0>         0.0812
     32 H4          4.5692    0.9296   -2.8747 H         1 <0>         0.1075
     33 H5          6.0634   -0.0734   -1.1625 H         1 <0>         0.1329
     34 H6          4.3535   -0.2075   -0.6865 H         1 <0>         0.1314
     35 H7          6.4364    2.7416   -0.6898 H         1 <0>         0.1338
     36 H8          6.6840    2.7848    1.0723 H         1 <0>         0.1297
     37 H9          8.0650    0.7412    0.9418 H         1 <0>         0.0813
     38 H10         7.7929    0.6579   -0.8152 H         1 <0>         0.0804
     39 H11         8.7250    2.0065   -0.1219 H         1 <0>         0.1070
     40 H12         3.8925    2.5714    0.0562 H         1 <0>         0.1399
     41 H13         4.5434    2.5576    1.7128 H         1 <0>         0.1368
     42 H14         3.5853    0.2986    2.0704 H         1 <0>         0.0887
     43 H15         2.9343    0.3125    0.4138 H         1 <0>         0.0889
     44 H16         2.0079    2.6199    1.7534 H         1 <0>         0.4098
     45 H17         1.0581    2.6790    5.2297 H         1 <0>         0.0839
     46 H18        -0.2383    1.7492    6.0189 H         1 <0>         0.0780
     47 H19         0.9366    0.9226    4.9679 H         1 <0>         0.0839
     48 H20        -4.0625    2.8701    1.5230 H         1 <0>         0.1587
     49 H21        -6.3755    3.9579    1.3801 H         1 <0>         0.1412
     50 H22        -8.3447    7.3730    3.0099 H         1 <0>         0.1461
     51 H23        -6.3695    7.8913    4.3703 H         1 <0>         0.1406
     52 H24        -3.7653    6.9709    4.9427 H         1 <0>         0.4218
     53 H25        -2.0209    0.9688    0.1641 H         1 <0>         0.0783
     54 H26        -2.0935    2.7326   -0.0637 H         1 <0>         0.0725
     55 H27        -0.5256    1.8919   -0.1194 H         1 <0>         0.0632
     56 N4          5.4731    1.1989    0.4030 N.4       1 <0>        -0.3919
     57 H28         5.7338    0.5137    1.1218 H         1 <0>         0.4310
@<TRIPOS>BOND
     1    1    2 1
     2    1   30 1
     3    1   31 1
     4    1   32 1
     5    2   33 1
     6    2   34 1
     7    2   56 1
     8    3    4 1
     9    3   35 1
    10    3   36 1
    11    3   56 1
    12    4   37 1
    13    4   38 1
    14    4   39 1
    15    5    6 1
    16    5   40 1
    17    5   41 1
    18    5   56 1
    19    6    7 1
    20    6   42 1
    21    6   43 1
    22    7    8 am
    23    7   44 1
    24    8    9 2
    25    8   10 1
    26   10   15 2
    27   10   11 1
    28   11   12 2
    29   11   29 1
    30   12   13 1
    31   12   17 1
    32   13   14 1
    33   13   15 1
    34   15   16 1
    35   16   45 1
    36   16   46 1
    37   16   47 1
    38   17   18 2
    39   17   48 1
    40   18   26 1
    41   18   19 1
    42   19   24 ar
    43   19   20 ar
    44   20   21 ar
    45   20   49 1
    46   21   22 ar
    47   21   28 1
    48   22   23 ar
    49   22   50 1
    50   23   24 ar
    51   23   51 1
    52   24   25 1
    53   25   26 am
    54   25   52 1
    55   26   27 2
    56   29   53 1
    57   29   54 1
    58   29   55 1
    59   56   57 1
@<TRIPOS>MOLECULE
ZINC03989258
   55    58     0     0     0
SMALL
USER_CHARGES

@<TRIPOS>ATOM
      1 C1         -0.3067    1.0920    0.1581 C.3       1 <0>        -0.0934
      2 C2         -0.8831    1.4012    1.5157 C.2       1 <0>        -0.0571
      3 C3         -0.1735    1.6789    2.6674 C.2       1 <0>        -0.0079
      4 N1         -1.0799    1.9046    3.6827 N.pl3     1 <0>        -0.4909
      5 H1         -0.8527    2.1216    4.6004 H         1 <0>         0.4272
      6 C4         -2.3269    1.7762    3.1996 C.2       1 <0>         0.1158
      7 C5         -2.2518    1.4687    1.8531 C.2       1 <0>        -0.2424
      8 C6         -3.3892    1.2494    0.9413 C.2       1 <0>         0.6114
      9 O1         -3.8505    0.1329    0.8022 O.2       1 <0>        -0.5184
     10 N2         -3.9178    2.2864    0.2618 N.am      1 <0>        -0.7297
     11 C7         -5.0481    2.0685   -0.6443 C.3       1 <0>         0.0951
     12 C8         -5.4523    3.3981   -1.2844 C.3       1 <0>        -0.0120
     13 C9         -7.6910    2.4660   -1.5034 C.3       1 <0>        -0.0137
     14 C10        -8.9249    2.7895   -2.3827 C.3       1 <0>        -0.1471
     15 C11        -8.6747    4.2559   -2.8035 C.3       1 <0>        -0.1471
     16 C12        -7.1573    4.4661   -2.6464 C.3       1 <0>        -0.0091
     17 C13        -3.5975    1.9461    3.9920 C.3       1 <0>        -0.0997
     18 C14         1.2328    1.7236    2.7853 C.2       1 <0>         0.0735
     19 C15         1.8245    2.6161    3.6568 C.2       1 <0>        -0.1898
     20 C16         3.2552    2.6996    4.0258 C.ar      1 <0>        -0.0734
     21 C17         4.3824    1.9800    3.6416 C.ar      1 <0>        -0.1002
     22 C18         5.6168    2.3074    4.1699 C.ar      1 <0>         0.0862
     23 C19         5.7298    3.3529    5.0743 C.ar      1 <0>        -0.1140
     24 C20         4.6177    4.0755    5.4555 C.ar      1 <0>        -0.1020
     25 C21         3.3675    3.7601    4.9347 C.ar      1 <0>         0.1280
     26 N3          2.1101    4.3150    5.1462 N.am      1 <0>        -0.6464
     27 C22         1.1689    3.6844    4.4233 C.2       1 <0>         0.5597
     28 O2         -0.0194    3.9517    4.4065 O.2       1 <0>        -0.5162
     29 F1          6.7139    1.6084    3.8055 F         1 <0>        -0.1317
     30 H2         -0.1553    0.0167    0.0639 H         1 <0>         0.0787
     31 H3          0.6483    1.6048    0.0434 H         1 <0>         0.0727
     32 H4         -0.9962    1.4309   -0.6151 H         1 <0>         0.0637
     33 H5         -3.5499    3.1770    0.3728 H         1 <0>         0.4097
     34 H6         -4.7585    1.3634   -1.4234 H         1 <0>         0.0889
     35 H7         -5.8908    1.6642   -0.0834 H         1 <0>         0.0894
     36 H8         -5.7420    4.1032   -0.5053 H         1 <0>         0.1343
     37 H9         -4.6097    3.8023   -1.8453 H         1 <0>         0.1385
     38 H10        -7.5030    1.3925   -1.4842 H         1 <0>         0.1407
     39 H11        -7.8267    2.8520   -0.4931 H         1 <0>         0.1352
     40 H12        -9.8442    2.7061   -1.8030 H         1 <0>         0.1167
     41 H13        -8.9578    2.1379   -3.2559 H         1 <0>         0.0994
     42 H14        -9.2206    4.9356   -2.1493 H         1 <0>         0.1035
     43 H15        -8.9722    4.4078   -3.8411 H         1 <0>         0.1056
     44 H16        -6.9647    5.2403   -1.9037 H         1 <0>         0.1315
     45 H17        -6.7206    4.7496   -3.6040 H         1 <0>         0.1349
     46 H18        -3.9158    2.9877    3.9492 H         1 <0>         0.0838
     47 H19        -4.3763    1.3106    3.5705 H         1 <0>         0.0838
     48 H20        -3.4193    1.6629    5.0294 H         1 <0>         0.0782
     49 H21         1.8457    1.0596    2.1938 H         1 <0>         0.1590
     50 H22         4.2923    1.1660    2.9375 H         1 <0>         0.1437
     51 H23         6.6971    3.6040    5.4837 H         1 <0>         0.1485
     52 H24         4.7184    4.8877    6.1602 H         1 <0>         0.1415
     53 H25         1.9347    5.0620    5.7397 H         1 <0>         0.4217
     54 N4         -6.6121    3.1829   -2.2012 N.4       1 <0>        -0.3913
     55 H26        -6.3020    2.6373   -3.0138 H         1 <0>         0.4332
@<TRIPOS>BOND
     1    1    2 1
     2    1   30 1
     3    1   31 1
     4    1   32 1
     5    2    7 1
     6    2    3 2
     7    3    4 1
     8    3   18 1
     9    4    5 1
    10    4    6 1
    11    6    7 2
    12    6   17 1
    13    7    8 1
    14    8    9 2
    15    8   10 am
    16   10   11 1
    17   10   33 1
    18   11   12 1
    19   11   34 1
    20   11   35 1
    21   12   36 1
    22   12   37 1
    23   12   54 1
    24   13   14 1
    25   13   38 1
    26   13   39 1
    27   13   54 1
    28   14   15 1
    29   14   40 1
    30   14   41 1
    31   15   16 1
    32   15   42 1
    33   15   43 1
    34   16   44 1
    35   16   45 1
    36   16   54 1
    37   17   46 1
    38   17   47 1
    39   17   48 1
    40   18   19 2
    41   18   49 1
    42   19   27 1
    43   19   20 1
    44   20   25 ar
    45   20   21 ar
    46   21   22 ar
    47   21   50 1
    48   22   23 ar
    49   22   29 1
    50   23   24 ar
    51   23   51 1
    52   24   25 ar
    53   24   52 1
    54   25   26 1
    55   26   27 am
    56   26   53 1
    57   27   28 2
    58   54   55 1
@<TRIPOS>MOLECULE
ZINC13493833
   51    53     0     0     0
SMALL
USER_CHARGES
N-(2-dimethylaminoethyl)-5-[(Z)-(5-fluoro-2-oxo-indolin-3-ylidene)methyl]-2,4-dimethyl-1H-pyrrole-3-carboxamide
@<TRIPOS>ATOM
      1 C1         -1.4553    2.4940   -2.4659 C.3       1 <0>        -0.0932
      2 C2         -1.9834    2.4657   -1.0547 C.2       1 <0>        -0.0579
      3 C3         -3.2047    2.9443   -0.6230 C.2       1 <0>        -0.0071
      4 N1         -3.2905    2.7289    0.7369 N.pl3     1 <0>        -0.4911
      5 H1         -4.0437    2.9723    1.2976 H         1 <0>         0.4270
      6 C4         -2.1665    2.1282    1.1619 C.2       1 <0>         0.1155
      7 C5         -1.3262    1.9420    0.0792 C.2       1 <0>        -0.2422
      8 C6          0.0094    1.3186    0.1057 C.2       1 <0>         0.6113
      9 O1          0.1241    0.1194   -0.0604 O.2       1 <0>        -0.5183
     10 N2          1.1039    2.0786    0.3085 N.am      1 <0>        -0.7296
     11 C7          2.4317    1.4599    0.3288 C.3       1 <0>         0.0929
     12 C8          3.4917    2.5354    0.5749 C.3       1 <0>        -0.0185
     13 C9          5.8796    2.9358    0.5916 C.3       1 <0>        -0.0418
     14 C10         4.9663    1.0135    1.7462 C.3       1 <0>        -0.0499
     15 C11        -1.8705    1.7234    2.5830 C.3       1 <0>        -0.0998
     16 C12        -4.1899    3.5533   -1.4306 C.2       1 <0>         0.0727
     17 C13        -4.9714    4.5694   -0.9180 C.2       1 <0>        -0.1886
     18 C14        -6.1373    5.2184   -1.5579 C.ar      1 <0>        -0.0738
     19 C15        -6.7856    5.0283   -2.7742 C.ar      1 <0>        -0.1000
     20 C16        -7.8825    5.8056   -3.0945 C.ar      1 <0>         0.0862
     21 C17        -8.3367    6.7664   -2.2032 C.ar      1 <0>        -0.1138
     22 C18        -7.7031    6.9568   -0.9922 C.ar      1 <0>        -0.1021
     23 C19        -6.5980    6.1839   -0.6529 C.ar      1 <0>         0.1282
     24 N3         -5.7903    6.1706    0.4791 N.am      1 <0>        -0.6466
     25 C20        -4.8216    5.2447    0.3783 C.2       1 <0>         0.5595
     26 O2         -3.9685    5.0073    1.2147 O.2       1 <0>        -0.5156
     27 F1         -8.5124    5.6299   -4.2767 F         1 <0>        -0.1317
     28 H2         -1.7536    1.5823   -2.9837 H         1 <0>         0.0785
     29 H3         -1.8630    3.3589   -2.9891 H         1 <0>         0.0727
     30 H4         -0.3676    2.5610   -2.4455 H         1 <0>         0.0635
     31 H5          1.0124    3.0351    0.4409 H         1 <0>         0.4101
     32 H6          2.4748    0.7181    1.1263 H         1 <0>         0.0892
     33 H7          2.6214    0.9752   -0.6289 H         1 <0>         0.0889
     34 H8          3.4487    3.2772   -0.2226 H         1 <0>         0.1369
     35 H9          3.3020    3.0201    1.5326 H         1 <0>         0.1386
     36 H10         5.7757    3.5694    1.4724 H         1 <0>         0.1243
     37 H11         6.8549    2.4493    0.6070 H         1 <0>         0.1259
     38 H12         5.7921    3.5460   -0.3073 H         1 <0>         0.1230
     39 H13         4.2148    0.2262    1.6867 H         1 <0>         0.1243
     40 H14         5.9610    0.5677    1.7371 H         1 <0>         0.1264
     41 H15         4.8293    1.5775    2.6688 H         1 <0>         0.1253
     42 H16        -1.3727    2.5447    3.0986 H         1 <0>         0.0839
     43 H17        -2.8030    1.4852    3.0947 H         1 <0>         0.0782
     44 H18        -1.2217    0.8476    2.5837 H         1 <0>         0.0838
     45 H19        -4.3321    3.2242   -2.4494 H         1 <0>         0.1589
     46 H20        -6.4300    4.2802   -3.4673 H         1 <0>         0.1437
     47 H21        -9.1944    7.3708   -2.4591 H         1 <0>         0.1485
     48 H22        -8.0661    7.7080   -0.3064 H         1 <0>         0.1415
     49 H23        -5.9107    6.7552    1.2437 H         1 <0>         0.4217
     50 N4          4.8260    1.8994    0.5714 N.4       1 <0>        -0.3942
     51 H24         4.9260    1.3387   -0.2829 H         1 <0>         0.4344
@<TRIPOS>BOND
     1    1    2 1
     2    1   28 1
     3    1   29 1
     4    1   30 1
     5    2    7 1
     6    2    3 2
     7    3    4 1
     8    3   16 1
     9    4    5 1
    10    4    6 1
    11    6    7 2
    12    6   15 1
    13    7    8 1
    14    8    9 2
    15    8   10 am
    16   10   11 1
    17   10   31 1
    18   11   12 1
    19   11   32 1
    20   11   33 1
    21   12   34 1
    22   12   35 1
    23   12   50 1
    24   13   36 1
    25   13   37 1
    26   13   38 1
    27   13   50 1
    28   14   39 1
    29   14   40 1
    30   14   41 1
    31   14   50 1
    32   15   42 1
    33   15   43 1
    34   15   44 1
    35   16   17 2
    36   16   45 1
    37   17   25 1
    38   17   18 1
    39   18   23 ar
    40   18   19 ar
    41   19   20 ar
    42   19   46 1
    43   20   21 ar
    44   20   27 1
    45   21   22 ar
    46   21   47 1
    47   22   23 ar
    48   22   48 1
    49   23   24 1
    50   24   25 am
    51   24   49 1
    52   25   26 2
    53   50   51 1
@<TRIPOS>MOLECULE
ZINC21982951
   60    63     0     0     0
SMALL
USER_CHARGES

@<TRIPOS>ATOM
      1 C1         -2.0700    1.6928    0.2333 C.3       1 <0>        -0.1170
      2 C2         -1.6482    0.2604    0.0301 C.ar      1 <0>        -0.0813
      3 C3         -1.8479   -0.3525   -1.1919 C.ar      1 <0>        -0.1034
      4 C4         -1.4615   -1.6665   -1.3798 C.ar      1 <0>        -0.0990
      5 C5         -0.8738   -2.3725   -0.3459 C.ar      1 <0>        -0.1046
      6 C6         -0.6714   -1.7660    0.8791 C.ar      1 <0>        -0.0220
      7 C7         -1.0534   -0.4428    1.0688 C.ar      1 <0>         0.1347
      8 N1         -0.8441    0.1769    2.3055 N.am      1 <0>        -0.6659
      9 C8         -1.2819   -0.4110    3.4365 C.2       1 <0>         0.6018
     10 O1         -1.7689   -1.5261    3.3939 O.2       1 <0>        -0.4722
     11 C9         -1.1720    0.2905    4.7149 C.2       1 <0>        -0.2635
     12 C10        -1.5472   -0.1201    5.9866 C.2       1 <0>         0.1512
     13 N2         -1.3262    0.7270    6.9599 N.2       1 <0>        -0.5510
     14 C11        -0.7756    1.9070    6.7361 C.2       1 <0>         0.2513
     15 S1         -0.5107    1.9100    5.0742 S.3       1 <0>         0.2445
     16 N3         -0.4817    2.8997    7.6498 N.pl3     1 <0>        -0.5870
     17 C12        -0.6908    2.6801    9.0050 C.ar      1 <0>         0.4543
     18 C13        -1.0534    1.4192    9.4679 C.ar      1 <0>        -0.2926
     19 C14        -1.2512    1.2508   10.8352 C.ar      1 <0>         0.4935
     20 N4         -1.0875    2.2952   11.6453 N.ar      1 <0>        -0.5328
     21 C15        -0.7435    3.4737   11.1677 C.ar      1 <0>         0.4541
     22 N5         -0.5417    3.6719    9.8809 N.ar      1 <0>        -0.5672
     23 C16        -0.5694    4.6273   12.1217 C.3       1 <0>        -0.1251
     24 N6         -1.6138    0.0143   11.3464 N.pl3     1 <0>        -0.5370
     25 C17        -2.0559   -0.1253   12.7422 C.3       1 <0>         0.1090
     26 C18        -3.3866   -0.8852   12.7576 C.3       1 <0>         0.0383
     27 N7         -3.2335   -2.1493   12.0251 N.3       1 <0>        -0.5289
     28 C19        -2.9165   -1.9105   10.6107 C.3       1 <0>         0.0343
     29 C20        -1.5725   -1.1917   10.5056 C.3       1 <0>         0.1057
     30 C21        -4.4334   -2.9856   12.1619 C.3       1 <0>         0.0545
     31 C22        -4.1483   -4.3816   11.6043 C.3       1 <0>         0.0776
     32 O2         -3.1500   -5.0191   12.4038 O.3       1 <0>        -0.5606
     33 Cl1         0.0658   -2.6526    2.1768 Cl        1 <0>        -0.0453
     34 H1         -1.2464    2.3553   -0.0328 H         1 <0>         0.0773
     35 H2         -2.9308    1.9112   -0.3987 H         1 <0>         0.0785
     36 H3         -2.3379    1.8478    1.2784 H         1 <0>         0.0640
     37 H4         -2.3069    0.1956   -2.0014 H         1 <0>         0.1372
     38 H5         -1.6193   -2.1430   -2.3361 H         1 <0>         0.1391
     39 H6         -0.5731   -3.3989   -0.4959 H         1 <0>         0.1403
     40 H7         -0.3838    1.0296    2.3489 H         1 <0>         0.4083
     41 H8         -1.9972   -1.0858    6.1634 H         1 <0>         0.2027
     42 H9         -0.1293    3.7505    7.3451 H         1 <0>         0.4460
     43 H10        -1.1784    0.5927    8.7841 H         1 <0>         0.2218
     44 H11         0.4644    4.6619   12.4652 H         1 <0>         0.1245
     45 H12        -0.8146    5.5596   11.6130 H         1 <0>         0.1071
     46 H13        -1.2322    4.4948   12.9768 H         1 <0>         0.1273
     47 H14        -1.3096   -0.6823   13.3087 H         1 <0>         0.0989
     48 H15        -2.1929    0.8619   13.1834 H         1 <0>         0.1094
     49 H16        -3.6740   -1.0944   13.7880 H         1 <0>         0.1036
     50 H17        -4.1569   -0.2794   12.2806 H         1 <0>         0.0428
     51 H18        -2.8631   -2.8634   10.0841 H         1 <0>         0.1043
     52 H19        -3.6935   -1.2904   10.1636 H         1 <0>         0.0450
     53 H20        -1.3900   -0.9091    9.4688 H         1 <0>         0.1029
     54 H21        -0.7788   -1.8532   10.8529 H         1 <0>         0.1042
     55 H22        -4.7041   -3.0633   13.2149 H         1 <0>         0.0912
     56 H23        -5.2561   -2.5340   11.6075 H         1 <0>         0.0533
     57 H24        -5.0627   -4.9745   11.6240 H         1 <0>         0.0547
     58 H25        -3.7921   -4.2970   10.5776 H         1 <0>         0.0454
     59 H26        -2.9188   -5.9101   12.1076 H         1 <0>         0.3805
     60 H27        -0.2852    4.5531    9.5669 H         1 <0>         0.4414
@<TRIPOS>BOND
     1    1    2 1
     2    1   34 1
     3    1   35 1
     4    1   36 1
     5    2    7 ar
     6    2    3 ar
     7    3    4 ar
     8    3   37 1
     9    4    5 ar
    10    4   38 1
    11    5    6 ar
    12    5   39 1
    13    6    7 ar
    14    6   33 1
    15    7    8 1
    16    8    9 am
    17    8   40 1
    18    9   10 2
    19    9   11 1
    20   11   15 1
    21   11   12 2
    22   12   13 1
    23   12   41 1
    24   13   14 2
    25   14   15 1
    26   14   16 1
    27   16   17 1
    28   16   42 1
    29   17   22 ar
    30   17   18 ar
    31   18   19 ar
    32   18   43 1
    33   19   20 ar
    34   19   24 1
    35   20   21 ar
    36   21   22 ar
    37   21   23 1
    38   22   60 1
    39   23   44 1
    40   23   45 1
    41   23   46 1
    42   24   29 1
    43   24   25 1
    44   25   26 1
    45   25   47 1
    46   25   48 1
    47   26   27 1
    48   26   49 1
    49   26   50 1
    50   27   28 1
    51   27   30 1
    52   28   29 1
    53   28   51 1
    54   28   52 1
    55   29   53 1
    56   29   54 1
    57   30   31 1
    58   30   55 1
    59   30   56 1
    60   31   32 1
    61   31   57 1
    62   31   58 1
    63   32   59 1
@<TRIPOS>MOLECULE
ZINC21982951
   60    63     0     0     0
SMALL
USER_CHARGES

@<TRIPOS>ATOM
      1 C1          3.2739    6.6585    1.8418 C.3       1 <0>        -0.1168
      2 C2          2.5810    7.9910    1.9663 C.ar      1 <0>        -0.0823
      3 C3          2.8983    9.0189    1.0995 C.ar      1 <0>        -0.1038
      4 C4          2.2635   10.2419    1.2126 C.ar      1 <0>        -0.1008
      5 C5          1.3088   10.4411    2.1933 C.ar      1 <0>        -0.1049
      6 C6          0.9869    9.4175    3.0639 C.ar      1 <0>        -0.0226
      7 C7          1.6192    8.1849    2.9486 C.ar      1 <0>         0.1373
      8 N1          1.2913    7.1440    3.8238 N.am      1 <0>        -0.6678
      9 C8          1.3128    7.3511    5.1554 C.2       1 <0>         0.6036
     10 O1          1.5184    8.4680    5.5945 O.2       1 <0>        -0.4759
     11 C9          1.0891    6.2346    6.0728 C.2       1 <0>        -0.2694
     12 C10         1.0619    6.2190    7.4604 C.2       1 <0>         0.1522
     13 N2          0.8357    5.0596    8.0247 N.2       1 <0>        -0.5060
     14 C11         0.6446    3.9678    7.3056 C.2       1 <0>         0.2464
     15 S1          0.7674    4.5141    5.7185 S.3       1 <0>         0.2029
     16 N3          0.3973    2.6842    7.7505 N.pl3     1 <0>        -0.5650
     17 C12         0.2197    2.4414    9.1063 C.ar      1 <0>         0.4999
     18 C13        -0.1342    1.1736    9.5555 C.ar      1 <0>        -0.3181
     19 C14        -0.3003    0.9817   10.9244 C.ar      1 <0>         0.4940
     20 N4         -0.1157    2.0114   11.7481 N.ar      1 <0>        -0.5712
     21 C15         0.2193    3.1978   11.2829 C.ar      1 <0>         0.4509
     22 N5          0.3911    3.4178    9.9956 N.ar      1 <0>        -0.4879
     23 C16         0.4179    4.3344   12.2523 C.3       1 <0>        -0.1253
     24 N6         -0.6531   -0.2629   11.4224 N.pl3     1 <0>        -0.5744
     25 C17        -0.9639   -0.4449   12.8484 C.3       1 <0>         0.1013
     26 C18        -2.3114   -1.1652   12.9649 C.3       1 <0>         0.0387
     27 N7         -2.2712   -2.4031   12.1749 N.3       1 <0>        -0.5277
     28 C19        -2.0835   -2.1176   10.7462 C.3       1 <0>         0.0305
     29 C20        -0.7325   -1.4351   10.5377 C.3       1 <0>         0.1149
     30 C21        -3.4796   -3.2085   12.3965 C.3       1 <0>         0.0543
     31 C22        -3.2958   -4.5889   11.7629 C.3       1 <0>         0.0774
     32 O2         -2.2472   -5.2869   12.4378 O.3       1 <0>        -0.5615
     33 Cl1        -0.2110    9.6681    4.2952 Cl        1 <0>        -0.0453
     34 H1          2.7121    6.0191    1.1609 H         1 <0>         0.0767
     35 H2          4.2810    6.8077    1.4524 H         1 <0>         0.0779
     36 H3          3.3298    6.1850    2.8220 H         1 <0>         0.0648
     37 H4          3.6435    8.8670    0.3327 H         1 <0>         0.1365
     38 H5          2.5139   11.0437    0.5337 H         1 <0>         0.1383
     39 H6          0.8148   11.3976    2.2790 H         1 <0>         0.1396
     40 H7          1.0484    6.2731    3.4723 H         1 <0>         0.4083
     41 H8          1.2191    7.1147    8.0430 H         1 <0>         0.1979
     42 H9          0.3477    1.9521    7.1161 H         1 <0>         0.4525
     43 H10        -0.2767    0.3593    8.8606 H         1 <0>         0.1835
     44 H11         1.4596    4.3615   12.5720 H         1 <0>         0.1250
     45 H12         0.1626    5.2758   11.7656 H         1 <0>         0.1301
     46 H13        -0.2249    4.1881   13.1203 H         1 <0>         0.1049
     47 H14        -0.1857   -1.0458   13.3190 H         1 <0>         0.1119
     48 H15        -1.0251    0.5276   13.3369 H         1 <0>         0.0843
     49 H16        -2.5057   -1.4068   14.0099 H         1 <0>         0.1076
     50 H17        -3.1034   -0.5184   12.5874 H         1 <0>         0.0465
     51 H18        -2.1124   -3.0499   10.1822 H         1 <0>         0.1076
     52 H19        -2.8786   -1.4576   10.3996 H         1 <0>         0.0467
     53 H20        -0.6409   -1.1170    9.4992 H         1 <0>         0.1034
     54 H21         0.0684   -2.1330   10.7819 H         1 <0>         0.1075
     55 H22        -3.6507   -3.3200   13.4672 H         1 <0>         0.0925
     56 H23        -4.3362   -2.7111   11.9416 H         1 <0>         0.0553
     57 H24        -4.2233   -5.1548   11.8494 H         1 <0>         0.0565
     58 H25        -3.0370   -4.4741   10.7103 H         1 <0>         0.0456
     59 H26        -2.0752   -6.1719   12.0881 H         1 <0>         0.3821
     60 H27        -0.2297    1.8867   12.7033 H         1 <0>         0.4392
@<TRIPOS>BOND
     1    1    2 1
     2    1   34 1
     3    1   35 1
     4    1   36 1
     5    2    7 ar
     6    2    3 ar
     7    3    4 ar
     8    3   37 1
     9    4    5 ar
    10    4   38 1
    11    5    6 ar
    12    5   39 1
    13    6    7 ar
    14    6   33 1
    15    7    8 1
    16    8    9 am
    17    8   40 1
    18    9   10 2
    19    9   11 1
    20   11   15 1
    21   11   12 2
    22   12   13 1
    23   12   41 1
    24   13   14 2
    25   14   15 1
    26   14   16 1
    27   16   17 1
    28   16   42 1
    29   17   18 ar
    30   17   22 ar
    31   18   43 1
    32   18   19 ar
    33   19   24 1
    34   19   20 ar
    35   20   60 1
    36   20   21 ar
    37   21   23 1
    38   21   22 ar
    39   23   44 1
    40   23   45 1
    41   23   46 1
    42   24   29 1
    43   24   25 1
    44   25   26 1
    45   25   47 1
    46   25   48 1
    47   26   27 1
    48   26   49 1
    49   26   50 1
    50   27   28 1
    51   27   30 1
    52   28   29 1
    53   28   51 1
    54   28   52 1
    55   29   53 1
    56   29   54 1
    57   30   31 1
    58   30   55 1
    59   30   56 1
    60   31   32 1
    61   31   57 1
    62   31   58 1
    63   32   59 1
@<TRIPOS>MOLECULE
ZINC21982951
   59    62     0     0     0
SMALL
USER_CHARGES

@<TRIPOS>ATOM
      1 C1          3.4106    6.6420    1.8847 C.3       1 <0>        -0.1165
      2 C2          2.6976    7.9659    1.9845 C.ar      1 <0>        -0.0852
      3 C3          3.0204    8.9921    1.1176 C.ar      1 <0>        -0.1055
      4 C4          2.3672   10.2073    1.2080 C.ar      1 <0>        -0.1070
      5 C5          1.3885   10.4004    2.1660 C.ar      1 <0>        -0.1064
      6 C6          1.0609    9.3785    3.0365 C.ar      1 <0>        -0.0243
      7 C7          1.7118    8.1536    2.9438 C.ar      1 <0>         0.1460
      8 N1          1.3783    7.1144    3.8189 N.am      1 <0>        -0.6734
      9 C8          1.3676    7.3308    5.1492 C.2       1 <0>         0.6131
     10 O1          1.5489    8.4533    5.5848 O.2       1 <0>        -0.4899
     11 C9          1.1384    6.2176    6.0693 C.2       1 <0>        -0.3092
     12 C10         1.0807    6.2111    7.4561 C.2       1 <0>         0.1722
     13 N2          0.8573    5.0526    8.0233 N.2       1 <0>        -0.5180
     14 C11         0.6966    3.9535    7.3079 C.2       1 <0>         0.3121
     15 S1          0.8472    4.4907    5.7202 S.3       1 <0>         0.1340
     16 N3          0.4564    2.6698    7.7563 N.pl3     1 <0>        -0.5904
     17 C12         0.2490    2.4343    9.1091 C.ar      1 <0>         0.4412
     18 C13        -0.1036    1.1661    9.5586 C.ar      1 <0>        -0.3412
     19 C14        -0.3003    0.9817   10.9244 C.ar      1 <0>         0.4686
     20 N4         -0.1450    2.0186   11.7452 N.ar      1 <0>        -0.5923
     21 C15         0.1898    3.2050   11.2799 C.ar      1 <0>         0.3946
     22 N5          0.3901    3.4182    9.9956 N.ar      1 <0>        -0.5459
     23 C16         0.3546    4.3498   12.2460 C.3       1 <0>        -0.0834
     24 N6         -0.6531   -0.2629   11.4224 N.pl3     1 <0>        -0.5966
     25 C17        -1.0693   -0.4249   12.8237 C.3       1 <0>         0.1300
     26 C18        -2.3993   -1.1856   12.8517 C.3       1 <0>         0.0401
     27 N7         -2.2595   -2.4378   12.0965 N.3       1 <0>        -0.5276
     28 C19        -1.9688   -2.1765   10.6804 C.3       1 <0>         0.0363
     29 C20        -0.6270   -1.4554   10.5619 C.3       1 <0>         0.1269
     30 C21        -3.4565   -3.2768   12.2420 C.3       1 <0>         0.0537
     31 C22        -3.1814   -4.6636   11.6572 C.3       1 <0>         0.0792
     32 O2         -2.1684   -5.3132   12.4279 O.3       1 <0>        -0.5589
     33 Cl1        -0.1672    9.6214    4.2392 Cl        1 <0>        -0.0433
     34 H1          2.8725    5.9906    1.1961 H         1 <0>         0.0754
     35 H2          4.4240    6.8020    1.5166 H         1 <0>         0.0754
     36 H3          3.4510    6.1760    2.8692 H         1 <0>         0.0676
     37 H4          3.7844    8.8450    0.3685 H         1 <0>         0.1337
     38 H5          2.6220   11.0077    0.5292 H         1 <0>         0.1350
     39 H6          0.8801   11.3508    2.2339 H         1 <0>         0.1371
     40 H7          1.1547    6.2381    3.4683 H         1 <0>         0.4085
     41 H8          1.2132    7.1127    8.0357 H         1 <0>         0.1884
     42 H9          0.4325    1.9325    7.1264 H         1 <0>         0.4387
     43 H10        -0.2220    0.3459    8.8660 H         1 <0>         0.1413
     44 H11         1.3882    4.3890   12.5900 H         1 <0>         0.0870
     45 H12         0.1021    5.2855   11.7470 H         1 <0>         0.0890
     46 H13        -0.3072    4.2031   13.0995 H         1 <0>         0.0846
     47 H14        -0.3126   -0.9904   13.3674 H         1 <0>         0.0744
     48 H15        -1.1984    0.5551   13.2831 H         1 <0>         0.1008
     49 H16        -2.6676   -1.4113   13.8837 H         1 <0>         0.0903
     50 H17        -3.1785   -0.5727   12.3986 H         1 <0>         0.0372
     51 H18        -1.9249   -3.1208   10.1378 H         1 <0>         0.0905
     52 H19        -2.7540   -1.5497   10.2576 H         1 <0>         0.0380
     53 H20        -0.4638   -1.1563    9.5265 H         1 <0>         0.0877
     54 H21         0.1731   -2.1219   10.8840 H         1 <0>         0.0802
     55 H22        -3.7077   -3.3713   13.2985 H         1 <0>         0.0861
     56 H23        -4.2894   -2.8169   11.7102 H         1 <0>         0.0487
     57 H24        -4.0952   -5.2572   11.6843 H         1 <0>         0.0498
     58 H25        -2.8443   -4.5626   10.6256 H         1 <0>         0.0451
     59 H26        -1.9426   -6.1994   12.1134 H         1 <0>         0.3762
@<TRIPOS>BOND
     1    1    2 1
     2    1   34 1
     3    1   35 1
     4    1   36 1
     5    2    7 ar
     6    2    3 ar
     7    3    4 ar
     8    3   37 1
     9    4    5 ar
    10    4   38 1
    11    5    6 ar
    12    5   39 1
    13    6    7 ar
    14    6   33 1
    15    7    8 1
    16    8    9 am
    17    8   40 1
    18    9   10 2
    19    9   11 1
    20   11   15 1
    21   11   12 2
    22   12   13 1
    23   12   41 1
    24   13   14 2
    25   14   15 1
    26   14   16 1
    27   16   17 1
    28   16   42 1
    29   17   18 ar
    30   17   22 ar
    31   18   43 1
    32   18   19 ar
    33   19   24 1
    34   19   20 ar
    35   20   21 ar
    36   21   23 1
    37   21   22 ar
    38   23   44 1
    39   23   45 1
    40   23   46 1
    41   24   29 1
    42   24   25 1
    43   25   26 1
    44   25   47 1
    45   25   48 1
    46   26   27 1
    47   26   49 1
    48   26   50 1
    49   27   28 1
    50   27   30 1
    51   28   29 1
    52   28   51 1
    53   28   52 1
    54   29   53 1
    55   29   54 1
    56   30   31 1
    57   30   55 1
    58   30   56 1
    59   31   32 1
    60   31   57 1
    61   31   58 1
    62   32   59 1
@<TRIPOS>MOLECULE
ZINC21982951
   61    64     0     0     0
SMALL
USER_CHARGES

@<TRIPOS>ATOM
      1 C1          3.2770    6.6581    1.8427 C.3       1 <0>        -0.1166
      2 C2          2.5837    7.9904    1.9667 C.ar      1 <0>        -0.0814
      3 C3          2.9012    9.0183    1.0999 C.ar      1 <0>        -0.1028
      4 C4          2.2660   10.2411    1.2125 C.ar      1 <0>        -0.0975
      5 C5          1.3108   10.4402    2.1928 C.ar      1 <0>        -0.1039
      6 C6          0.9888    9.4167    3.0634 C.ar      1 <0>        -0.0218
      7 C7          1.6215    8.1842    2.9485 C.ar      1 <0>         0.1327
      8 N1          1.2933    7.1433    3.8237 N.am      1 <0>        -0.6648
      9 C8          1.3141    7.3507    5.1552 C.2       1 <0>         0.5983
     10 O1          1.5193    8.4677    5.5943 O.2       1 <0>        -0.4690
     11 C9          1.0903    6.2342    6.0727 C.2       1 <0>        -0.2500
     12 C10         1.0624    6.2188    7.4604 C.2       1 <0>         0.1439
     13 N2          0.8362    5.0594    8.0246 N.2       1 <0>        -0.4984
     14 C11         0.6458    3.9675    7.3056 C.2       1 <0>         0.2172
     15 S1          0.7692    4.5136    5.7185 S.3       1 <0>         0.2242
     16 N3          0.3986    2.6839    7.7506 N.pl3     1 <0>        -0.5513
     17 C12         0.2203    2.4413    9.1063 C.ar      1 <0>         0.5098
     18 C13        -0.1335    1.1734    9.5556 C.ar      1 <0>        -0.3097
     19 C14        -0.3003    0.9817   10.9244 C.ar      1 <0>         0.4927
     20 N4         -0.1163    2.0116   11.7481 N.ar      1 <0>        -0.5695
     21 C15         0.2187    3.1980   11.2828 C.ar      1 <0>         0.4589
     22 N5          0.3911    3.4178    9.9956 N.ar      1 <0>        -0.4762
     23 C16         0.4165    4.3348   12.2521 C.3       1 <0>        -0.1303
     24 N6         -0.6531   -0.2629   11.4224 N.pl3     1 <0>        -0.6123
     25 C17        -0.9643   -0.4465   12.8484 C.3       1 <0>         0.0782
     26 C18        -2.3027   -1.1838   12.9625 C.3       1 <0>        -0.0204
     27 N7         -2.2406   -2.4311   12.1903 N.4       1 <0>        -0.3852
     28 C19        -2.0770   -2.1279   10.7629 C.3       1 <0>        -0.0304
     29 C20        -0.7330   -1.4363   10.5388 C.3       1 <0>         0.0932
     30 C21        -3.4827   -3.1900   12.3886 C.3       1 <0>        -0.0061
     31 C22        -3.3702   -4.5448   11.6865 C.3       1 <0>         0.0434
     32 O2         -2.3479   -5.3224   12.3128 O.3       1 <0>        -0.5819
     33 Cl1        -0.2098    9.6671    4.2940 Cl        1 <0>        -0.0466
     34 H1          2.7157    6.0184    1.1617 H         1 <0>         0.0770
     35 H2          4.2843    6.8074    1.4538 H         1 <0>         0.0791
     36 H3          3.3325    6.1847    2.8230 H         1 <0>         0.0631
     37 H4          3.6468    8.8665    0.3335 H         1 <0>         0.1380
     38 H5          2.5166   11.0428    0.5336 H         1 <0>         0.1401
     39 H6          0.8165   11.3966    2.2780 H         1 <0>         0.1410
     40 H7          1.0508    6.2723    3.4722 H         1 <0>         0.4077
     41 H8          1.2191    7.1146    8.0429 H         1 <0>         0.2016
     42 H9          0.3494    1.9517    7.1163 H         1 <0>         0.4545
     43 H10        -0.2756    0.3590    8.8607 H         1 <0>         0.1860
     44 H11         1.4581    4.3621   12.5724 H         1 <0>         0.1309
     45 H12         0.1613    5.2760   11.7653 H         1 <0>         0.1358
     46 H13        -0.2267    4.1885   13.1199 H         1 <0>         0.1083
     47 H14        -0.1795   -1.0367   13.3215 H         1 <0>         0.1249
     48 H15        -1.0392    0.5259   13.3352 H         1 <0>         0.1232
     49 H16        -2.5028   -1.4138   14.0090 H         1 <0>         0.1602
     50 H17        -3.0999   -0.5526   12.5701 H         1 <0>         0.1410
     51 H18        -2.1110   -3.0537   10.1885 H         1 <0>         0.1585
     52 H19        -2.8811   -1.4682   10.4370 H         1 <0>         0.1418
     53 H20        -0.6550   -1.1179    9.4992 H         1 <0>         0.1416
     54 H21         0.0756   -2.1281   10.7747 H         1 <0>         0.1211
     55 H22        -3.6469   -3.3459   13.4548 H         1 <0>         0.1465
     56 H23        -4.3202   -2.6321   11.9697 H         1 <0>         0.1464
     57 H24        -4.3221   -5.0710   11.7578 H         1 <0>         0.1026
     58 H25        -3.1180   -4.3904   10.6374 H         1 <0>         0.0719
     59 H26        -2.2211   -6.1961   11.9183 H         1 <0>         0.4154
     60 H27        -0.2308    1.8869   12.7032 H         1 <0>         0.4393
     61 H28        -1.4578   -2.9831   12.5075 H         1 <0>         0.4359
@<TRIPOS>BOND
     1    1    2 1
     2    1   34 1
     3    1   35 1
     4    1   36 1
     5    2    7 ar
     6    2    3 ar
     7    3    4 ar
     8    3   37 1
     9    4    5 ar
    10    4   38 1
    11    5    6 ar
    12    5   39 1
    13    6    7 ar
    14    6   33 1
    15    7    8 1
    16    8    9 am
    17    8   40 1
    18    9   10 2
    19    9   11 1
    20   11   15 1
    21   11   12 2
    22   12   13 1
    23   12   41 1
    24   13   14 2
    25   14   15 1
    26   14   16 1
    27   16   17 1
    28   16   42 1
    29   17   18 ar
    30   17   22 ar
    31   18   43 1
    32   18   19 ar
    33   19   24 1
    34   19   20 ar
    35   20   60 1
    36   20   21 ar
    37   21   23 1
    38   21   22 ar
    39   23   44 1
    40   23   45 1
    41   23   46 1
    42   24   29 1
    43   24   25 1
    44   25   26 1
    45   25   47 1
    46   25   48 1
    47   26   27 1
    48   26   49 1
    49   26   50 1
    50   27   28 1
    51   27   30 1
    52   27   61 1
    53   28   29 1
    54   28   51 1
    55   28   52 1
    56   29   53 1
    57   29   54 1
    58   30   31 1
    59   30   55 1
    60   30   56 1
    61   31   32 1
    62   31   57 1
    63   31   58 1
    64   32   59 1
@<TRIPOS>MOLECULE
ZINC03834020
   50    53     0     0     0
SMALL
USER_CHARGES
3-[2,4-dimethyl-5-[(2-oxo-6-phenyl-indolin-3-ylidene)methyl]-1H-pyrrol-3-yl]propanoic acid
@<TRIPOS>ATOM
      1 C1         -0.1786    2.2930    0.0723 C.3       1 <0>        -0.0906
      2 C2         -0.8085    1.8462    1.3664 C.2       1 <0>        -0.0803
      3 C3         -2.1654    1.6057    1.5893 C.2       1 <0>        -0.1581
      4 C4         -2.3151    1.2186    2.8806 C.2       1 <0>         0.0733
      5 N1         -1.0998    1.2158    3.4840 N.pl3     1 <0>        -0.5117
      6 H1         -0.9278    0.9810    4.4093 H         1 <0>         0.4157
      7 C5         -0.1505    1.6022    2.5623 C.2       1 <0>        -0.0369
      8 C6          1.2350    1.7257    2.7929 C.2       1 <0>         0.1061
      9 C7          1.6959    2.1355    4.0300 C.2       1 <0>        -0.2339
     10 C8          3.0978    2.1726    4.5003 C.ar      1 <0>        -0.0779
     11 C9          4.3122    1.8484    3.9001 C.ar      1 <0>        -0.0700
     12 C10         5.4866    1.9976    4.6035 C.ar      1 <0>        -0.1266
     13 C11         5.4588    2.4791    5.9139 C.ar      1 <0>        -0.0227
     14 C12         4.2489    2.8100    6.5162 C.ar      1 <0>        -0.1268
     15 C13         3.0605    2.6627    5.8142 C.ar      1 <0>         0.1385
     16 N2          1.7403    2.9129    6.1700 N.am      1 <0>        -0.6539
     17 C14         0.8988    2.6221    5.1636 C.2       1 <0>         0.5558
     18 O1         -0.3133    2.7408    5.1875 O.2       1 <0>        -0.5113
     19 C15         6.7258    2.6383    6.6681 C.ar      1 <0>        -0.0412
     20 C16         6.7060    3.1233    7.9747 C.ar      1 <0>        -0.1117
     21 C17         7.8876    3.2639    8.6736 C.ar      1 <0>        -0.1182
     22 C18         9.0911    2.9353    8.0760 C.ar      1 <0>        -0.1205
     23 C19         9.1174    2.4588    6.7776 C.ar      1 <0>        -0.1177
     24 C20         7.9415    2.3087    6.0710 C.ar      1 <0>        -0.1090
     25 C21        -3.6209    0.8568    3.5403 C.3       1 <0>        -0.0921
     26 C22        -3.2692    1.7479    0.5731 C.3       1 <0>        -0.0295
     27 C23        -3.4624    0.4186   -0.1594 C.3       1 <0>        -0.1468
     28 C24        -4.5662    0.5609   -1.1755 C.2       1 <0>         0.4580
     29 O2         -5.1395    1.6170   -1.3010 O.co2     1 <0>        -0.6422
     30 H2          0.1065    1.4192   -0.5137 H         1 <0>         0.0709
     31 H3          0.7069    2.8913    0.2867 H         1 <0>         0.0584
     32 H4         -0.8936    2.8915   -0.4922 H         1 <0>         0.0735
     33 H5          1.9361    1.5002    2.0030 H         1 <0>         0.1502
     34 H6          4.3323    1.4761    2.8865 H         1 <0>         0.1316
     35 H7          6.4289    1.7418    4.1419 H         1 <0>         0.1313
     36 H8          4.2344    3.1813    7.5303 H         1 <0>         0.1275
     37 H9          1.4621    3.2537    7.0345 H         1 <0>         0.4144
     38 H10         5.7674    3.3845    8.4407 H         1 <0>         0.1245
     39 H11         7.8731    3.6355    9.6876 H         1 <0>         0.1233
     40 H12        10.0138    3.0508    8.6253 H         1 <0>         0.1218
     41 H13        10.0599    2.2041    6.3159 H         1 <0>         0.1243
     42 H14         7.9631    1.9363    5.0575 H         1 <0>         0.1278
     43 H15        -4.0691    1.7510    3.9735 H         1 <0>         0.0762
     44 H16        -4.2980    0.4341    2.7981 H         1 <0>         0.0892
     45 H17        -3.4399    0.1237    4.3264 H         1 <0>         0.0619
     46 H18        -4.1952    2.0222    1.0785 H         1 <0>         0.0655
     47 H19        -3.0039    2.5235   -0.1453 H         1 <0>         0.0682
     48 H20        -2.5364    0.1444   -0.6648 H         1 <0>         0.0619
     49 H21        -3.7277   -0.3569    0.5591 H         1 <0>         0.0597
     50 O3         -4.9124   -0.4858   -1.9413 O.co2     1 <0>        -0.7796
@<TRIPOS>BOND
     1    1    2 1
     2    1   30 1
     3    1   31 1
     4    1   32 1
     5    2    7 2
     6    2    3 1
     7    3    4 2
     8    3   26 1
     9    4    5 1
    10    4   25 1
    11    5    6 1
    12    5    7 1
    13    7    8 1
    14    8    9 2
    15    8   33 1
    16    9   17 1
    17    9   10 1
    18   10   15 ar
    19   10   11 ar
    20   11   12 ar
    21   11   34 1
    22   12   13 ar
    23   12   35 1
    24   13   14 ar
    25   13   19 1
    26   14   15 ar
    27   14   36 1
    28   15   16 1
    29   16   17 am
    30   16   37 1
    31   17   18 2
    32   19   24 ar
    33   19   20 ar
    34   20   21 ar
    35   20   38 1
    36   21   22 ar
    37   21   39 1
    38   22   23 ar
    39   22   40 1
    40   23   24 ar
    41   23   41 1
    42   24   42 1
    43   25   43 1
    44   25   44 1
    45   25   45 1
    46   26   27 1
    47   26   46 1
    48   26   47 1
    49   27   28 1
    50   27   48 1
    51   27   49 1
    52   28   29 2
    53   28   50 1
@<TRIPOS>MOLECULE
ZINC01912572
   43    45     0     0     0
SMALL
USER_CHARGES
2-(4-pyridylmethylamino)-N-[3-(trifluoromethyl)phenyl]-benzamide
@<TRIPOS>ATOM
      1 C1         -0.1765    9.4460    0.4719 C.ar      1 <0>        -0.1891
      2 C2          1.0103   10.1618    0.4963 C.ar      1 <0>        -0.0333
      3 C3          2.2211    9.5112    0.3781 C.ar      1 <0>        -0.2111
      4 C4          2.2581    8.1291    0.2392 C.ar      1 <0>         0.2834
      5 C5          1.0579    7.4020    0.2088 C.ar      1 <0>        -0.2347
      6 C6         -0.1603    8.0760    0.3297 C.ar      1 <0>        -0.0328
      7 C7          1.0825    5.9361    0.0563 C.2       1 <0>         0.5755
      8 O1          2.1438    5.3424    0.0572 O.2       1 <0>        -0.5298
      9 N1         -0.0712    5.2537   -0.0842 N.am      1 <0>        -0.6685
     10 C8         -0.0569    3.8557   -0.1198 C.ar      1 <0>         0.1487
     11 C9         -0.9819    3.1697   -0.8966 C.ar      1 <0>        -0.1140
     12 C10        -0.9653    1.7893   -0.9293 C.ar      1 <0>        -0.0973
     13 C11        -0.0295    1.0898   -0.1892 C.ar      1 <0>        -0.0884
     14 C12         0.8889    1.7694    0.5895 C.ar      1 <0>        -0.1623
     15 C13         0.8817    3.1503    0.6217 C.ar      1 <0>        -0.0727
     16 C14         1.9025    1.0029    1.3995 C.3       1 <0>         0.5089
     17 F1          1.7164   -0.3694    1.2014 F         1 <0>        -0.1757
     18 F2          3.1921    1.3620    0.9932 F         1 <0>        -0.1730
     19 F3          1.7400    1.3045    2.7559 F         1 <0>        -0.1759
     20 N2          3.4759    7.4713    0.1258 N.pl3     1 <0>        -0.7210
     21 C15         4.7169    8.2416    0.0138 C.3       1 <0>         0.1559
     22 C16         5.8862    7.2972   -0.0958 C.ar      1 <0>        -0.0632
     23 C17         6.5494    6.8542    1.0384 C.ar      1 <0>        -0.1534
     24 C18         7.6149    5.9851    0.8991 C.ar      1 <0>         0.1000
     25 N3          8.0078    5.5855   -0.2946 N.ar      1 <0>        -0.4783
     26 C19         7.4038    5.9899   -1.3949 C.ar      1 <0>         0.0998
     27 C20         6.3280    6.8554   -1.3335 C.ar      1 <0>        -0.1530
     28 H1         -1.1189    9.9652    0.5652 H         1 <0>         0.1274
     29 H2          0.9869   11.2356    0.6089 H         1 <0>         0.1286
     30 H3          3.1413   10.0762    0.3984 H         1 <0>         0.1298
     31 H4         -1.0880    7.5233    0.3121 H         1 <0>         0.1236
     32 H5         -0.9115    5.7322   -0.1606 H         1 <0>         0.4152
     33 H6         -1.7129    3.7154   -1.4748 H         1 <0>         0.1372
     34 H7         -1.6842    1.2554   -1.5330 H         1 <0>         0.1417
     35 H8         -0.0189    0.0102   -0.2161 H         1 <0>         0.1414
     36 H9          1.6021    3.6807    1.2267 H         1 <0>         0.1454
     37 H10         3.5047    6.5017    0.1208 H         1 <0>         0.4213
     38 H11         4.6744    8.8719   -0.8745 H         1 <0>         0.0766
     39 H12         4.8371    8.8676    0.8980 H         1 <0>         0.0767
     40 H13         6.2351    7.1814    2.0184 H         1 <0>         0.1367
     41 H14         8.1346    5.6327    1.7777 H         1 <0>         0.1589
     42 H15         7.7541    5.6411   -2.3551 H         1 <0>         0.1586
     43 H16         5.8380    7.1836   -2.2382 H         1 <0>         0.1361
@<TRIPOS>BOND
     1    1    6 ar
     2    1    2 ar
     3    1   28 1
     4    2    3 ar
     5    2   29 1
     6    3    4 ar
     7    3   30 1
     8    4    5 ar
     9    4   20 1
    10    5    6 ar
    11    5    7 1
    12    6   31 1
    13    7    8 2
    14    7    9 am
    15    9   10 1
    16    9   32 1
    17   10   15 ar
    18   10   11 ar
    19   11   12 ar
    20   11   33 1
    21   12   13 ar
    22   12   34 1
    23   13   14 ar
    24   13   35 1
    25   14   15 ar
    26   14   16 1
    27   15   36 1
    28   16   17 1
    29   16   18 1
    30   16   19 1
    31   20   21 1
    32   20   37 1
    33   21   22 1
    34   21   38 1
    35   21   39 1
    36   22   27 ar
    37   22   23 ar
    38   23   24 ar
    39   23   40 1
    40   24   25 ar
    41   24   41 1
    42   25   26 ar
    43   26   27 ar
    44   26   42 1
    45   27   43 1
@<TRIPOS>MOLECULE
ZINC03814434
   62    69     0     0     0
SMALL
USER_CHARGES

@<TRIPOS>ATOM
      1 C1         -0.1295    1.5952   -0.2973 C.3       1 <0>        -0.1687
      2 C2         -0.0862    0.0696   -0.1900 C.3       1 <0>         0.3342
      3 C3          0.5692   -0.4501   -1.4637 C.3       1 <0>         0.0405
      4 H1          1.4796    0.1159   -1.6612 H         1 <0>         0.1372
      5 C4          0.9167   -1.9328   -1.2889 C.3       1 <0>        -0.0061
      6 H2          1.3963   -2.3075   -2.1932 H         1 <0>         0.1555
      7 C5          1.8785   -2.0596   -0.1021 C.3       1 <0>        -0.1827
      8 C6          1.2061   -1.5198    1.1541 C.3       1 <0>         0.2999
      9 H3          1.9797   -1.4243    1.9161 H         1 <0>         0.1550
     10 O1          0.6555   -0.2442    0.9666 O.3       1 <0>        -0.3234
     11 N1          0.2189   -2.4746    1.6600 N.pl3     1 <0>        -0.5366
     12 C7          0.4705   -3.5508    2.4739 C.ar      1 <0>         0.1469
     13 C8          1.6649   -4.0152    3.0240 C.ar      1 <0>        -0.1522
     14 C9          1.5948   -5.1456    3.8201 C.ar      1 <0>        -0.0582
     15 C10         0.4006   -5.7997    4.0696 C.ar      1 <0>        -0.1457
     16 C11        -0.7984   -5.3597    3.5358 C.ar      1 <0>        -0.0280
     17 C12        -0.7487   -4.2198    2.7307 C.ar      1 <0>        -0.1131
     18 C13        -1.7893   -3.4830    2.0197 C.ar      1 <0>         0.0276
     19 C14        -1.1442   -2.4197    1.3841 C.ar      1 <0>         0.0376
     20 C15        -1.8806   -1.5095    0.6175 C.ar      1 <0>         0.0894
     21 N2         -1.4718   -0.3951   -0.1095 N.pl3     1 <0>        -0.5183
     22 C16        -2.5611    0.1913   -0.7090 C.ar      1 <0>         0.1618
     23 C17        -2.6521    1.3277   -1.5118 C.ar      1 <0>        -0.1305
     24 C18        -3.9109    1.6745   -1.9733 C.ar      1 <0>        -0.0737
     25 C19        -5.0393    0.9368   -1.6616 C.ar      1 <0>        -0.1358
     26 C20        -4.9745   -0.1955   -0.8662 C.ar      1 <0>        -0.0503
     27 C21        -3.7147   -0.5596   -0.3919 C.ar      1 <0>        -0.1042
     28 C22        -3.2693   -1.6660    0.4845 C.ar      1 <0>        -0.0360
     29 C23        -3.9084   -2.7313    1.1102 C.ar      1 <0>        -0.0288
     30 C24        -3.1873   -3.6421    1.8754 C.ar      1 <0>        -0.1255
     31 C25        -4.1221   -4.6480    2.4030 C.2       1 <0>         0.5632
     32 O2         -3.8062   -5.5851    3.1110 O.2       1 <0>        -0.5106
     33 N3         -5.3744   -4.3851    1.9926 N.am      1 <0>        -0.7162
     34 C26        -5.3495   -3.1771    1.1601 C.3       1 <0>         0.1358
     35 N4         -0.3067   -2.7008   -1.0216 N.4       1 <0>        -0.5252
     36 C27         0.0145   -4.1336   -0.9773 C.3       1 <0>        -0.0497
     37 O3         -0.3340   -0.2979   -2.5607 O.3       1 <0>        -0.3614
     38 C28         0.3101   -0.0933   -3.8198 C.3       1 <0>         0.0162
     39 H4          0.8261    2.0094    0.0240 H         1 <0>         0.0984
     40 H5         -0.3202    1.8814   -1.3317 H         1 <0>         0.1036
     41 H6         -0.9255    1.9818    0.3392 H         1 <0>         0.0921
     42 H7          2.1370   -3.1081    0.0458 H         1 <0>         0.1233
     43 H8          2.7835   -1.4869   -0.3048 H         1 <0>         0.1455
     44 H9          2.6036   -3.5149    2.8368 H         1 <0>         0.1365
     45 H10         2.5026   -5.5304    4.2610 H         1 <0>         0.1359
     46 H11         0.4045   -6.6780    4.6980 H         1 <0>         0.1352
     47 H12        -1.7278   -5.8736    3.7323 H         1 <0>         0.1600
     48 H13        -1.7792    1.9122   -1.7624 H         1 <0>         0.1440
     49 H14        -4.0153    2.5500   -2.5970 H         1 <0>         0.1336
     50 H15        -5.9967    1.2527   -2.0488 H         1 <0>         0.1332
     51 H16        -5.8575   -0.7687   -0.6249 H         1 <0>         0.1415
     52 H17        -6.1628   -4.9065    2.2103 H         1 <0>         0.4348
     53 H18        -5.9671   -2.3994    1.6094 H         1 <0>         0.1115
     54 H19        -5.7060   -3.4063    0.1559 H         1 <0>         0.1103
     55 H20        -0.6958   -2.4158   -0.1353 H         1 <0>         0.4186
     56 H21         0.4349   -4.4415   -1.9347 H         1 <0>         0.1256
     57 H22         0.7403   -4.3189   -0.1854 H         1 <0>         0.1191
     58 H23        -0.8932   -4.7035   -0.7789 H         1 <0>         0.1256
     59 H24         0.9168    0.8112   -3.7748 H         1 <0>         0.0633
     60 H25         0.9482   -0.9479   -4.0446 H         1 <0>         0.0514
     61 H26        -0.4433    0.0130   -4.6003 H         1 <0>         0.1100
     62 H27        -0.9785   -2.5293   -1.7546 H         1 <0>         0.4274
@<TRIPOS>BOND
     1    1    2 1
     2    1   39 1
     3    1   40 1
     4    1   41 1
     5    2   10 1
     6    2   21 1
     7    2    3 1
     8    3    4 1
     9    3    5 1
    10    3   37 1
    11    5    6 1
    12    5    7 1
    13    5   35 1
    14    7    8 1
    15    7   42 1
    16    7   43 1
    17    8    9 1
    18    8   10 1
    19    8   11 1
    20   11   19 1
    21   11   12 1
    22   12   17 ar
    23   12   13 ar
    24   13   14 ar
    25   13   44 1
    26   14   15 ar
    27   14   45 1
    28   15   16 ar
    29   15   46 1
    30   16   17 ar
    31   16   47 1
    32   17   18 1
    33   18   30 ar
    34   18   19 ar
    35   19   20 ar
    36   20   28 ar
    37   20   21 1
    38   21   22 1
    39   22   27 ar
    40   22   23 ar
    41   23   24 ar
    42   23   48 1
    43   24   25 ar
    44   24   49 1
    45   25   26 ar
    46   25   50 1
    47   26   27 ar
    48   26   51 1
    49   27   28 1
    50   28   29 ar
    51   29   34 1
    52   29   30 ar
    53   30   31 1
    54   31   32 2
    55   31   33 am
    56   33   34 1
    57   33   52 1
    58   34   53 1
    59   34   54 1
    60   35   36 1
    61   35   55 1
    62   35   62 1
    63   36   56 1
    64   36   57 1
    65   36   58 1
    66   37   38 1
    67   38   59 1
    68   38   60 1
    69   38   61 1
@<TRIPOS>MOLECULE
ZINC14852066
   48    49     0     0     0
SMALL
USER_CHARGES

@<TRIPOS>ATOM
      1 C1         -0.0187    1.5258    0.0104 C.3       1 <0>        -0.1902
      2 C2          0.0021   -0.0041    0.0020 C.3       1 <0>         0.1099
      3 H1         -1.0213   -0.3792    0.0098 H         1 <0>         0.1225
      4 C3          0.7117   -0.4941   -1.2603 C.3       1 <0>        -0.1315
      5 C4          1.3803    0.6570   -1.9583 C.2       1 <0>        -0.0692
      6 C5          2.7017    0.8181   -1.8493 C.2       1 <0>        -0.2242
      7 C6          3.3680    1.9252   -2.5435 C.2       1 <0>         0.3696
      8 O1          2.7115    2.7060   -3.2003 O.2       1 <0>        -0.4479
      9 C7          4.8559    2.0998   -2.4470 C.3       1 <0>         0.0704
     10 H2          5.3262    1.1283   -2.2950 H         1 <0>         0.0907
     11 C8          5.1895    3.0179   -1.2680 C.3       1 <0>         0.1256
     12 H3          5.7479    3.8823   -1.6273 H         1 <0>         0.0798
     13 C9          6.0360    2.2514   -0.2480 C.3       1 <0>        -0.1248
     14 C10         5.2825    2.1507    1.0538 C.2       1 <0>        -0.1283
     15 C11         4.6042    1.0526    1.3362 C.2       1 <0>        -0.1087
     16 C12         3.8388    0.8902    2.5804 C.ar      1 <0>         0.0721
     17 C13         4.3861    1.3164    3.7898 C.ar      1 <0>        -0.1728
     18 C14         3.6817    1.1455    4.9738 C.ar      1 <0>         0.1859
     19 C15         2.4255    0.5534    4.9682 C.ar      1 <0>        -0.2571
     20 C16         1.8630    0.1324    3.7761 C.ar      1 <0>         0.2113
     21 C17         2.5606    0.2946    2.5690 C.ar      1 <0>        -0.2000
     22 C18         1.9781   -0.1421    1.2956 C.2       1 <0>         0.5268
     23 O2          2.6973   -0.2041    0.3174 O.2       1 <0>        -0.4835
     24 O3          0.6878   -0.4748    1.1642 O.3       1 <0>        -0.3491
     25 O4          0.6328   -0.4392    3.7740 O.3       1 <0>        -0.4807
     26 O5          4.2252    1.5601    6.1463 O.3       1 <0>        -0.3078
     27 C19         3.4497    1.3557    7.3291 C.3       1 <0>         0.0221
     28 O6          3.9788    3.4568   -0.6486 O.3       1 <0>        -0.5534
     29 O7          5.3461    2.6819   -3.6565 O.3       1 <0>        -0.5470
     30 H4          1.0039    1.9031    0.0027 H         1 <0>         0.0708
     31 H5         -0.5459    1.8868   -0.8726 H         1 <0>         0.0797
     32 H6         -0.5289    1.8773    0.9072 H         1 <0>         0.0648
     33 H7          1.4619   -1.2365   -0.9879 H         1 <0>         0.1008
     34 H8         -0.0172   -0.9492   -1.9309 H         1 <0>         0.0831
     35 H9          0.7985    1.3591   -2.5388 H         1 <0>         0.1164
     36 H10         3.2734    0.1369   -1.2412 H         1 <0>         0.1643
     37 H11         6.2432    1.2504   -0.6265 H         1 <0>         0.0830
     38 H12         6.9752    2.7800   -0.0845 H         1 <0>         0.0857
     39 H13         5.2989    2.9862    1.7379 H         1 <0>         0.1128
     40 H14         4.6552    0.2260    0.6308 H         1 <0>         0.1420
     41 H15         5.3612    1.7805    3.8056 H         1 <0>         0.1441
     42 H16         1.8873    0.4210    5.8951 H         1 <0>         0.1447
     43 H17        -0.0933    0.1904    3.6668 H         1 <0>         0.4007
     44 H18         2.5035    1.8894    7.2399 H         1 <0>         0.0607
     45 H19         3.2556    0.2907    7.4566 H         1 <0>         0.0615
     46 H20         3.9986    1.7309    8.1928 H         1 <0>         0.1065
     47 H21         4.1144    4.0435    0.1081 H         1 <0>         0.3819
     48 H22         5.1714    2.1527   -4.4467 H         1 <0>         0.3861
@<TRIPOS>BOND
     1    1    2 1
     2    1   30 1
     3    1   31 1
     4    1   32 1
     5    2    3 1
     6    2   24 1
     7    2    4 1
     8    4    5 1
     9    4   33 1
    10    4   34 1
    11    5    6 2
    12    5   35 1
    13    6    7 1
    14    6   36 1
    15    7    8 2
    16    7    9 1
    17    9   10 1
    18    9   11 1
    19    9   29 1
    20   11   12 1
    21   11   13 1
    22   11   28 1
    23   13   14 1
    24   13   37 1
    25   13   38 1
    26   14   15 2
    27   14   39 1
    28   15   16 1
    29   15   40 1
    30   16   21 ar
    31   16   17 ar
    32   17   18 ar
    33   17   41 1
    34   18   19 ar
    35   18   26 1
    36   19   20 ar
    37   19   42 1
    38   20   21 ar
    39   20   25 1
    40   21   22 1
    41   22   23 2
    42   22   24 1
    43   25   43 1
    44   26   27 1
    45   27   44 1
    46   27   45 1
    47   27   46 1
    48   28   47 1
    49   29   48 1
@<TRIPOS>MOLECULE
ZINC14852066
   48    49     0     0     0
SMALL
USER_CHARGES

@<TRIPOS>ATOM
      1 C1         -0.0187    1.5258    0.0104 C.3       1 <0>        -0.1782
      2 C2          0.0021   -0.0041    0.0020 C.3       1 <0>         0.1059
      3 H1         -1.0202   -0.3821    0.0097 H         1 <0>         0.1065
      4 C3          0.7214   -0.4993   -1.2571 C.3       1 <0>        -0.2337
      5 C4          0.9926    0.6676   -2.1719 C.2       1 <0>        -0.0239
      6 C5          2.2327    0.8804   -2.6274 C.2       1 <0>        -0.2524
      7 C6          3.3216   -0.0106   -2.2391 C.2       1 <0>         0.3565
      8 O1          3.0972   -0.9579   -1.5151 O.2       1 <0>        -0.3921
      9 C7          4.7243    0.2403   -2.7329 C.3       1 <0>         0.0775
     10 H2          4.6903    0.5739   -3.7700 H         1 <0>         0.0902
     11 C8          5.5353   -1.0528   -2.6394 C.3       1 <0>         0.1183
     12 H3          4.8562   -1.9036   -2.5842 H         1 <0>         0.0767
     13 C9          6.4150   -1.0217   -1.3875 C.3       1 <0>        -0.1211
     14 C10         5.7492   -1.8245   -0.2972 C.2       1 <0>        -0.1407
     15 C11         4.7118   -1.3199    0.3472 C.2       1 <0>        -0.1201
     16 C12         4.0408   -2.0709    1.4214 C.ar      1 <0>         0.0738
     17 C13         4.7005   -3.0796    2.1095 C.ar      1 <0>        -0.1758
     18 C14         4.0463   -3.7677    3.1229 C.ar      1 <0>         0.1867
     19 C15         2.7421   -3.4458    3.4552 C.ar      1 <0>        -0.2633
     20 C16         2.0660   -2.4427    2.7907 C.ar      1 <0>         0.2133
     21 C17         2.7063   -1.7502    1.7571 C.ar      1 <0>        -0.2009
     22 C18         2.0150   -0.7034    1.0028 C.2       1 <0>         0.5163
     23 O2          2.6441   -0.0218    0.2169 O.2       1 <0>        -0.4694
     24 O3          0.6975   -0.4800    1.1622 O.3       1 <0>        -0.3396
     25 O4          0.7918   -2.1312    3.1363 O.3       1 <0>        -0.4793
     26 O5          4.6885   -4.7601    3.7898 O.3       1 <0>        -0.3082
     27 C19         3.9578   -5.4273    4.8208 C.3       1 <0>         0.0226
     28 O6          6.3629   -1.1796   -3.7975 O.3       1 <0>        -0.5677
     29 O7          5.3395    1.2482   -1.9281 O.3       1 <0>        -0.5329
     30 H4          1.0039    1.9031    0.0027 H         1 <0>         0.0702
     31 H5         -0.5459    1.8868   -0.8726 H         1 <0>         0.0718
     32 H6         -0.5289    1.8773    0.9072 H         1 <0>         0.0632
     33 H7          1.6646   -0.9678   -0.9763 H         1 <0>         0.1854
     34 H8          0.0935   -1.2264   -1.7721 H         1 <0>         0.0805
     35 H9          0.1918    1.3244   -2.4742 H         1 <0>         0.1212
     36 H10         2.4263    1.7062   -3.2931 H         1 <0>         0.1283
     37 H11         7.3892   -1.4544   -1.6156 H         1 <0>         0.0742
     38 H12         6.5412    0.0090   -1.0560 H         1 <0>         0.1072
     39 H13         6.1067   -2.8144   -0.0623 H         1 <0>         0.1057
     40 H14         4.3547   -0.3298    0.0969 H         1 <0>         0.1711
     41 H15         5.7205   -3.3292    1.8570 H         1 <0>         0.1430
     42 H16         2.2456   -3.9881    4.2463 H         1 <0>         0.1411
     43 H17         0.7249   -1.4505    3.8198 H         1 <0>         0.3997
     44 H18         3.6630   -4.7055    5.5826 H         1 <0>         0.0602
     45 H19         3.0675   -5.8894    4.3943 H         1 <0>         0.0606
     46 H20         4.5854   -6.1958    5.2719 H         1 <0>         0.1057
     47 H21         6.9070   -1.9789   -3.8064 H         1 <0>         0.3845
     48 H22         4.8770    2.0973   -1.9394 H         1 <0>         0.3814
@<TRIPOS>BOND
     1    1    2 1
     2    1   30 1
     3    1   31 1
     4    1   32 1
     5    2    3 1
     6    2   24 1
     7    2    4 1
     8    4    5 1
     9    4   33 1
    10    4   34 1
    11    5    6 2
    12    5   35 1
    13    6    7 1
    14    6   36 1
    15    7    8 2
    16    7    9 1
    17    9   10 1
    18    9   11 1
    19    9   29 1
    20   11   12 1
    21   11   13 1
    22   11   28 1
    23   13   14 1
    24   13   37 1
    25   13   38 1
    26   14   15 2
    27   14   39 1
    28   15   16 1
    29   15   40 1
    30   16   21 ar
    31   16   17 ar
    32   17   18 ar
    33   17   41 1
    34   18   19 ar
    35   18   26 1
    36   19   20 ar
    37   19   42 1
    38   20   21 ar
    39   20   25 1
    40   21   22 1
    41   22   23 2
    42   22   24 1
    43   25   43 1
    44   26   27 1
    45   27   44 1
    46   27   45 1
    47   27   46 1
    48   28   47 1
    49   29   48 1
@<TRIPOS>MOLECULE
ZINC03938688
   39    41     0     0     0
SMALL
USER_CHARGES

@<TRIPOS>ATOM
      1 C1         -0.0095    1.3826    0.0704 C.ar      1 <0>        -0.0343
      2 C2          0.5587    1.0580   -1.1482 C.ar      1 <0>        -0.1609
      3 C3          1.7655    0.3862   -1.1955 C.ar      1 <0>         0.1753
      4 C4          2.4129    0.0342   -0.0053 C.ar      1 <0>        -0.1954
      5 C5          1.8304    0.3669    1.2233 C.ar      1 <0>         0.1741
      6 C6          0.6231    1.0388    1.2514 C.ar      1 <0>        -0.1610
      7 F1          2.4463    0.0317    2.3781 F         1 <0>        -0.1212
      8 C7          3.6999   -0.6827   -0.0456 C.2       1 <0>         0.6210
      9 O1          4.7383   -0.0615   -0.1600 O.2       1 <0>        -0.4669
     10 N1          3.7255   -2.0272    0.0446 N.am      1 <0>        -0.3962
     11 C8          4.8314   -2.8210    0.1249 C.2       1 <0>         0.5948
     12 N2          4.4249   -4.0694    0.1979 N.2       1 <0>        -0.5873
     13 C9          3.0869   -4.1118    0.1675 C.2       1 <0>         0.5191
     14 N3          2.6183   -2.8904    0.0808 N.2       1 <0>        -0.3480
     15 N4          2.3148   -5.2702    0.2247 N.pl3     1 <0>        -0.6226
     16 C10         2.9267   -6.5079    0.4407 C.ar      1 <0>         0.2365
     17 C11         4.1432   -6.5760    1.1080 C.ar      1 <0>        -0.1584
     18 C12         4.7450   -7.8008    1.3202 C.ar      1 <0>         0.0098
     19 C13         4.1379   -8.9586    0.8692 C.ar      1 <0>        -0.7033
     20 C14         2.9269   -8.8944    0.2046 C.ar      1 <0>         0.0112
     21 C15         2.3170   -7.6734   -0.0063 C.ar      1 <0>        -0.1777
     22 S1          4.9094  -10.5191    1.1415 S.o2      1 <0>         2.7034
     23 O2          4.4084  -11.3993    0.1448 O.2       1 <0>        -0.9656
     24 O3          6.2977  -10.2630    1.3036 O.2       1 <0>        -0.9650
     25 N5          4.3605  -11.0895    2.5960 N.pl3     1 <0>        -1.2510
     26 N6          6.1422   -2.3912    0.1281 N.pl3     1 <0>        -0.7911
     27 F2          2.3185    0.0697   -2.3868 F         1 <0>        -0.1201
     28 H1         -0.9506    1.9116    0.0998 H         1 <0>         0.1546
     29 H2          0.0576    1.3300   -2.0654 H         1 <0>         0.1549
     30 H3          0.1721    1.2963    2.1984 H         1 <0>         0.1546
     31 H4          1.3525   -5.2176    0.1147 H         1 <0>         0.4325
     32 H5          4.6180   -5.6722    1.4601 H         1 <0>         0.1556
     33 H6          5.6909   -7.8544    1.8385 H         1 <0>         0.1456
     34 H7          2.4556   -9.8005   -0.1466 H         1 <0>         0.1475
     35 H8          1.3691   -7.6243   -0.5215 H         1 <0>         0.1387
     36 H9          3.7284  -10.5673    3.1145 H         1 <0>         0.4165
     37 H10         4.6709  -11.9458    2.9296 H         1 <0>         0.4206
     38 H11         6.3422   -1.4439    0.0694 H         1 <0>         0.4292
     39 H12         6.8640   -3.0364    0.1890 H         1 <0>         0.4303
@<TRIPOS>BOND
     1    1    6 ar
     2    1    2 ar
     3    1   28 1
     4    2    3 ar
     5    2   29 1
     6    3    4 ar
     7    3   27 1
     8    4    5 ar
     9    4    8 1
    10    5    6 ar
    11    5    7 1
    12    6   30 1
    13    8    9 2
    14    8   10 am
    15   10   14 1
    16   10   11 1
    17   11   12 2
    18   11   26 1
    19   12   13 1
    20   13   14 2
    21   13   15 1
    22   15   16 1
    23   15   31 1
    24   16   21 ar
    25   16   17 ar
    26   17   18 ar
    27   17   32 1
    28   18   19 ar
    29   18   33 1
    30   19   20 ar
    31   19   22 1
    32   20   21 ar
    33   20   34 1
    34   21   35 1
    35   22   23 2
    36   22   24 2
    37   22   25 1
    38   25   36 1
    39   25   37 1
    40   26   38 1
    41   26   39 1
@<TRIPOS>MOLECULE
ZINC12504479
   39    42     0     0     0
SMALL
USER_CHARGES
tert-butyl-fluoro-BLAHone
@<TRIPOS>ATOM
      1 C1          0.0306    7.5665   -1.3573 C.3       1 <0>        -0.1435
      2 C2         -0.0131    6.9316    0.0341 C.3       1 <0>         0.0141
      3 C3         -1.4663    6.6486    0.4201 C.3       1 <0>        -0.1303
      4 C4          0.6075    7.8907    1.0520 C.3       1 <0>        -0.1484
      5 C5          0.7640    5.6405    0.0218 C.2       1 <0>         0.2640
      6 N1          2.1200    5.5432    0.0086 N.pl3     1 <0>        -0.5660
      7 H1          2.7692    6.3038    0.0059 H         1 <0>         0.4300
      8 C6          2.4322    4.2055   -0.0004 C.ar      1 <0>         0.0707
      9 C7          3.6945    3.4726   -0.0160 C.ar      1 <0>        -0.0387
     10 C8          4.9179    4.1553   -0.0241 C.ar      1 <0>        -0.0830
     11 C9          6.0889    3.4567   -0.0382 C.ar      1 <0>        -0.1479
     12 C10         6.0877    2.0644   -0.0451 C.ar      1 <0>         0.1067
     13 C11         4.9015    1.3651   -0.0371 C.ar      1 <0>        -0.1434
     14 C12         3.6874    2.0596   -0.0226 C.ar      1 <0>         0.0348
     15 C13         2.4115    1.3424   -0.0138 C.ar      1 <0>        -0.1820
     16 C14         1.2049    2.0599    0.0016 C.ar      1 <0>         0.1180
     17 C15         1.2195    3.5214    0.0080 C.ar      1 <0>         0.0317
     18 N2          0.2386    4.4495    0.0214 N.2       1 <0>        -0.4565
     19 C16        -0.0162    1.3425    0.0094 C.2       1 <0>        -0.2034
     20 C17         0.0021   -0.0041    0.0020 C.2       1 <0>         0.1350
     21 N3          1.1742   -0.7011   -0.0125 N.am      1 <0>        -0.6142
     22 H2          1.1491   -1.6708   -0.0168 H         1 <0>         0.4195
     23 C18         2.3662   -0.0731   -0.0205 C.2       1 <0>         0.5428
     24 O1          3.3998   -0.7196   -0.0338 O.2       1 <0>        -0.5363
     25 F1          7.2604    1.3938   -0.0600 F         1 <0>        -0.1343
     26 H3         -0.4115    6.8833   -2.0824 H         1 <0>         0.0650
     27 H4         -0.5315    8.5004   -1.3483 H         1 <0>         0.0730
     28 H5          1.0659    7.7682   -1.6323 H         1 <0>         0.0547
     29 H6         -1.4974    6.1963    1.4114 H         1 <0>         0.0620
     30 H7         -2.0283    7.5824    0.4291 H         1 <0>         0.0642
     31 H8         -1.9084    5.9653   -0.3050 H         1 <0>         0.0701
     32 H9          1.6428    8.0923    0.7770 H         1 <0>         0.0535
     33 H10         0.0454    8.8245    1.0609 H         1 <0>         0.0757
     34 H11         0.5764    7.4384    2.0432 H         1 <0>         0.0638
     35 H12         4.9335    5.2351   -0.0195 H         1 <0>         0.1298
     36 H13         7.0282    3.9897   -0.0443 H         1 <0>         0.1393
     37 H14         4.9085    0.2852   -0.0418 H         1 <0>         0.1812
     38 H15        -0.9571    1.8725    0.0168 H         1 <0>         0.1577
     39 H16        -0.9330   -0.5444    0.0080 H         1 <0>         0.1706
@<TRIPOS>BOND
     1    1    2 1
     2    1   26 1
     3    1   27 1
     4    1   28 1
     5    2    3 1
     6    2    4 1
     7    2    5 1
     8    3   29 1
     9    3   30 1
    10    3   31 1
    11    4   32 1
    12    4   33 1
    13    4   34 1
    14    5   18 2
    15    5    6 1
    16    6    7 1
    17    6    8 1
    18    8   17 ar
    19    8    9 ar
    20    9   14 ar
    21    9   10 ar
    22   10   11 ar
    23   10   35 1
    24   11   12 ar
    25   11   36 1
    26   12   13 ar
    27   12   25 1
    28   13   14 ar
    29   13   37 1
    30   14   15 ar
    31   15   23 1
    32   15   16 ar
    33   16   17 ar
    34   16   19 1
    35   17   18 1
    36   19   20 2
    37   19   38 1
    38   20   21 1
    39   20   39 1
    40   21   22 1
    41   21   23 am
    42   23   24 2
@<TRIPOS>MOLECULE
ZINC16697102
   68    71     0     0     0
SMALL
USER_CHARGES

@<TRIPOS>ATOM
      1 C1          0.1414    1.0953    0.0252 C.3       1 <0>        -0.1879
      2 C2          0.0344   -0.4077    0.2904 C.3       1 <0>        -0.0179
      3 N1         -1.3805   -0.7845    0.4095 N.4       1 <0>        -0.3831
      4 C3         -1.4799   -2.1986    0.7946 C.3       1 <0>        -0.0114
      5 C4         -0.8914   -2.3887    2.1940 C.3       1 <0>        -0.1507
      6 C5         -0.9950   -3.8615    2.5951 C.3       1 <0>         0.0609
      7 O1         -0.4452   -4.0391    3.9021 O.3       1 <0>        -0.3065
      8 C6         -0.4595   -5.2979    4.4111 C.ar      1 <0>         0.1651
      9 C7         -0.9928   -6.3439    3.6526 C.ar      1 <0>        -0.2107
     10 C8         -1.0196   -7.6158    4.1389 C.ar      1 <0>        -0.0238
     11 C9         -0.5074   -7.8823    5.4144 C.ar      1 <0>        -0.2178
     12 C10         0.0354   -6.8287    6.1913 C.ar      1 <0>         0.2289
     13 C11         0.0571   -5.5307    5.6679 C.ar      1 <0>        -0.1455
     14 N2          0.5204   -7.1100    7.4103 N.ar      1 <0>        -0.5500
     15 C12         0.4909   -8.3384    7.8707 C.ar      1 <0>         0.3626
     16 N3         -0.0056   -9.3531    7.1820 N.ar      1 <0>        -0.5775
     17 C13        -0.5106   -9.1853    5.9662 C.ar      1 <0>         0.4884
     18 N4         -1.0254  -10.2523    5.2597 N.pl3     1 <0>        -0.5978
     19 C14        -1.0192  -11.5341    5.8239 C.2       1 <0>         0.2990
     20 C15        -0.5280  -11.8736    7.0950 C.2       1 <0>        -0.2355
     21 C16        -0.7031  -13.2037    7.2657 C.2       1 <0>         0.1068
     22 N5         -1.2824  -13.6919    6.1487 N.pl3     1 <0>        -0.4559
     23 H1         -1.5251  -14.6176    5.9907 H         1 <0>         0.4419
     24 N6         -1.4765  -12.6271    5.2595 N.2       1 <0>        -0.3116
     25 C17        -0.3191  -13.9996    8.4864 C.3       1 <0>        -0.0770
     26 C18        -1.4265  -13.9219    9.5056 C.2       1 <0>         0.5143
     27 O2         -2.4289  -13.2831    9.2644 O.2       1 <0>        -0.5002
     28 N7         -1.3030  -14.5622   10.6851 N.am      1 <0>        -0.6720
     29 C19        -2.2828  -14.4064   11.6717 C.ar      1 <0>         0.1711
     30 C20        -1.9219  -14.3818   13.0129 C.ar      1 <0>        -0.1532
     31 C21        -2.8902  -14.2274   13.9854 C.ar      1 <0>        -0.0700
     32 C22        -4.2191  -14.0976   13.6262 C.ar      1 <0>        -0.1667
     33 C23        -4.5833  -14.1215   12.2902 C.ar      1 <0>         0.1178
     34 C24        -3.6165  -14.2702   11.3118 C.ar      1 <0>        -0.1591
     35 F1         -5.8825  -13.9949   11.9421 F         1 <0>        -0.1354
     36 C25        -2.0519   -0.5800   -0.8810 C.3       1 <0>        -0.0098
     37 C26        -3.5535   -0.8247   -0.7191 C.3       1 <0>         0.0446
     38 O3         -4.1050    0.1610    0.1562 O.3       1 <0>        -0.5793
     39 H2          1.1903    1.3917    0.0323 H         1 <0>         0.1072
     40 H3         -0.2944    1.3246   -0.9472 H         1 <0>         0.0804
     41 H4         -0.3955    1.6404    0.8016 H         1 <0>         0.0817
     42 H5          0.4880   -0.9556   -0.5355 H         1 <0>         0.1307
     43 H6          0.5544   -0.6511    1.2170 H         1 <0>         0.1338
     44 H7         -2.5269   -2.5019    0.7965 H         1 <0>         0.1336
     45 H8         -0.9261   -2.8092    0.0814 H         1 <0>         0.1348
     46 H9          0.1556   -2.0854    2.1921 H         1 <0>         0.1011
     47 H10        -1.4452   -1.7781    2.9071 H         1 <0>         0.1012
     48 H11        -2.0419   -4.1648    2.5970 H         1 <0>         0.0752
     49 H12        -0.4411   -4.4721    1.8820 H         1 <0>         0.0757
     50 H13        -1.3888   -6.1408    2.6686 H         1 <0>         0.1349
     51 H14        -1.4346   -8.4154    3.5432 H         1 <0>         0.1334
     52 H15         0.4712   -4.7175    6.2456 H         1 <0>         0.1508
     53 H16         0.8901   -8.5298    8.8558 H         1 <0>         0.2027
     54 H17        -1.3916  -10.1149    4.3721 H         1 <0>         0.4252
     55 H18        -0.0885  -11.1933    7.8093 H         1 <0>         0.1852
     56 H19        -0.1563  -15.0401    8.2054 H         1 <0>         0.1142
     57 H20         0.5968  -13.5910    8.9133 H         1 <0>         0.1312
     58 H21        -0.5348  -15.1312   10.8499 H         1 <0>         0.4166
     59 H22        -0.8844  -14.4838   13.2950 H         1 <0>         0.1350
     60 H23        -2.6091  -14.2084   15.0280 H         1 <0>         0.1399
     61 H24        -4.9744  -13.9777   14.3888 H         1 <0>         0.1383
     62 H25        -3.8995  -14.2849   10.2696 H         1 <0>         0.1494
     63 H26        -1.8848    0.4425   -1.2196 H         1 <0>         0.1421
     64 H27        -1.6474   -1.2765   -1.6154 H         1 <0>         0.1431
     65 H28        -4.0394   -0.7588   -1.6926 H         1 <0>         0.0960
     66 H29        -3.7166   -1.8167   -0.2980 H         1 <0>         0.0707
     67 H30        -5.0389    0.0226    0.3657 H         1 <0>         0.4093
     68 H31        -1.8228   -0.2123    1.1131 H         1 <0>         0.4316
@<TRIPOS>BOND
     1    1    2 1
     2    1   39 1
     3    1   40 1
     4    1   41 1
     5    2    3 1
     6    2   42 1
     7    2   43 1
     8    3    4 1
     9    3   36 1
    10    3   68 1
    11    4    5 1
    12    4   44 1
    13    4   45 1
    14    5    6 1
    15    5   46 1
    16    5   47 1
    17    6    7 1
    18    6   48 1
    19    6   49 1
    20    7    8 1
    21    8   13 ar
    22    8    9 ar
    23    9   10 ar
    24    9   50 1
    25   10   11 ar
    26   10   51 1
    27   11   17 ar
    28   11   12 ar
    29   12   13 ar
    30   12   14 ar
    31   13   52 1
    32   14   15 ar
    33   15   16 ar
    34   15   53 1
    35   16   17 ar
    36   17   18 1
    37   18   19 1
    38   18   54 1
    39   19   24 2
    40   19   20 1
    41   20   21 2
    42   20   55 1
    43   21   22 1
    44   21   25 1
    45   22   23 1
    46   22   24 1
    47   25   26 1
    48   25   56 1
    49   25   57 1
    50   26   27 2
    51   26   28 am
    52   28   29 1
    53   28   58 1
    54   29   34 ar
    55   29   30 ar
    56   30   31 ar
    57   30   59 1
    58   31   32 ar
    59   31   60 1
    60   32   33 ar
    61   32   61 1
    62   33   34 ar
    63   33   35 1
    64   34   62 1
    65   36   37 1
    66   36   63 1
    67   36   64 1
    68   37   38 1
    69   37   65 1
    70   37   66 1
    71   38   67 1
@<TRIPOS>MOLECULE
ZINC16697102
   68    71     0     0     0
SMALL
USER_CHARGES

@<TRIPOS>ATOM
      1 C1          0.1009    1.0895    0.0671 C.3       1 <0>        -0.1880
      2 C2          0.0005   -0.4150    0.3267 C.3       1 <0>        -0.0178
      3 N1         -1.4127   -0.7982    0.4447 N.4       1 <0>        -0.3831
      4 C3         -1.5060   -2.2142    0.8244 C.3       1 <0>        -0.0114
      5 C4         -0.9163   -2.4070    2.2230 C.3       1 <0>        -0.1510
      6 C5         -1.0135   -3.8818    2.6185 C.3       1 <0>         0.0610
      7 O1         -0.4626   -4.0619    3.9247 O.3       1 <0>        -0.3058
      8 C6         -0.4714   -5.3227    4.4290 C.ar      1 <0>         0.1652
      9 C7         -1.0003   -6.3681    3.6667 C.ar      1 <0>        -0.2079
     10 C8         -1.0216   -7.6420    4.1481 C.ar      1 <0>        -0.0271
     11 C9         -0.5079   -7.9111    5.4225 C.ar      1 <0>        -0.2157
     12 C10         0.0306   -6.8581    6.2032 C.ar      1 <0>         0.2279
     13 C11         0.0466   -5.5580    5.6848 C.ar      1 <0>        -0.1434
     14 N2          0.5172   -7.1419    7.4211 N.ar      1 <0>        -0.5462
     15 C12         0.4930   -8.3722    7.8768 C.ar      1 <0>         0.3627
     16 N3          0.0007   -9.3864    7.1844 N.ar      1 <0>        -0.5729
     17 C13        -0.5054   -9.2161    5.9694 C.ar      1 <0>         0.4842
     18 N4         -1.0159  -10.2829    5.2588 N.pl3     1 <0>        -0.6133
     19 C14        -1.0041  -11.5601    5.8152 C.2       1 <0>         0.2975
     20 C15        -0.5278  -11.8985    7.0451 C.2       1 <0>        -0.2522
     21 C16        -0.7053  -13.2747    7.2096 C.2       1 <0>         0.0931
     22 N5         -1.2647  -13.7522    6.1276 N.2       1 <0>        -0.2441
     23 N6         -1.4709  -12.6946    5.2325 N.pl3     1 <0>        -0.4898
     24 H1         -1.8732  -12.7611    4.3523 H         1 <0>         0.4364
     25 C17        -0.3175  -14.0738    8.4270 C.3       1 <0>        -0.0571
     26 C18        -1.5188  -14.8275    8.9368 C.2       1 <0>         0.5153
     27 O2         -2.5849  -14.7257    8.3676 O.2       1 <0>        -0.4982
     28 N7         -1.4084  -15.6146   10.0253 N.am      1 <0>        -0.6749
     29 C19        -2.5443  -16.2321   10.5602 C.ar      1 <0>         0.1739
     30 C20        -2.6655  -16.3952   11.9344 C.ar      1 <0>        -0.1553
     31 C21        -3.7876  -17.0044   12.4607 C.ar      1 <0>        -0.0709
     32 C22        -4.7909  -17.4530   11.6216 C.ar      1 <0>        -0.1690
     33 C23        -4.6742  -17.2924   10.2511 C.ar      1 <0>         0.1173
     34 C24        -3.5547  -16.6775    9.7191 C.ar      1 <0>        -0.1594
     35 F1         -5.6558  -17.7320    9.4336 F         1 <0>        -0.1360
     36 C25        -2.0854   -0.5918   -0.8449 C.3       1 <0>        -0.0099
     37 C26        -3.5858   -0.8435   -0.6835 C.3       1 <0>         0.0446
     38 O3         -4.1414    0.1365    0.1957 O.3       1 <0>        -0.5792
     39 H2          1.1486    1.3904    0.0751 H         1 <0>         0.1074
     40 H3         -0.3361    1.3206   -0.9043 H         1 <0>         0.0805
     41 H4         -0.4380    1.6293    0.8457 H         1 <0>         0.0817
     42 H5          0.4562   -0.9578   -0.5014 H         1 <0>         0.1308
     43 H6          0.5217   -0.6596    1.2522 H         1 <0>         0.1337
     44 H7         -2.5517   -2.5220    0.8255 H         1 <0>         0.1335
     45 H8         -0.9498   -2.8197    0.1089 H         1 <0>         0.1347
     46 H9          0.1294   -2.0993    2.2220 H         1 <0>         0.1014
     47 H10        -1.4725   -1.8015    2.9385 H         1 <0>         0.1015
     48 H11        -2.0591   -4.1896    2.6196 H         1 <0>         0.0752
     49 H12        -0.4572   -4.4873    1.9030 H         1 <0>         0.0757
     50 H13        -1.3975   -6.1630    2.6836 H         1 <0>         0.1354
     51 H14        -1.4333   -8.4411    3.5496 H         1 <0>         0.1313
     52 H15         0.4574   -4.7453    6.2654 H         1 <0>         0.1520
     53 H16         0.8932   -8.5656    8.8611 H         1 <0>         0.2055
     54 H17        -1.3830  -10.1437    4.3718 H         1 <0>         0.4209
     55 H18        -0.0902  -11.2232    7.7655 H         1 <0>         0.1880
     56 H19         0.4693  -14.7803    8.1624 H         1 <0>         0.1181
     57 H20         0.0452  -13.4002    9.2034 H         1 <0>         0.1229
     58 H21        -0.5415  -15.7530   10.4378 H         1 <0>         0.4158
     59 H22        -1.8824  -16.0460   12.5909 H         1 <0>         0.1343
     60 H23        -3.8814  -17.1310   13.5291 H         1 <0>         0.1388
     61 H24        -5.6670  -17.9297   12.0358 H         1 <0>         0.1372
     62 H25        -3.4650  -16.5484    8.6506 H         1 <0>         0.1513
     63 H26        -1.9227    0.4328   -1.1796 H         1 <0>         0.1424
     64 H27        -1.6780   -1.2838   -1.5820 H         1 <0>         0.1432
     65 H28        -4.0723   -0.7760   -1.6566 H         1 <0>         0.0961
     66 H29        -3.7446   -1.8378   -0.2661 H         1 <0>         0.0704
     67 H30        -5.0746   -0.0067    0.4048 H         1 <0>         0.4093
     68 H31        -1.8573   -0.2307    1.1505 H         1 <0>         0.4316
@<TRIPOS>BOND
     1    1    2 1
     2    1   39 1
     3    1   40 1
     4    1   41 1
     5    2    3 1
     6    2   42 1
     7    2   43 1
     8    3    4 1
     9    3   36 1
    10    3   68 1
    11    4    5 1
    12    4   44 1
    13    4   45 1
    14    5    6 1
    15    5   46 1
    16    5   47 1
    17    6    7 1
    18    6   48 1
    19    6   49 1
    20    7    8 1
    21    8   13 ar
    22    8    9 ar
    23    9   10 ar
    24    9   50 1
    25   10   11 ar
    26   10   51 1
    27   11   17 ar
    28   11   12 ar
    29   12   13 ar
    30   12   14 ar
    31   13   52 1
    32   14   15 ar
    33   15   16 ar
    34   15   53 1
    35   16   17 ar
    36   17   18 1
    37   18   19 1
    38   18   54 1
    39   19   23 1
    40   19   20 2
    41   20   21 1
    42   20   55 1
    43   21   22 2
    44   21   25 1
    45   22   23 1
    46   23   24 1
    47   25   26 1
    48   25   56 1
    49   25   57 1
    50   26   27 2
    51   26   28 am
    52   28   29 1
    53   28   58 1
    54   29   34 ar
    55   29   30 ar
    56   30   31 ar
    57   30   59 1
    58   31   32 ar
    59   31   60 1
    60   32   33 ar
    61   32   61 1
    62   33   34 ar
    63   33   35 1
    64   34   62 1
    65   36   37 1
    66   36   63 1
    67   36   64 1
    68   37   38 1
    69   37   65 1
    70   37   66 1
    71   38   67 1
@<TRIPOS>MOLECULE
ZINC06718813
   46    49     0     0     0
SMALL
USER_CHARGES
3-[4-(3-amino-1H-indazol-4-yl)phenyl]-1-(2-fluoro-5-methyl-phenyl)urea
@<TRIPOS>ATOM
      1 C1          6.9492   -0.6708   -4.4566 C.3       1 <0>        -0.1151
      2 C2          7.3188   -0.0066   -3.1554 C.ar      1 <0>        -0.0747
      3 C3          8.6152   -0.0905   -2.6815 C.ar      1 <0>        -0.1060
      4 C4          8.9590    0.5169   -1.4879 C.ar      1 <0>        -0.1295
      5 C5          8.0061    1.2101   -0.7639 C.ar      1 <0>         0.0645
      6 C6          6.7020    1.2957   -1.2387 C.ar      1 <0>         0.1336
      7 C7          6.3607    0.6802   -2.4351 C.ar      1 <0>        -0.0953
      8 N1          5.7336    1.9963   -0.5085 N.am      1 <0>        -0.6783
      9 C8          4.4547    1.5712   -0.5040 C.2       1 <0>         0.7069
     10 O1          4.1265    0.6239   -1.1921 O.2       1 <0>        -0.5500
     11 N2          3.5395    2.1961    0.2631 N.am      1 <0>        -0.6801
     12 C9          2.2409    1.6865    0.3572 C.ar      1 <0>         0.1677
     13 C10         1.1632    2.5541    0.4899 C.ar      1 <0>        -0.1430
     14 C11        -0.1180    2.0545    0.5834 C.ar      1 <0>        -0.0892
     15 C12        -0.3326    0.6766    0.5442 C.ar      1 <0>        -0.0682
     16 C13         0.7509   -0.1919    0.4104 C.ar      1 <0>        -0.0779
     17 C14         2.0300    0.3132    0.3174 C.ar      1 <0>        -0.1142
     18 C15        -1.7083    0.1367    0.6449 C.ar      1 <0>         0.0376
     19 C16        -2.0347   -0.7648    1.6483 C.ar      1 <0>        -0.1557
     20 C17        -3.3230   -1.2675    1.7456 C.ar      1 <0>        -0.0592
     21 C18        -4.2968   -0.8911    0.8473 C.ar      1 <0>        -0.1529
     22 C19        -3.9969    0.0086   -0.1734 C.ar      1 <0>         0.1547
     23 C20        -2.6946    0.5292   -0.2801 C.ar      1 <0>        -0.1858
     24 C21        -2.7034    1.4283   -1.4324 C.2       1 <0>         0.3642
     25 N3         -3.9099    1.4169   -1.9352 N.2       1 <0>        -0.3205
     26 N4         -4.7292    0.5606   -1.1926 N.pl3     1 <0>        -0.5119
     27 H1         -5.6955    0.3797   -1.3759 H         1 <0>         0.4473
     28 N5         -1.6172    2.1667   -1.9108 N.pl3     1 <0>        -0.8360
     29 F1          8.3418    1.8036    0.4023 F         1 <0>        -0.1384
     30 H2          6.6188   -1.6912   -4.2627 H         1 <0>         0.0755
     31 H3          6.1436   -0.1125   -4.9335 H         1 <0>         0.0695
     32 H4          7.8178   -0.6890   -5.1149 H         1 <0>         0.0704
     33 H5          9.3607   -0.6319   -3.2448 H         1 <0>         0.1352
     34 H6          9.9724    0.4496   -1.1204 H         1 <0>         0.1410
     35 H7          5.3477    0.7413   -2.8045 H         1 <0>         0.1523
     36 H8          5.9835    2.7876   -0.0061 H         1 <0>         0.4118
     37 H9          3.7818    2.9993    0.7499 H         1 <0>         0.4106
     38 H10         1.3298    3.6208    0.5203 H         1 <0>         0.1310
     39 H11        -0.9554    2.7293    0.6824 H         1 <0>         0.1315
     40 H12         0.5876   -1.2590    0.3794 H         1 <0>         0.1314
     41 H13         2.8692   -0.3587    0.2138 H         1 <0>         0.1391
     42 H14        -1.2822   -1.0738    2.3586 H         1 <0>         0.1292
     43 H15        -3.5651   -1.9655    2.5334 H         1 <0>         0.1325
     44 H16        -5.2951   -1.2940    0.9345 H         1 <0>         0.1278
     45 H17        -0.7342    2.0309   -1.5329 H         1 <0>         0.4118
     46 H18        -1.7465    2.8151   -2.6206 H         1 <0>         0.4050
@<TRIPOS>BOND
     1    1    2 1
     2    1   30 1
     3    1   31 1
     4    1   32 1
     5    2    7 ar
     6    2    3 ar
     7    3    4 ar
     8    3   33 1
     9    4    5 ar
    10    4   34 1
    11    5    6 ar
    12    5   29 1
    13    6    7 ar
    14    6    8 1
    15    7   35 1
    16    8    9 am
    17    8   36 1
    18    9   10 2
    19    9   11 am
    20   11   12 1
    21   11   37 1
    22   12   17 ar
    23   12   13 ar
    24   13   14 ar
    25   13   38 1
    26   14   15 ar
    27   14   39 1
    28   15   16 ar
    29   15   18 1
    30   16   17 ar
    31   16   40 1
    32   17   41 1
    33   18   23 ar
    34   18   19 ar
    35   19   20 ar
    36   19   42 1
    37   20   21 ar
    38   20   43 1
    39   21   22 ar
    40   21   44 1
    41   22   26 1
    42   22   23 ar
    43   23   24 1
    44   24   25 2
    45   24   28 1
    46   25   26 1
    47   26   27 1
    48   28   45 1
    49   28   46 1
@<TRIPOS>MOLECULE
ZINC28704669
   58    61     0     0     0
SMALL
USER_CHARGES
3-[5-[(Z)-[6-(3,5-dimethoxyphenyl)-2-oxo-indolin-3-ylidene]methyl]-2,4-dimethyl-1H-pyrrol-3-yl]propanoic acid
@<TRIPOS>ATOM
      1 C1         -0.1792    2.2943    0.0726 C.3       1 <0>        -0.0930
      2 C2         -0.8087    1.8468    1.3666 C.2       1 <0>        -0.0858
      3 C3         -2.1656    1.6059    1.5898 C.2       1 <0>        -0.1608
      4 C4         -2.3149    1.2182    2.8810 C.2       1 <0>         0.0640
      5 N1         -1.0994    1.2151    3.4840 N.pl3     1 <0>        -0.5195
      6 H1         -1.0115    0.9309    4.5430 H         1 <0>         0.4399
      7 C5         -0.1503    1.6021    2.5622 C.2       1 <0>        -0.0243
      8 C6          1.2351    1.7264    2.7927 C.2       1 <0>         0.1051
      9 C7          1.6959    2.1361    4.0299 C.2       1 <0>        -0.2353
     10 C8          3.0979    2.1738    4.5000 C.ar      1 <0>        -0.0756
     11 C9          4.3125    1.8521    3.8990 C.ar      1 <0>        -0.0736
     12 C10         5.4870    2.0028    4.6020 C.ar      1 <0>        -0.1201
     13 C11         5.4590    2.4831    5.9128 C.ar      1 <0>        -0.0287
     14 C12         4.2489    2.8121    6.5157 C.ar      1 <0>        -0.1202
     15 C13         3.0604    2.6636    5.8140 C.ar      1 <0>         0.1331
     16 N2          1.7402    2.9130    6.1701 N.am      1 <0>        -0.6654
     17 C14         0.8987    2.6219    5.1637 C.2       1 <0>         0.5638
     18 O1         -0.3135    2.7400    5.1877 O.2       1 <0>        -0.5148
     19 C15         6.7262    2.6439    6.6664 C.ar      1 <0>         0.0398
     20 C16         6.7050    3.1286    7.9726 C.ar      1 <0>        -0.1807
     21 C17         7.8901    3.2726    8.6757 C.ar      1 <0>         0.1681
     22 C18         9.0978    2.9453    8.0769 C.ar      1 <0>        -0.2989
     23 C19         9.1229    2.4675    6.7748 C.ar      1 <0>         0.1687
     24 C20         7.9410    2.3161    6.0679 C.ar      1 <0>        -0.1783
     25 O2         10.3082    2.1480    6.1917 O.3       1 <0>        -0.3121
     26 C21        11.4876    2.3286    6.9781 C.3       1 <0>         0.0233
     27 O3          7.8698    3.7400    9.9517 O.3       1 <0>        -0.3131
     28 C22         9.1287    3.8687   10.6155 C.3       1 <0>         0.0234
     29 C23        -3.6204    0.8563    3.5409 C.3       1 <0>        -0.0902
     30 C24        -3.2696    1.7485    0.5740 C.3       1 <0>        -0.0298
     31 C25        -3.4629    0.4196   -0.1591 C.3       1 <0>        -0.1464
     32 C26        -4.5669    0.5622   -1.1749 C.2       1 <0>         0.4580
     33 O4         -5.1404    1.6183   -1.2996 O.co2     1 <0>        -0.6424
     34 O5         -4.9133   -0.4841   -1.9410 O.co2     1 <0>        -0.7802
     35 H2         -0.9586    2.4031   -0.6959 H         1 <0>         0.0755
     36 H3          0.5570    1.5456   -0.2552 H         1 <0>         0.0652
     37 H4          0.3235    3.2608    0.2244 H         1 <0>         0.0622
     38 H5          1.9493    1.4974    1.9880 H         1 <0>         0.1517
     39 H6          4.3327    1.4803    2.8852 H         1 <0>         0.1310
     40 H7          6.4295    1.7492    4.1397 H         1 <0>         0.1328
     41 H8          4.2343    3.1834    7.5297 H         1 <0>         0.1295
     42 H9          1.5046    3.3001    7.1724 H         1 <0>         0.4383
     43 H10         5.7655    3.3878    8.4378 H         1 <0>         0.1356
     44 H11        10.0207    3.0631    8.6254 H         1 <0>         0.1342
     45 H12         7.9612    1.9447    5.0540 H         1 <0>         0.1385
     46 H13        12.3692    2.0345    6.3897 H         1 <0>         0.1040
     47 H14        11.4249    1.7044    7.8817 H         1 <0>         0.0558
     48 H15        11.5764    3.3859    7.2683 H         1 <0>         0.0559
     49 H16         8.9688    4.2544   11.6332 H         1 <0>         0.1036
     50 H17         9.7689    4.5661   10.0554 H         1 <0>         0.0561
     51 H18         9.6173    2.8846   10.6689 H         1 <0>         0.0561
     52 H19        -3.4371    0.5818    4.5902 H         1 <0>         0.0595
     53 H20        -4.0744    0.0047    3.0130 H         1 <0>         0.0823
     54 H21        -4.3026    1.7183    3.5011 H         1 <0>         0.0820
     55 H22        -4.2040    2.0250    1.0844 H         1 <0>         0.0647
     56 H23        -3.0021    2.5316   -0.1508 H         1 <0>         0.0670
     57 H24        -2.5285    0.1431   -0.6695 H         1 <0>         0.0615
     58 H25        -3.7304   -0.3635    0.5656 H         1 <0>         0.0592
@<TRIPOS>BOND
     1    1    2 1
     2    1   35 1
     3    1   36 1
     4    1   37 1
     5    2    7 2
     6    2    3 1
     7    3    4 2
     8    3   30 1
     9    4    5 1
    10    4   29 1
    11    5    6 1
    12    5    7 1
    13    7    8 1
    14    8    9 2
    15    8   38 1
    16    9   17 1
    17    9   10 1
    18   10   15 ar
    19   10   11 ar
    20   11   12 ar
    21   11   39 1
    22   12   13 ar
    23   12   40 1
    24   13   14 ar
    25   13   19 1
    26   14   15 ar
    27   14   41 1
    28   15   16 1
    29   16   17 am
    30   16   42 1
    31   17   18 2
    32   19   24 ar
    33   19   20 ar
    34   20   21 ar
    35   20   43 1
    36   21   22 ar
    37   21   27 1
    38   22   23 ar
    39   22   44 1
    40   23   24 ar
    41   23   25 1
    42   24   45 1
    43   25   26 1
    44   26   46 1
    45   26   47 1
    46   26   48 1
    47   27   28 1
    48   28   49 1
    49   28   50 1
    50   28   51 1
    51   29   52 1
    52   29   53 1
    53   29   54 1
    54   30   31 1
    55   30   55 1
    56   30   56 1
    57   31   32 1
    58   31   57 1
    59   31   58 1
    60   32   33 2
    61   32   34 1
@<TRIPOS>MOLECULE
ZINC03834198
   55    58     0     0     0
SMALL
USER_CHARGES

@<TRIPOS>ATOM
      1 C1          2.2102    1.3214   -1.5438 C.3       1 <0>        -0.0473
      2 N1          2.0302   -0.1310   -1.4177 N.4       1 <0>        -0.3861
      3 C2          2.8485   -0.8135   -2.4272 C.3       1 <0>        -0.0039
      4 C3          2.6029   -2.3220   -2.3537 C.3       1 <0>        -0.1426
      5 C4          2.9828   -2.8281   -0.9591 C.3       1 <0>        -0.0980
      6 C5          2.1768   -2.0570    0.0901 C.3       1 <0>        -0.1436
      7 C6          2.4382   -0.5583   -0.0740 C.3       1 <0>        -0.0065
      8 C7          2.6653   -4.3210   -0.8526 C.3       1 <0>         0.0553
      9 O1          3.1265   -4.8175    0.4056 O.3       1 <0>        -0.2959
     10 C8          2.9210   -6.1358    0.6612 C.ar      1 <0>         0.1621
     11 C9          2.2972   -6.9233   -0.2811 C.ar      1 <0>        -0.1791
     12 C10         2.0867   -8.2816   -0.0149 C.ar      1 <0>         0.2018
     13 C11         2.5192   -8.8246    1.2204 C.ar      1 <0>        -0.1784
     14 C12         3.1508   -8.0026    2.1612 C.ar      1 <0>        -0.1424
     15 C13         3.3512   -6.6812    1.8787 C.ar      1 <0>         0.1099
     16 O2          3.9702   -5.8850    2.7909 O.3       1 <0>        -0.3030
     17 C14         4.3854   -6.4992    4.0125 C.3       1 <0>         0.0198
     18 C15         2.2930  -10.2009    1.4605 C.ar      1 <0>         0.4667
     19 N2          1.6881  -10.9114    0.5174 N.ar      1 <0>        -0.5768
     20 C16         1.3012  -10.3606   -0.6222 C.ar      1 <0>         0.3478
     21 N3          1.4842   -9.0917   -0.8996 N.ar      1 <0>        -0.5414
     22 N4          2.6915  -10.7885    2.6441 N.pl3     1 <0>        -0.6296
     23 C17         2.5831  -12.1741    2.8088 C.ar      1 <0>         0.1376
     24 C18         2.4560  -12.9987    1.6992 C.ar      1 <0>        -0.1039
     25 C19         2.3491  -14.3660    1.8644 C.ar      1 <0>        -0.0732
     26 C20         2.3685  -14.9152    3.1341 C.ar      1 <0>        -0.0857
     27 C21         2.4949  -14.0974    4.2430 C.ar      1 <0>        -0.1007
     28 C22         2.6081  -12.7284    4.0841 C.ar      1 <0>         0.0686
     29 F1          2.7372  -11.9301    5.1664 F         1 <0>        -0.1332
     30 Br1         2.2212  -16.7875    3.3546 Br        1 <0>        -0.0295
     31 H1          3.2589    1.5727   -1.3848 H         1 <0>         0.1219
     32 H2          1.9075    1.6398   -2.5414 H         1 <0>         0.1242
     33 H3          1.5979    1.8295   -0.7989 H         1 <0>         0.1242
     34 H4          2.5792   -0.4499   -3.4189 H         1 <0>         0.1343
     35 H5          3.9024   -0.6078   -2.2397 H         1 <0>         0.1306
     36 H6          1.5493   -2.5288   -2.5414 H         1 <0>         0.0934
     37 H7          3.2127   -2.8271   -3.1028 H         1 <0>         0.1176
     38 H8          4.0478   -2.6678   -0.7908 H         1 <0>         0.1030
     39 H9          1.1143   -2.2583   -0.0469 H         1 <0>         0.0893
     40 H10         2.4820   -2.3726    1.0878 H         1 <0>         0.1210
     41 H11         3.5008   -0.3580    0.0634 H         1 <0>         0.1299
     42 H12         1.8660   -0.0063    0.6716 H         1 <0>         0.1325
     43 H13         1.5883   -4.4698   -0.9292 H         1 <0>         0.0742
     44 H14         3.1645   -4.8571   -1.6597 H         1 <0>         0.0787
     45 H15         1.9724   -6.4960   -1.2182 H         1 <0>         0.1540
     46 H16         3.4818   -8.4122    3.1042 H         1 <0>         0.1414
     47 H17         4.8638   -5.7549    4.6491 H         1 <0>         0.1093
     48 H18         3.5165   -6.9116    4.5254 H         1 <0>         0.0597
     49 H19         5.0925   -7.2996    3.7947 H         1 <0>         0.0600
     50 H20         0.8133  -10.9840   -1.3569 H         1 <0>         0.2036
     51 H21         3.0467  -10.2411    3.3618 H         1 <0>         0.4241
     52 H22         2.4404  -12.5714    0.7074 H         1 <0>         0.1818
     53 H23         2.2499  -15.0072    1.0010 H         1 <0>         0.1463
     54 H24         2.5094  -14.5289    5.2329 H         1 <0>         0.1515
     55 H25         1.0589   -0.3624   -1.5626 H         1 <0>         0.4246
@<TRIPOS>BOND
     1    1    2 1
     2    1   31 1
     3    1   32 1
     4    1   33 1
     5    2    7 1
     6    2    3 1
     7    2   55 1
     8    3    4 1
     9    3   34 1
    10    3   35 1
    11    4    5 1
    12    4   36 1
    13    4   37 1
    14    5    6 1
    15    5    8 1
    16    5   38 1
    17    6    7 1
    18    6   39 1
    19    6   40 1
    20    7   41 1
    21    7   42 1
    22    8    9 1
    23    8   43 1
    24    8   44 1
    25    9   10 1
    26   10   15 ar
    27   10   11 ar
    28   11   12 ar
    29   11   45 1
    30   12   21 ar
    31   12   13 ar
    32   13   14 ar
    33   13   18 ar
    34   14   15 ar
    35   14   46 1
    36   15   16 1
    37   16   17 1
    38   17   47 1
    39   17   48 1
    40   17   49 1
    41   18   19 ar
    42   18   22 1
    43   19   20 ar
    44   20   21 ar
    45   20   50 1
    46   22   23 1
    47   22   51 1
    48   23   28 ar
    49   23   24 ar
    50   24   25 ar
    51   24   52 1
    52   25   26 ar
    53   25   53 1
    54   26   27 ar
    55   26   30 1
    56   27   28 ar
    57   27   54 1
    58   28   29 1
@<TRIPOS>MOLECULE
ZINC06716957
   61    65     0     0     0
SMALL
USER_CHARGES
4-methyl-N-[3-(4-methylimidazol-1-yl)-5-(trifluoromethyl)phenyl]-3-[4-(3-pyridyl)pyrimidin-2-yl]amino-benzamide
@<TRIPOS>ATOM
      1 C1          4.8797   -3.9669    0.1547 C.3       1 <0>        -0.1225
      2 C2          3.5754   -4.7217    0.1669 C.ar      1 <0>        -0.0869
      3 C3          3.5795   -6.1039    0.1964 C.ar      1 <0>        -0.1014
      4 C4          2.3894   -6.8021    0.2020 C.ar      1 <0>        -0.1034
      5 C5          1.1753   -6.1126    0.1832 C.ar      1 <0>        -0.1270
      6 C6          1.1710   -4.7182    0.1589 C.ar      1 <0>        -0.0590
      7 C7          2.3724   -4.0259    0.1535 C.ar      1 <0>         0.1619
      8 N1          2.3736   -2.6277    0.1286 N.pl3     1 <0>        -0.6325
      9 C8          1.2893   -1.9432   -0.3959 C.ar      1 <0>         0.5614
     10 N2          0.3200   -2.6260   -0.9883 N.ar      1 <0>        -0.5534
     11 C9         -0.7320   -2.0090   -1.5021 C.ar      1 <0>         0.1977
     12 C10        -0.8164   -0.6303   -1.4172 C.ar      1 <0>        -0.2657
     13 C11         0.2206    0.0624   -0.7871 C.ar      1 <0>         0.2658
     14 N3          1.2507   -0.6239   -0.2975 N.ar      1 <0>        -0.5571
     15 C12         0.1772    1.5403   -0.6710 C.ar      1 <0>        -0.1169
     16 C13         1.2145    2.2342   -0.0406 C.ar      1 <0>        -0.0276
     17 C14         1.1266    3.6129    0.0420 C.ar      1 <0>        -0.1784
     18 C15         0.0258    4.2543   -0.4966 C.ar      1 <0>         0.1175
     19 N4         -0.9376    3.5726   -1.0856 N.ar      1 <0>        -0.4841
     20 C16        -0.8952    2.2604   -1.1934 C.ar      1 <0>         0.1340
     21 C17        -0.1012   -6.8583    0.1887 C.2       1 <0>         0.5673
     22 O1         -1.1570   -6.2560    0.1719 O.2       1 <0>        -0.5061
     23 N5         -0.0944   -8.2058    0.2122 N.am      1 <0>        -0.6669
     24 C18        -1.2963   -8.9130    0.1072 C.ar      1 <0>         0.1849
     25 C19        -1.4127  -10.1752    0.6766 C.ar      1 <0>        -0.1112
     26 C20        -2.6011  -10.8720    0.5773 C.ar      1 <0>        -0.1296
     27 C21        -3.6741  -10.3211   -0.0973 C.ar      1 <0>        -0.1084
     28 C22        -3.5624   -9.0626   -0.6729 C.ar      1 <0>         0.1652
     29 C23        -2.3721   -8.3576   -0.5706 C.ar      1 <0>        -0.1152
     30 N6         -4.6520   -8.5044   -1.3568 N.pl3     1 <0>        -0.4135
     31 C24        -4.6878   -7.2792   -1.9710 C.2       1 <0>        -0.0484
     32 C25        -5.9185   -7.1442   -2.5004 C.2       1 <0>         0.0096
     33 N7         -6.6190   -8.2532   -2.2203 N.2       1 <0>        -0.4758
     34 C26        -5.8695   -9.0779   -1.5408 C.2       1 <0>         0.1944
     35 C27        -6.4219   -5.9529   -3.2741 C.3       1 <0>        -0.0703
     36 C28        -2.7260  -12.2385    1.2004 C.3       1 <0>         0.5133
     37 F1         -2.3418  -13.2115    0.2714 F         1 <0>        -0.1709
     38 F2         -1.8981  -12.3154    2.3255 F         1 <0>        -0.1721
     39 F3         -4.0538  -12.4572    1.5826 F         1 <0>        -0.1717
     40 H1          5.1932   -3.7667    1.1793 H         1 <0>         0.0780
     41 H2          5.6404   -4.5642   -0.3479 H         1 <0>         0.0781
     42 H3          4.7488   -3.0240   -0.3761 H         1 <0>         0.0665
     43 H4          4.5175   -6.6391    0.2106 H         1 <0>         0.1366
     44 H5          2.3969   -7.8819    0.2212 H         1 <0>         0.1267
     45 H6          0.2351   -4.1794    0.1439 H         1 <0>         0.1656
     46 H7          3.1337   -2.1370    0.4786 H         1 <0>         0.4259
     47 H8         -1.5163   -2.5753   -1.9823 H         1 <0>         0.1768
     48 H9         -1.6642   -0.1022   -1.8280 H         1 <0>         0.1524
     49 H10         2.0625    1.7077    0.3717 H         1 <0>         0.1463
     50 H11         1.9093    4.1820    0.5216 H         1 <0>         0.1425
     51 H12        -0.0458    5.3301   -0.4343 H         1 <0>         0.1622
     52 H13        -1.7012    1.7376   -1.6869 H         1 <0>         0.1630
     53 H14         0.7441   -8.6851    0.3020 H         1 <0>         0.4178
     54 H15        -0.5744  -10.6101    1.2006 H         1 <0>         0.1488
     55 H16        -4.6008  -10.8701   -0.1765 H         1 <0>         0.1477
     56 H17        -2.2829   -7.3787   -1.0179 H         1 <0>         0.1618
     57 H18        -3.8832   -6.5605   -2.0210 H         1 <0>         0.1795
     58 H19        -6.1682  -10.0519   -1.1825 H         1 <0>         0.2113
     59 H20        -6.2142   -6.0943   -4.3347 H         1 <0>         0.0711
     60 H21        -7.4967   -5.8505   -3.1248 H         1 <0>         0.0731
     61 H22        -5.9187   -5.0522   -2.9223 H         1 <0>         0.0710
@<TRIPOS>BOND
     1    1    2 1
     2    1   40 1
     3    1   41 1
     4    1   42 1
     5    2    7 ar
     6    2    3 ar
     7    3    4 ar
     8    3   43 1
     9    4    5 ar
    10    4   44 1
    11    5    6 ar
    12    5   21 1
    13    6    7 ar
    14    6   45 1
    15    7    8 1
    16    8    9 1
    17    8   46 1
    18    9   14 ar
    19    9   10 ar
    20   10   11 ar
    21   11   12 ar
    22   11   47 1
    23   12   13 ar
    24   12   48 1
    25   13   14 ar
    26   13   15 1
    27   15   20 ar
    28   15   16 ar
    29   16   17 ar
    30   16   49 1
    31   17   18 ar
    32   17   50 1
    33   18   19 ar
    34   18   51 1
    35   19   20 ar
    36   20   52 1
    37   21   22 2
    38   21   23 am
    39   23   24 1
    40   23   53 1
    41   24   29 ar
    42   24   25 ar
    43   25   26 ar
    44   25   54 1
    45   26   27 ar
    46   26   36 1
    47   27   28 ar
    48   27   55 1
    49   28   29 ar
    50   28   30 1
    51   29   56 1
    52   30   34 1
    53   30   31 1
    54   31   32 2
    55   31   57 1
    56   32   33 1
    57   32   35 1
    58   33   34 2
    59   34   58 1
    60   35   59 1
    61   35   60 1
    62   35   61 1
    63   36   37 1
    64   36   38 1
    65   36   39 1
@<TRIPOS>MOLECULE
ZINC12355112
   41    43     0     0     0
SMALL
USER_CHARGES

@<TRIPOS>ATOM
      1 C1         -0.1028    1.0961   -0.3671 C.ar      1 <0>        -0.0514
      2 C2          0.1939    0.2453    0.6818 C.ar      1 <0>        -0.1484
      3 C3          1.4264   -0.3800    0.7402 C.ar      1 <0>         0.1639
      4 C4          2.3673   -0.1521   -0.2572 C.ar      1 <0>         0.0453
      5 C5          2.0653    0.7038   -1.3099 C.ar      1 <0>         0.1303
      6 C6          0.8305    1.3253   -1.3612 C.ar      1 <0>        -0.1508
      7 F1          2.9766    0.9287   -2.2816 F         1 <0>        -0.1242
      8 N1          3.6170   -0.7832   -0.2014 N.pl3     1 <0>        -0.5829
      9 C7          3.7027   -2.0774    0.1649 C.2       1 <0>         0.5287
     10 S1          2.2783   -2.9758    0.4732 S.2       1 <0>        -0.4610
     11 N2          4.9096   -2.6643    0.2886 N.pl3     1 <0>        -0.3704
     12 C8          5.1565   -3.9777    0.5555 C.2       1 <0>         0.6130
     13 N3          6.4609   -4.1414    0.5939 N.2       1 <0>        -0.5881
     14 C9          7.0702   -2.9726    0.3596 C.2       1 <0>         0.5344
     15 N4          6.1641   -2.0459    0.1621 N.2       1 <0>        -0.3900
     16 N5          8.4494   -2.7737    0.3248 N.pl3     1 <0>        -0.6253
     17 C10         9.3156   -3.8654    0.4276 C.ar      1 <0>         0.2308
     18 C11         8.9430   -5.1006   -0.0877 C.ar      1 <0>        -0.1475
     19 C12         9.8015   -6.1774    0.0157 C.ar      1 <0>         0.0049
     20 C13        11.0306   -6.0273    0.6313 C.ar      1 <0>        -0.6997
     21 C14        11.4044   -4.7993    1.1458 C.ar      1 <0>         0.0107
     22 C15        10.5534   -3.7167    1.0403 C.ar      1 <0>        -0.1718
     23 S2         12.1228   -7.4039    0.7609 S.o2      1 <0>         2.7036
     24 O1         12.9813   -7.1389    1.8619 O.2       1 <0>        -0.9640
     25 O2         11.3155   -8.5710    0.6881 O.2       1 <0>        -0.9611
     26 N6         13.0757   -7.4022   -0.5934 N.pl3     1 <0>        -1.2489
     27 N7          4.2074   -4.9604    0.7511 N.pl3     1 <0>        -0.7789
     28 F2          1.7155   -1.2107    1.7657 F         1 <0>        -0.0889
     29 H1         -1.0676    1.5793   -0.4122 H         1 <0>         0.1524
     30 H2         -0.5376    0.0691    1.4566 H         1 <0>         0.1538
     31 H3          0.5950    1.9905   -2.1789 H         1 <0>         0.1534
     32 H4          4.4206   -0.2887   -0.4264 H         1 <0>         0.4283
     33 H5          8.8079   -1.8774    0.2293 H         1 <0>         0.4322
     34 H6          7.9831   -5.2186   -0.5683 H         1 <0>         0.1467
     35 H7          9.5123   -7.1380   -0.3844 H         1 <0>         0.1464
     36 H8         12.3649   -4.6855    1.6262 H         1 <0>         0.1476
     37 H9         10.8481   -2.7567    1.4378 H         1 <0>         0.1386
     38 H10        13.9781   -7.7554   -0.5519 H         1 <0>         0.4215
     39 H11        12.7314   -7.0480   -1.4282 H         1 <0>         0.4170
     40 H12         3.2665   -4.7264    0.7830 H         1 <0>         0.4323
     41 H13         4.4811   -5.8849    0.8567 H         1 <0>         0.4174
@<TRIPOS>BOND
     1    1    6 ar
     2    1    2 ar
     3    1   29 1
     4    2    3 ar
     5    2   30 1
     6    3    4 ar
     7    3   28 1
     8    4    5 ar
     9    4    8 1
    10    5    6 ar
    11    5    7 1
    12    6   31 1
    13    8    9 1
    14    8   32 1
    15    9   10 2
    16    9   11 1
    17   11   15 1
    18   11   12 1
    19   12   13 2
    20   12   27 1
    21   13   14 1
    22   14   15 2
    23   14   16 1
    24   16   17 1
    25   16   33 1
    26   17   22 ar
    27   17   18 ar
    28   18   19 ar
    29   18   34 1
    30   19   20 ar
    31   19   35 1
    32   20   21 ar
    33   20   23 1
    34   21   22 ar
    35   21   36 1
    36   22   37 1
    37   23   24 2
    38   23   25 2
    39   23   26 1
    40   26   38 1
    41   26   39 1
    42   27   40 1
    43   27   41 1
@<TRIPOS>MOLECULE
ZINC03834032
   40    42     0     0     0
SMALL
USER_CHARGES
3-[2,4-dimethyl-5-[(2-oxoindolin-3-ylidene)methyl]-1H-pyrrol-3-yl]propanoic acid
@<TRIPOS>ATOM
      1 C1          2.3355    2.0608   -0.1114 C.3       1 <0>        -0.0903
      2 C2          0.8597    2.3235   -0.2670 C.2       1 <0>        -0.0813
      3 C3          0.2566    3.5618   -0.4946 C.2       1 <0>        -0.1584
      4 C4         -1.0833    3.3665   -0.5730 C.2       1 <0>         0.0723
      5 N1         -1.3469    2.0457   -0.4087 N.pl3     1 <0>        -0.5120
      6 H1         -2.2268    1.6378   -0.4247 H         1 <0>         0.4155
      7 C5         -0.1556    1.3809   -0.2113 C.2       1 <0>        -0.0360
      8 C6          0.0021   -0.0041    0.0020 C.2       1 <0>         0.1041
      9 C7         -0.9659   -0.7120    0.6886 C.2       1 <0>        -0.2329
     10 C8         -1.0457   -2.1775    0.8763 C.ar      1 <0>        -0.0833
     11 C9         -0.2455   -3.2373    0.4616 C.ar      1 <0>        -0.0729
     12 C10        -0.5899   -4.5293    0.8035 C.ar      1 <0>        -0.1392
     13 C11        -1.7274   -4.7687    1.5567 C.ar      1 <0>        -0.0940
     14 C12        -2.5279   -3.7246    1.9729 C.ar      1 <0>        -0.1371
     15 C13        -2.1978   -2.4158    1.6381 C.ar      1 <0>         0.1338
     16 N2         -2.8154   -1.2041    1.9219 N.am      1 <0>        -0.6544
     17 C14        -2.1345   -0.1721    1.3953 C.2       1 <0>         0.5549
     18 O1         -2.4356    1.0049    1.4857 O.2       1 <0>        -0.5122
     19 C15        -2.1123    4.4415   -0.8108 C.3       1 <0>        -0.0923
     20 C16         0.9690    4.8829   -0.6298 C.3       1 <0>        -0.0291
     21 C17         1.3229    5.1235   -2.0987 C.3       1 <0>        -0.1463
     22 C18         2.0353    6.4446   -2.2339 C.2       1 <0>         0.4582
     23 O2          2.2389    7.1240   -1.2557 O.co2     1 <0>        -0.6425
     24 H2          2.7719    1.8501   -1.0877 H         1 <0>         0.0707
     25 H3          2.8171    2.9382    0.3202 H         1 <0>         0.0733
     26 H4          2.4847    1.2042    0.5458 H         1 <0>         0.0583
     27 H5          0.8793   -0.5115   -0.3712 H         1 <0>         0.1497
     28 H6          0.6417   -3.0498   -0.1250 H         1 <0>         0.1280
     29 H7          0.0287   -5.3548    0.4836 H         1 <0>         0.1276
     30 H8         -1.9907   -5.7824    1.8204 H         1 <0>         0.1279
     31 H9         -3.4123   -3.9241    2.5598 H         1 <0>         0.1238
     32 H10        -3.6320   -1.1141    2.4377 H         1 <0>         0.4139
     33 H11        -2.2796    4.5537   -1.8820 H         1 <0>         0.0757
     34 H12        -3.0472    4.1636   -0.3242 H         1 <0>         0.0629
     35 H13        -1.7543    5.3847   -0.3982 H         1 <0>         0.0887
     36 H14         0.3193    5.6838   -0.2767 H         1 <0>         0.0653
     37 H15         1.8817    4.8662   -0.0341 H         1 <0>         0.0677
     38 H16         1.9726    4.3226   -2.4518 H         1 <0>         0.0616
     39 H17         0.4102    5.1402   -2.6943 H         1 <0>         0.0597
     40 O3          2.4435    6.8666   -3.4410 O.co2     1 <0>        -0.7797
@<TRIPOS>BOND
     1    1    2 1
     2    1   24 1
     3    1   25 1
     4    1   26 1
     5    2    7 2
     6    2    3 1
     7    3    4 2
     8    3   20 1
     9    4    5 1
    10    4   19 1
    11    5    6 1
    12    5    7 1
    13    7    8 1
    14    8    9 2
    15    8   27 1
    16    9   17 1
    17    9   10 1
    18   10   15 ar
    19   10   11 ar
    20   11   12 ar
    21   11   28 1
    22   12   13 ar
    23   12   29 1
    24   13   14 ar
    25   13   30 1
    26   14   15 ar
    27   14   31 1
    28   15   16 1
    29   16   17 am
    30   16   32 1
    31   17   18 2
    32   19   33 1
    33   19   34 1
    34   19   35 1
    35   20   21 1
    36   20   36 1
    37   20   37 1
    38   21   22 1
    39   21   38 1
    40   21   39 1
    41   22   23 2
    42   22   40 1
@<TRIPOS>MOLECULE
ZINC12410091
   32    34     0     0     0
SMALL
USER_CHARGES

@<TRIPOS>ATOM
      1 C1         -1.1178    0.9648   -0.0829 C.3       1 <0>        -0.0893
      2 C2         -0.2110   -0.2369   -0.0149 C.2       1 <0>        -0.0965
      3 C3          0.2945   -0.9575   -1.0985 C.2       1 <0>        -0.2107
      4 C4          1.0666   -1.9603   -0.6105 C.2       1 <0>         0.0646
      5 N1          1.0661   -1.8976    0.7449 N.pl3     1 <0>        -0.5091
      6 H1          1.5402   -2.4998    1.3395 H         1 <0>         0.4188
      7 C5          0.2839   -0.8320    1.1355 C.2       1 <0>        -0.0205
      8 C6          0.0313   -0.4237    2.4614 C.2       1 <0>         0.0819
      9 C7         -0.0507   -1.3643    3.4702 C.2       1 <0>        -0.2071
     10 C8         -0.1650   -1.1166    4.9246 C.ar      1 <0>        -0.0949
     11 C9         -0.2226    0.0414    5.6934 C.ar      1 <0>        -0.0678
     12 C10        -0.3314   -0.0533    7.0660 C.ar      1 <0>        -0.1377
     13 C11        -0.3826   -1.2965    7.6746 C.ar      1 <0>        -0.0864
     14 C12        -0.3261   -2.4512    6.9211 C.ar      1 <0>        -0.1351
     15 C13        -0.2169   -2.3764    5.5367 C.ar      1 <0>         0.1361
     16 N2         -0.1424   -3.3615    4.5598 N.am      1 <0>        -0.6521
     17 C14        -0.0496   -2.8262    3.3306 C.2       1 <0>         0.5558
     18 O1          0.0255   -3.4453    2.2841 O.2       1 <0>        -0.5142
     19 C15         1.8050   -2.9793   -1.4395 C.3       1 <0>        -0.0930
     20 H2         -0.5157    1.8720   -0.1329 H         1 <0>         0.0696
     21 H3         -1.7460    0.8961   -0.9710 H         1 <0>         0.0689
     22 H4         -1.7478    0.9953    0.8062 H         1 <0>         0.0623
     23 H5          0.1040   -0.7529   -2.1417 H         1 <0>         0.1407
     24 H6         -0.0981    0.6243    2.6883 H         1 <0>         0.1527
     25 H7         -0.1820    1.0104    5.2182 H         1 <0>         0.1289
     26 H8         -0.3765    0.8433    7.6664 H         1 <0>         0.1307
     27 H9         -0.4670   -1.3628    8.7493 H         1 <0>         0.1317
     28 H10        -0.3669   -3.4147    7.4073 H         1 <0>         0.1271
     29 H11        -0.1589   -4.3141    4.7415 H         1 <0>         0.4170
     30 H12         2.8038   -2.6073   -1.6677 H         1 <0>         0.0754
     31 H13         1.8835   -3.9129   -0.8824 H         1 <0>         0.0673
     32 H14         1.2618   -3.1548   -2.3681 H         1 <0>         0.0848
@<TRIPOS>BOND
     1    1    2 1
     2    1   20 1
     3    1   21 1
     4    1   22 1
     5    2    7 2
     6    2    3 1
     7    3    4 2
     8    3   23 1
     9    4    5 1
    10    4   19 1
    11    5    6 1
    12    5    7 1
    13    7    8 1
    14    8    9 2
    15    8   24 1
    16    9   17 1
    17    9   10 1
    18   10   15 ar
    19   10   11 ar
    20   11   12 ar
    21   11   25 1
    22   12   13 ar
    23   12   26 1
    24   13   14 ar
    25   13   27 1
    26   14   15 ar
    27   14   28 1
    28   15   16 1
    29   16   17 am
    30   16   29 1
    31   17   18 2
    32   19   30 1
    33   19   31 1
    34   19   32 1
@<TRIPOS>MOLECULE
ZINC03073318
   36    38     0     0     0
SMALL
USER_CHARGES
[5-(2-amino-6-oxo-1H-purin-9-yl)-3,4-dihydroxy-tetrahydrofuran-2-yl]methoxyphosphonic acid
@<TRIPOS>ATOM
      1 C1          0.9744    6.9648   -3.8387 C.2       1 <0>         0.2513
      2 N1          0.5772    7.6381   -4.8786 N.2       1 <0>        -0.4307
      3 C2          0.1547    8.8642   -4.4847 C.2       1 <0>        -0.1225
      4 C3         -0.3656    9.9916   -5.1624 C.2       1 <0>         0.5936
      5 O1         -0.5143    9.9795   -6.3724 O.2       1 <0>        -0.5138
      6 N2         -0.6941   11.0823   -4.4352 N.am      1 <0>        -0.6417
      7 H1         -1.0637   11.8917   -4.8916 H         1 <0>         0.4264
      8 C4         -0.5241   11.0847   -3.0828 C.2       1 <0>         0.5848
      9 N3         -0.0414   10.0439   -2.4415 N.2       1 <0>        -0.5397
     10 C5          0.3055    8.9288   -3.0949 C.2       1 <0>         0.2828
     11 N4          0.8196    7.7196   -2.7122 N.pl3     1 <0>        -0.4408
     12 C6          1.1494    7.3121   -1.3442 C.3       1 <0>         0.3009
     13 H2          0.4479    7.7555   -0.6374 H         1 <0>         0.1183
     14 C7          2.5979    7.7205   -0.9958 C.3       1 <0>         0.0362
     15 H3          3.1947    7.8216   -1.9023 H         1 <0>         0.0856
     16 C8          3.1201    6.5512   -0.1314 C.3       1 <0>         0.0480
     17 H4          3.3866    6.9025    0.8655 H         1 <0>         0.0904
     18 C9          1.9253    5.5746   -0.0597 C.3       1 <0>         0.0880
     19 H5          1.3437    5.7498    0.8454 H         1 <0>         0.0988
     20 O2          1.1346    5.8724   -1.2310 O.3       1 <0>        -0.3300
     21 C10         2.4176    4.1267   -0.1033 C.3       1 <0>         0.1468
     22 O3          1.3018    3.2407    0.0070 O.3       1 <0>        -0.7567
     23 P1          1.4507    1.6376   -0.0030 P.3       1 <0>         2.1339
     24 O4          2.1794    1.2174   -1.2207 O.2       1 <0>        -1.1633
     25 O5          4.2410    5.9258   -0.7595 O.3       1 <0>        -0.5308
     26 O6          2.6088    8.9390   -0.2492 O.3       1 <0>        -0.5444
     27 N5         -0.8665   12.2063   -2.3702 N.pl3     1 <0>        -0.7477
     28 H6          1.3650    5.9582   -3.8628 H         1 <0>         0.2324
     29 H7          3.1042    3.9512    0.7249 H         1 <0>         0.0551
     30 H8          2.9328    3.9463   -1.0468 H         1 <0>         0.0565
     31 H9          5.0198    6.4946   -0.8309 H         1 <0>         0.3712
     32 H10         3.4937    9.2419   -0.0037 H         1 <0>         0.3810
     33 H11        -0.3256   12.9835   -2.6918 H         1 <0>         0.3672
     34 H12        -0.7513   12.2231   -1.4072 H         1 <0>         0.3936
     35 O7         -0.0110    0.9628    0.0073 O.3       1 <0>        -1.1793
     36 O8          2.2685    1.1664    1.3013 O.3       1 <0>        -1.2015
@<TRIPOS>BOND
     1    1   11 1
     2    1    2 2
     3    1   28 1
     4    2    3 1
     5    3   10 2
     6    3    4 1
     7    4    5 2
     8    4    6 am
     9    6    7 1
    10    6    8 1
    11    8    9 2
    12    8   27 1
    13    9   10 1
    14   10   11 1
    15   11   12 1
    16   12   13 1
    17   12   20 1
    18   12   14 1
    19   14   15 1
    20   14   16 1
    21   14   26 1
    22   16   17 1
    23   16   18 1
    24   16   25 1
    25   18   19 1
    26   18   20 1
    27   18   21 1
    28   21   22 1
    29   21   29 1
    30   21   30 1
    31   22   23 1
    32   23   24 2
    33   23   35 1
    34   23   36 1
    35   25   31 1
    36   26   32 1
    37   27   33 1
    38   27   34 1
@<TRIPOS>MOLECULE
ZINC03869963
   36    38     0     0     0
SMALL
USER_CHARGES
[5-(2-amino-6-oxo-3H-purin-9-yl)-3,4-dihydroxy-tetrahydrofuran-2-yl]methoxyphosphonic acid
@<TRIPOS>ATOM
      1 C1         -0.0164    1.3597    0.0095 C.2       1 <0>         0.2684
      2 N1          1.2047    1.8120    0.0003 N.2       1 <0>        -0.4412
      3 C2          2.0649    0.7674   -0.0135 C.2       1 <0>        -0.1140
      4 C3          1.3053   -0.3962   -0.0125 C.2       1 <0>         0.2620
      5 N2          0.0021   -0.0041    0.0020 N.pl3     1 <0>        -0.4212
      6 C4         -1.1676   -0.8861    0.0084 C.3       1 <0>         0.2980
      7 H1         -0.9648   -1.7798    0.5985 H         1 <0>         0.1173
      8 C5         -1.5580   -1.2722   -1.4355 C.3       1 <0>         0.0360
      9 H2         -1.1622   -2.2559   -1.6880 H         1 <0>         0.0835
     10 C6         -3.1044   -1.2973   -1.4105 C.3       1 <0>         0.0457
     11 H3         -3.4726   -2.2942   -1.6527 H         1 <0>         0.0845
     12 C7         -3.4628   -0.9270    0.0458 C.3       1 <0>         0.0863
     13 H4         -3.6143   -1.8270    0.6417 H         1 <0>         0.0964
     14 O1         -2.3198   -0.1894    0.5309 O.3       1 <0>        -0.3319
     15 C8         -4.7160   -0.0500    0.0794 C.3       1 <0>         0.1483
     16 O2         -5.0545    0.2455    1.4359 O.3       1 <0>        -0.7573
     17 P1         -6.3222    1.1490    1.8466 P.3       1 <0>         2.1346
     18 O3         -6.2396    2.4567    1.1583 O.2       1 <0>        -1.1635
     19 O4         -3.6400   -0.3328   -2.3187 O.3       1 <0>        -0.5195
     20 O5         -1.0886   -0.2896   -2.3608 O.3       1 <0>        -0.5300
     21 N3          1.9486   -1.6071   -0.0251 N.2       1 <0>        -0.5488
     22 H5          5.0568   -0.6912   -0.0496 H         1 <0>         0.4270
     23 C9          3.3058   -1.6676   -0.0383 C.2       1 <0>         0.5697
     24 N4          4.0619   -0.5909   -0.0397 N.am      1 <0>        -0.6180
     25 C10         3.5254    0.6393   -0.0281 C.2       1 <0>         0.5887
     26 O6          4.2383    1.6306   -0.0292 O.2       1 <0>        -0.5090
     27 N5          3.9099   -2.8963   -0.0506 N.pl3     1 <0>        -0.7487
     28 H6         -0.9070    1.9706    0.0213 H         1 <0>         0.2278
     29 H7         -4.5240    0.8789   -0.4578 H         1 <0>         0.0567
     30 H8         -5.5428   -0.5794   -0.3943 H         1 <0>         0.0533
     31 H9         -3.4447   -0.5165   -3.2478 H         1 <0>         0.3664
     32 H10        -1.3063   -0.4821   -3.2831 H         1 <0>         0.3755
     33 H11         4.4720   -2.9831   -0.8731 H         1 <0>         0.3668
     34 H12         3.3700   -3.7022   -0.0496 H         1 <0>         0.3922
     35 O7         -7.6790    0.3988    1.4126 O.3       1 <0>        -1.2021
     36 O8         -6.3228    1.3803    3.4399 O.3       1 <0>        -1.1799
@<TRIPOS>BOND
     1    1   28 1
     2    1    5 1
     3    1    2 2
     4    2    3 1
     5    3    4 2
     6    3   25 1
     7    4    5 1
     8    4   21 1
     9    5    6 1
    10    6    7 1
    11    6   14 1
    12    6    8 1
    13    8    9 1
    14    8   10 1
    15    8   20 1
    16   10   11 1
    17   10   12 1
    18   10   19 1
    19   12   13 1
    20   12   14 1
    21   12   15 1
    22   15   16 1
    23   15   29 1
    24   15   30 1
    25   16   17 1
    26   17   18 2
    27   17   35 1
    28   17   36 1
    29   19   31 1
    30   20   32 1
    31   21   23 2
    32   22   24 1
    33   23   24 1
    34   23   27 1
    35   24   25 am
    36   25   26 2
    37   27   34 1
    38   27   33 1
@<TRIPOS>MOLECULE
ZINC03869964
   36    38     0     0     0
SMALL
USER_CHARGES
[5-(2-amino-6-oxo-3H-purin-9-yl)-3,4-dihydroxy-tetrahydrofuran-2-yl]methoxyphosphonic acid
@<TRIPOS>ATOM
      1 C1         -3.0711    0.5590    1.4640 C.2       1 <0>         0.2309
      2 N1         -3.5946   -0.4828    2.0442 N.2       1 <0>        -0.4262
      3 C2         -2.6241   -1.1592    2.7014 C.2       1 <0>        -0.1182
      4 C3         -1.4309   -0.4771    2.4967 C.2       1 <0>         0.2634
      5 N2         -1.7311    0.5961    1.7155 N.pl3     1 <0>        -0.4507
      6 C4         -0.7879    1.6099    1.2371 C.3       1 <0>         0.2892
      7 H1         -0.0945    1.8887    2.0306 H         1 <0>         0.1461
      8 C5         -0.0146    1.0868    0.0064 C.3       1 <0>         0.0474
      9 H2         -0.0005   -0.0030   -0.0010 H         1 <0>         0.0785
     10 C6         -0.8145    1.6261   -1.2006 C.3       1 <0>         0.0454
     11 H3         -1.1959    0.8028   -1.8046 H         1 <0>         0.0841
     12 C7         -1.9797    2.4111   -0.5582 C.3       1 <0>         0.0626
     13 H4         -2.8646    1.7797   -0.4792 H         1 <0>         0.0944
     14 O1         -1.5010    2.7726    0.7556 O.3       1 <0>        -0.3077
     15 C8         -2.2926    3.6649   -1.3773 C.3       1 <0>         0.1494
     16 O2         -3.4447    4.3131   -0.8345 O.3       1 <0>        -0.7581
     17 P1         -4.0597    5.6680   -1.4494 P.3       1 <0>         2.1345
     18 O3         -4.3491    5.4702   -2.8873 O.2       1 <0>        -1.1659
     19 O4         -0.0017    2.4949   -1.9921 O.3       1 <0>        -0.5193
     20 O5          1.3176    1.6036   -0.0047 O.3       1 <0>        -0.5316
     21 N3         -0.2829   -0.9656    3.0656 N.2       1 <0>        -0.5469
     22 H5         -1.3861   -3.6006    4.5955 H         1 <0>         0.4281
     23 C9         -0.3119   -2.0975    3.8165 C.2       1 <0>         0.5744
     24 N4         -1.4196   -2.7732    4.0349 N.am      1 <0>        -0.6182
     25 C10        -2.5936   -2.3747    3.5208 C.2       1 <0>         0.5895
     26 O6         -3.6146   -3.0106    3.7314 O.2       1 <0>        -0.5047
     27 N5          0.8562   -2.5524    4.3671 N.pl3     1 <0>        -0.7488
     28 H6         -3.6146    1.2823    0.8743 H         1 <0>         0.2350
     29 H7         -1.4417    4.3451   -1.3400 H         1 <0>         0.0565
     30 H8         -2.4878    3.3836   -2.4121 H         1 <0>         0.0558
     31 H9          0.7785    2.0670   -2.3706 H         1 <0>         0.3664
     32 H10         1.8391    1.3304   -0.7718 H         1 <0>         0.3805
     33 H11         0.7674   -2.5784    5.3628 H         1 <0>         0.3690
     34 H12         1.6834   -2.0684    4.2182 H         1 <0>         0.3935
     35 O7         -5.4210    6.0397   -0.6742 O.3       1 <0>        -1.1790
     36 O8         -2.9987    6.8664   -1.2755 O.3       1 <0>        -1.1993
@<TRIPOS>BOND
     1    1   28 1
     2    1    5 1
     3    1    2 2
     4    2    3 1
     5    3    4 2
     6    3   25 1
     7    4    5 1
     8    4   21 1
     9    5    6 1
    10    6    7 1
    11    6   14 1
    12    6    8 1
    13    8    9 1
    14    8   10 1
    15    8   20 1
    16   10   11 1
    17   10   12 1
    18   10   19 1
    19   12   13 1
    20   12   14 1
    21   12   15 1
    22   15   16 1
    23   15   29 1
    24   15   30 1
    25   16   17 1
    26   17   18 2
    27   17   35 1
    28   17   36 1
    29   19   31 1
    30   20   32 1
    31   21   23 2
    32   22   24 1
    33   23   24 1
    34   23   27 1
    35   24   25 am
    36   25   26 2
    37   27   34 1
    38   27   33 1
@<TRIPOS>MOLECULE
ZINC03869965
   36    38     0     0     0
SMALL
USER_CHARGES
[5-(2-amino-6-oxo-3H-purin-9-yl)-3,4-dihydroxy-tetrahydrofuran-2-yl]methoxyphosphonic acid
@<TRIPOS>ATOM
      1 C1          5.5441   -0.8481    3.7712 C.2       1 <0>         0.2438
      2 N1          6.7319   -1.3564    3.9345 N.2       1 <0>        -0.4345
      3 C2          6.7211   -2.1717    5.0146 C.2       1 <0>        -0.1202
      4 C3          5.4350   -2.1474    5.5404 C.2       1 <0>         0.2751
      5 N2          4.7100   -1.3155    4.7438 N.pl3     1 <0>        -0.4333
      6 C4          3.2935   -0.9785    4.9054 C.3       1 <0>         0.2953
      7 H1          2.7435   -1.8501    5.2602 H         1 <0>         0.1373
      8 C5          3.1419    0.1809    5.9091 C.3       1 <0>         0.0418
      9 H2          2.4816   -0.1046    6.7280 H         1 <0>         0.0910
     10 C6          2.5102    1.3232    5.0768 C.3       1 <0>         0.0456
     11 H3          2.9617    2.2830    5.3278 H         1 <0>         0.0896
     12 C7          2.8685    0.9055    3.6278 C.3       1 <0>         0.0761
     13 H4          3.8880    1.2036    3.3834 H         1 <0>         0.0951
     14 O1          2.7507   -0.5333    3.6494 O.3       1 <0>        -0.3166
     15 C8          1.8781    1.5122    2.6317 C.3       1 <0>         0.1451
     16 O2          2.2685    1.1664    1.3013 O.3       1 <0>        -0.7560
     17 P1          1.4507    1.6376   -0.0030 P.3       1 <0>         2.1337
     18 O3          1.3138    3.1113    0.0062 O.2       1 <0>        -1.1660
     19 O4          1.0936    1.3645    5.2601 O.3       1 <0>        -0.5294
     20 O5          4.4193    0.5766    6.4129 O.3       1 <0>        -0.5407
     21 N3          5.1620   -2.8947    6.6572 N.2       1 <0>        -0.5451
     22 H5          8.0448   -4.2489    7.2536 H         1 <0>         0.4260
     23 C9          6.1352   -3.6383    7.2453 C.2       1 <0>         0.5679
     24 N4          7.3660   -3.6854    6.7828 N.am      1 <0>        -0.6185
     25 C10         7.7293   -2.9927    5.6921 C.2       1 <0>         0.5885
     26 O6          8.8749   -3.0455    5.2728 O.2       1 <0>        -0.5108
     27 N5          5.8232   -4.3666    8.3618 N.pl3     1 <0>        -0.7498
     28 H6          5.2628   -0.1618    2.9861 H         1 <0>         0.2243
     29 H7          1.8736    2.5969    2.7388 H         1 <0>         0.0537
     30 H8          0.8793    1.1234    2.8299 H         1 <0>         0.0565
     31 H9          0.8196    1.6209    6.1513 H         1 <0>         0.3724
     32 H10         4.3891    1.3407    7.0049 H         1 <0>         0.3810
     33 H11         5.9896   -5.3366    8.1844 H         1 <0>         0.3669
     34 H12         4.9214   -4.3451    8.7186 H         1 <0>         0.3915
     35 O7         -0.0110    0.9628    0.0073 O.3       1 <0>        -1.1990
     36 O8          2.2434    1.1806   -1.3277 O.3       1 <0>        -1.1783
@<TRIPOS>BOND
     1    1   28 1
     2    1    5 1
     3    1    2 2
     4    2    3 1
     5    3    4 2
     6    3   25 1
     7    4    5 1
     8    4   21 1
     9    5    6 1
    10    6    7 1
    11    6   14 1
    12    6    8 1
    13    8    9 1
    14    8   10 1
    15    8   20 1
    16   10   11 1
    17   10   12 1
    18   10   19 1
    19   12   13 1
    20   12   14 1
    21   12   15 1
    22   15   16 1
    23   15   29 1
    24   15   30 1
    25   16   17 1
    26   17   18 2
    27   17   35 1
    28   17   36 1
    29   19   31 1
    30   20   32 1
    31   21   23 2
    32   22   24 1
    33   23   24 1
    34   23   27 1
    35   24   25 am
    36   25   26 2
    37   27   34 1
    38   27   33 1
@<TRIPOS>MOLECULE
ZINC00016978
   36    38     0     0     0
SMALL
USER_CHARGES
N-(3-chloro-4-fluoro-phenyl)-6,7-dimethoxy-quinazolin-4-amine
@<TRIPOS>ATOM
      1 C1         -0.1077    7.8043   -0.3043 C.3       1 <0>         0.0213
      2 O1          1.1553    7.1532   -0.1529 O.3       1 <0>        -0.2997
      3 C2          1.1387    5.8027    0.0050 C.ar      1 <0>         0.1127
      4 C3         -0.0547    5.1381    0.0126 C.ar      1 <0>        -0.1498
      5 C4         -0.0730    3.7479    0.1756 C.ar      1 <0>        -0.1807
      6 C5          1.1438    3.0387    0.3316 C.ar      1 <0>         0.2015
      7 C6          2.3555    3.7401    0.3208 C.ar      1 <0>        -0.1836
      8 C7          2.3465    5.1079    0.1588 C.ar      1 <0>         0.1645
      9 O2          3.5207    5.7910    0.1475 O.3       1 <0>        -0.2967
     10 C8          4.7173    5.0267    0.3088 C.3       1 <0>         0.0198
     11 N1          1.0981    1.7061    0.4867 N.ar      1 <0>        -0.5395
     12 C9         -0.0526    1.0764    0.4931 C.ar      1 <0>         0.3425
     13 N2         -1.2130    1.6959    0.3460 N.ar      1 <0>        -0.5817
     14 C10        -1.2816    3.0117    0.1912 C.ar      1 <0>         0.4638
     15 N3         -2.4991    3.6452    0.0437 N.pl3     1 <0>        -0.6386
     16 C11        -3.6729    2.8905   -0.0548 C.ar      1 <0>         0.1586
     17 C12        -3.6501    1.6464   -0.6722 C.ar      1 <0>        -0.0781
     18 C13        -4.8088    0.9005   -0.7643 C.ar      1 <0>        -0.1189
     19 C14        -5.9954    1.3962   -0.2511 C.ar      1 <0>         0.0951
     20 C15        -6.0222    2.6392    0.3606 C.ar      1 <0>        -0.0539
     21 C16        -4.8635    3.3866    0.4595 C.ar      1 <0>        -0.1144
     22 Cl1        -7.5113    3.2580    1.0036 Cl        1 <0>        -0.0424
     23 F1         -7.1286    0.6668   -0.3466 F         1 <0>        -0.1253
     24 H1          0.0480    8.8767   -0.4213 H         1 <0>         0.1075
     25 H2         -0.6150    7.4125   -1.1859 H         1 <0>         0.0578
     26 H3         -0.7195    7.6202    0.5788 H         1 <0>         0.0576
     27 H4         -0.9797    5.6826   -0.1070 H         1 <0>         0.1396
     28 H5          3.2905    3.2125    0.4383 H         1 <0>         0.1568
     29 H6          4.6901    4.5069    1.2665 H         1 <0>         0.0625
     30 H7          4.7946    4.2980   -0.4981 H         1 <0>         0.0626
     31 H8          5.5801    5.6924    0.2811 H         1 <0>         0.1078
     32 H9         -0.0529    0.0039    0.6197 H         1 <0>         0.1993
     33 H10        -2.5408    4.6137    0.0082 H         1 <0>         0.4219
     34 H11        -2.7259    1.2610   -1.0767 H         1 <0>         0.1541
     35 H12        -4.7901   -0.0685   -1.2408 H         1 <0>         0.1508
     36 H13        -4.8843    4.3556    0.9360 H         1 <0>         0.1453
@<TRIPOS>BOND
     1    1    2 1
     2    1   24 1
     3    1   25 1
     4    1   26 1
     5    2    3 1
     6    3    8 ar
     7    3    4 ar
     8    4    5 ar
     9    4   27 1
    10    5   14 ar
    11    5    6 ar
    12    6    7 ar
    13    6   11 ar
    14    7    8 ar
    15    7   28 1
    16    8    9 1
    17    9   10 1
    18   10   29 1
    19   10   30 1
    20   10   31 1
    21   11   12 ar
    22   12   13 ar
    23   12   32 1
    24   13   14 ar
    25   14   15 1
    26   15   16 1
    27   15   33 1
    28   16   21 ar
    29   16   17 ar
    30   17   18 ar
    31   17   34 1
    32   18   19 ar
    33   18   35 1
    34   19   20 ar
    35   19   23 1
    36   20   21 ar
    37   20   22 1
    38   21   36 1
@<TRIPOS>MOLECULE
ZINC02392505
   24    26     0     0     0
SMALL
USER_CHARGES
3-(3-thienyl)quinoline
@<TRIPOS>ATOM
      1 C1         -1.3712    5.8103    0.0469 C.ar      1 <0>        -0.1132
      2 C2         -2.5363    5.0457    0.0535 C.ar      1 <0>        -0.1006
      3 C3         -2.4844    3.6858    0.0456 C.ar      1 <0>        -0.0919
      4 C4         -1.2387    3.0342    0.0302 C.ar      1 <0>         0.1228
      5 C5         -0.0548    3.8140    0.0231 C.ar      1 <0>        -0.0963
      6 C6         -0.1465    5.2162    0.0320 C.ar      1 <0>        -0.0980
      7 C7          1.1918    3.1650    0.0077 C.ar      1 <0>        -0.0527
      8 C8          1.2033    1.7778    0.0001 C.ar      1 <0>        -0.0807
      9 C9         -0.0126    1.0758    0.0080 C.ar      1 <0>         0.1424
     10 N1         -1.1634    1.6992    0.0169 N.ar      1 <0>        -0.4692
     11 C10         2.4910    1.0415   -0.0156 C.2       1 <0>        -0.0795
     12 C11         2.5152   -0.3500   -0.0229 C.2       1 <0>        -0.1528
     13 C12         3.7085   -0.9854   -0.0377 C.2       1 <0>        -0.1654
     14 S1          4.8623    0.3762   -0.0421 S.3       1 <0>         0.0551
     15 C13         3.6810    1.7143   -0.0291 C.2       1 <0>        -0.1676
     16 H1         -1.4409    6.8880    0.0537 H         1 <0>         0.1296
     17 H2         -3.4962    5.5405    0.0654 H         1 <0>         0.1317
     18 H3         -3.3974    3.1088    0.0516 H         1 <0>         0.1367
     19 H4          0.7495    5.8191    0.0265 H         1 <0>         0.1312
     20 H5          2.1127    3.7291    0.0015 H         1 <0>         0.1402
     21 H6          0.0021   -0.0041    0.0020 H         1 <0>         0.1609
     22 H7          1.5942   -0.9140   -0.0171 H         1 <0>         0.1396
     23 H8          3.9117   -2.0461   -0.0453 H         1 <0>         0.1902
     24 H9          3.8600    2.7794   -0.0303 H         1 <0>         0.1875
@<TRIPOS>BOND
     1    1    6 ar
     2    1    2 ar
     3    1   16 1
     4    2    3 ar
     5    2   17 1
     6    3    4 ar
     7    3   18 1
     8    4   10 ar
     9    4    5 ar
    10    5    6 ar
    11    5    7 ar
    12    6   19 1
    13    7    8 ar
    14    7   20 1
    15    8    9 ar
    16    8   11 1
    17    9   10 ar
    18    9   21 1
    19   11   15 2
    20   11   12 1
    21   12   13 2
    22   12   22 1
    23   13   14 1
    24   13   23 1
    25   14   15 1
    26   15   24 1
@<TRIPOS>MOLECULE
ZINC02939076
   29    31     0     0     0
SMALL
USER_CHARGES
3-[(4-hydroxyphenyl)methylene]indolin-2-one
@<TRIPOS>ATOM
      1 C1          9.0004    5.5411    0.9127 C.ar      1 <0>        -0.1406
      2 C2          9.1811    5.6951    2.2772 C.ar      1 <0>        -0.0808
      3 C3          8.2478    5.2078    3.1694 C.ar      1 <0>        -0.1379
      4 C4          7.1114    4.5552    2.7039 C.ar      1 <0>         0.1451
      5 C5          6.9322    4.4019    1.3229 C.ar      1 <0>        -0.1074
      6 C6          7.8787    4.8962    0.4318 C.ar      1 <0>        -0.0619
      7 C7          5.6514    3.6804    1.1455 C.2       1 <0>        -0.1667
      8 C8          5.0638    3.3071   -0.0285 C.2       1 <0>         0.0356
      9 C9          3.8753    2.4493   -0.0131 C.ar      1 <0>        -0.1103
     10 C10         3.7820    1.3929    0.9035 C.ar      1 <0>        -0.0284
     11 C11         2.6680    0.5936    0.9130 C.ar      1 <0>        -0.1538
     12 C12         1.6322    0.8289    0.0153 C.ar      1 <0>         0.1272
     13 C13         1.7216    1.8720   -0.9003 C.ar      1 <0>        -0.1585
     14 C14         2.8279    2.6819   -0.9151 C.ar      1 <0>        -0.0707
     15 O1          0.5322    0.0341    0.0290 O.3       1 <0>        -0.5000
     16 C15         5.1462    3.4586    2.5109 C.2       1 <0>         0.5556
     17 O2          4.1071    2.8977    2.8076 O.2       1 <0>        -0.4926
     18 N1          6.0361    3.9810    3.3718 N.am      1 <0>        -0.6555
     19 H1          9.7380    5.9261    0.2242 H         1 <0>         0.1314
     20 H2         10.0609    6.2011    2.6465 H         1 <0>         0.1326
     21 H3          8.4001    5.3338    4.2312 H         1 <0>         0.1285
     22 H4          7.7366    4.7762   -0.6320 H         1 <0>         0.1294
     23 H5          5.4745    3.6439   -0.9689 H         1 <0>         0.1462
     24 H6          4.5858    1.2092    1.6011 H         1 <0>         0.1264
     25 H7          2.5950   -0.2207    1.6187 H         1 <0>         0.1305
     26 H8          0.9161    2.0471   -1.5982 H         1 <0>         0.1322
     27 H9          2.8943    3.4944   -1.6235 H         1 <0>         0.1316
     28 H10        -0.1699    0.3444    0.6171 H         1 <0>         0.3945
     29 H11         5.9383    3.9636    4.3367 H         1 <0>         0.4181
@<TRIPOS>BOND
     1    1    6 ar
     2    1    2 ar
     3    1   19 1
     4    2    3 ar
     5    2   20 1
     6    3    4 ar
     7    3   21 1
     8    4   18 1
     9    4    5 ar
    10    5    6 ar
    11    5    7 1
    12    6   22 1
    13    7    8 2
    14    7   16 1
    15    8    9 1
    16    8   23 1
    17    9   14 ar
    18    9   10 ar
    19   10   11 ar
    20   10   24 1
    21   11   12 ar
    22   11   25 1
    23   12   13 ar
    24   12   15 1
    25   13   14 ar
    26   13   26 1
    27   14   27 1
    28   15   28 1
    29   16   17 2
    30   16   18 am
    31   18   29 1
@<TRIPOS>MOLECULE
ZINC12832813
   44    47     0     0     0
SMALL
USER_CHARGES
4-[4-[(Z)-(2-oxoindolin-3-ylidene)methyl]phenyl]piperazine-1-carbaldehyde
@<TRIPOS>ATOM
      1 C1         -0.7213   -2.2739   -0.5879 C.ar      1 <0>        -0.1404
      2 C2          0.2170   -2.5765   -1.5606 C.ar      1 <0>        -0.0822
      3 C3          0.9024   -1.5720   -2.2130 C.ar      1 <0>        -0.1379
      4 C4          0.6557   -0.2401   -1.8978 C.ar      1 <0>         0.1437
      5 C5         -0.2942    0.0617   -0.9132 C.ar      1 <0>        -0.1049
      6 C6         -0.9797   -0.9579   -0.2615 C.ar      1 <0>        -0.0635
      7 C7         -0.3308    1.5381   -0.8070 C.2       1 <0>        -0.1744
      8 C8         -1.1128    2.2928    0.0201 C.2       1 <0>         0.0427
      9 C9         -0.8888    3.7367    0.1237 C.ar      1 <0>        -0.1290
     10 C10         0.4169    4.2482    0.1181 C.ar      1 <0>        -0.0134
     11 C11         0.6203    5.5954    0.2096 C.ar      1 <0>        -0.1802
     12 C12        -0.4662    6.4603    0.3197 C.ar      1 <0>         0.1352
     13 C13        -1.7650    5.9567    0.3311 C.ar      1 <0>        -0.1537
     14 C14        -1.9791    4.6116    0.2348 C.ar      1 <0>        -0.0587
     15 N1         -0.2536    7.8306    0.4181 N.pl3     1 <0>        -0.4878
     16 C15        -0.9802    8.5529   -0.6346 C.3       1 <0>         0.0443
     17 C16        -0.8689   10.0608   -0.3850 C.3       1 <0>         0.1097
     18 N2          0.5544   10.4098   -0.2601 N.am      1 <0>        -0.6256
     19 C17         1.3811    9.6354    0.6781 C.3       1 <0>         0.1147
     20 C18         1.1811    8.1443    0.3866 C.3       1 <0>         0.0318
     21 C19         1.0871   11.4124   -0.9864 C.2       1 <0>         0.4951
     22 O1          0.3907   12.0406   -1.7553 O.2       1 <0>        -0.5508
     23 C20         0.6542    2.0160   -1.7910 C.2       1 <0>         0.5560
     24 O2          0.9310    3.1794   -2.0200 O.2       1 <0>        -0.4945
     25 N3          1.1938    0.9421   -2.3924 N.am      1 <0>        -0.6560
     26 H1         -1.2512   -3.0686   -0.0839 H         1 <0>         0.1309
     27 H2          0.4144   -3.6084   -1.8107 H         1 <0>         0.1320
     28 H3          1.6315   -1.8206   -2.9700 H         1 <0>         0.1279
     29 H4         -1.7110   -0.7209    0.4972 H         1 <0>         0.1290
     30 H5         -1.8964    1.8250    0.5977 H         1 <0>         0.1436
     31 H6          1.2601    3.5781    0.0373 H         1 <0>         0.1223
     32 H7          1.6253    5.9906    0.2013 H         1 <0>         0.1280
     33 H8         -2.6041    6.6313    0.4166 H         1 <0>         0.1285
     34 H9         -2.9864    4.2221    0.2437 H         1 <0>         0.1289
     35 H10        -0.5479    8.3122   -1.6058 H         1 <0>         0.0519
     36 H11        -2.0296    8.2584   -0.6200 H         1 <0>         0.0968
     37 H12        -1.3914   10.3190    0.5361 H         1 <0>         0.0781
     38 H13        -1.3070   10.6039   -1.2224 H         1 <0>         0.1010
     39 H14         1.0748    9.8527    1.7014 H         1 <0>         0.0820
     40 H15         2.4306    9.8973    0.5436 H         1 <0>         0.0948
     41 H16         1.6993    7.5534    1.1418 H         1 <0>         0.0991
     42 H17         1.5835    7.9088   -0.5987 H         1 <0>         0.0553
     43 H18         2.1342   11.6564   -0.8837 H         1 <0>         0.1326
     44 H19         1.8731    0.9864   -3.0834 H         1 <0>         0.4173
@<TRIPOS>BOND
     1    1    6 ar
     2    1    2 ar
     3    1   26 1
     4    2    3 ar
     5    2   27 1
     6    3    4 ar
     7    3   28 1
     8    4   25 1
     9    4    5 ar
    10    5    6 ar
    11    5    7 1
    12    6   29 1
    13    7    8 2
    14    7   23 1
    15    8    9 1
    16    8   30 1
    17    9   14 ar
    18    9   10 ar
    19   10   11 ar
    20   10   31 1
    21   11   12 ar
    22   11   32 1
    23   12   13 ar
    24   12   15 1
    25   13   14 ar
    26   13   33 1
    27   14   34 1
    28   15   20 1
    29   15   16 1
    30   16   17 1
    31   16   35 1
    32   16   36 1
    33   17   18 1
    34   17   37 1
    35   17   38 1
    36   18   19 1
    37   18   21 am
    38   19   20 1
    39   19   39 1
    40   19   40 1
    41   20   41 1
    42   20   42 1
    43   21   22 2
    44   21   43 1
    45   23   24 2
    46   23   25 am
    47   25   44 1
@<TRIPOS>MOLECULE
ZINC27439698
   59    62     0     0     0
SMALL
USER_CHARGES

@<TRIPOS>ATOM
      1 C1         -0.2063    1.0844    0.8125 C.2       1 <0>        -0.0780
      2 C2         -0.0916   -0.1284    0.2785 C.2       1 <0>        -0.2217
      3 C3          1.1892   -0.8472    0.3546 C.2       1 <0>         0.5464
      4 O1          2.1435   -0.3327    0.9059 O.2       1 <0>        -0.5301
      5 N1          1.3054   -2.0761   -0.1864 N.am      1 <0>        -0.6549
      6 C4          2.5517   -2.7129   -0.2160 C.ar      1 <0>         0.1200
      7 C5          3.7048   -1.9595   -0.1827 C.ar      1 <0>        -0.0579
      8 C6          4.9490   -2.5997   -0.2120 C.ar      1 <0>        -0.1974
      9 C7          5.0154   -4.0138   -0.2753 C.ar      1 <0>         0.2129
     10 C8          3.8313   -4.7603   -0.3083 C.ar      1 <0>        -0.1947
     11 C9          2.6164   -4.1137   -0.2734 C.ar      1 <0>         0.1622
     12 O2          1.4681   -4.8389   -0.3002 O.3       1 <0>        -0.3093
     13 C10         1.5999   -6.2606   -0.3586 C.3       1 <0>         0.0588
     14 C11         0.2106   -6.9010   -0.3813 C.3       1 <0>        -0.1156
     15 C12         0.3517   -8.4232   -0.4438 C.3       1 <0>         0.0578
     16 N2         -0.9822   -9.0382   -0.4657 N.3       1 <0>        -0.5360
     17 C13        -1.6880   -8.8108    0.8038 C.3       1 <0>         0.0125
     18 C14        -3.0921   -9.4148    0.7161 C.3       1 <0>         0.0626
     19 O3         -2.9885  -10.8047    0.3955 O.3       1 <0>        -0.3850
     20 C15        -2.3071  -11.0626   -0.8351 C.3       1 <0>         0.0628
     21 C16        -0.8951  -10.4753   -0.7631 C.3       1 <0>         0.0171
     22 N3          6.2221   -4.6015   -0.3018 N.ar      1 <0>        -0.5452
     23 C17         7.3156   -3.8777   -0.2694 C.ar      1 <0>         0.3493
     24 N4          7.3023   -2.5556   -0.2097 N.ar      1 <0>        -0.5859
     25 C18         6.1642   -1.8746   -0.1796 C.ar      1 <0>         0.4714
     26 N5          6.1650   -0.4957   -0.1182 N.pl3     1 <0>        -0.6328
     27 C19         7.3694    0.2084   -0.2227 C.ar      1 <0>         0.1581
     28 C20         7.5013    1.4536    0.3785 C.ar      1 <0>        -0.1169
     29 C21         8.6911    2.1472    0.2750 C.ar      1 <0>        -0.1176
     30 C22         9.7524    1.6027   -0.4280 C.ar      1 <0>         0.0901
     31 C23         9.6235    0.3609   -1.0292 C.ar      1 <0>        -0.0524
     32 C24         8.4363   -0.3392   -0.9225 C.ar      1 <0>        -0.0856
     33 Cl1        10.9555   -0.3188   -1.9109 Cl        1 <0>        -0.0424
     34 F1         10.9152    2.2833   -0.5284 F         1 <0>        -0.1264
     35 H1          0.6411    1.5413    1.3020 H         1 <0>         0.1166
     36 H2         -1.1456    1.6141    0.7527 H         1 <0>         0.1209
     37 H3         -0.9390   -0.5853   -0.2110 H         1 <0>         0.1323
     38 H4          0.5255   -2.5194   -0.5554 H         1 <0>         0.4201
     39 H5          3.6489   -0.8820   -0.1348 H         1 <0>         0.1596
     40 H6          3.8708   -5.8385   -0.3565 H         1 <0>         0.1517
     41 H7          2.1429   -6.5383   -1.2620 H         1 <0>         0.0720
     42 H8          2.1473   -6.6110    0.5165 H         1 <0>         0.0691
     43 H9         -0.3323   -6.6233    0.5221 H         1 <0>         0.0760
     44 H10        -0.3367   -6.5506   -1.2564 H         1 <0>         0.0860
     45 H11         0.8947   -8.7010   -1.3473 H         1 <0>         0.0821
     46 H12         0.8990   -8.7736    0.4312 H         1 <0>         0.0409
     47 H13        -1.1377   -9.2854    1.6162 H         1 <0>         0.0448
     48 H14        -1.7636   -7.7398    0.9914 H         1 <0>         0.0895
     49 H15        -3.5986   -9.2990    1.6743 H         1 <0>         0.0993
     50 H16        -3.6604   -8.9035   -0.0609 H         1 <0>         0.0609
     51 H17        -2.2459  -12.1385   -0.9988 H         1 <0>         0.1001
     52 H18        -2.8525  -10.5991   -1.6572 H         1 <0>         0.0612
     53 H19        -0.3918  -10.6192   -1.7193 H         1 <0>         0.0886
     54 H20        -0.3321  -10.9764    0.0243 H         1 <0>         0.0452
     55 H21         8.2696   -4.3834   -0.2921 H         1 <0>         0.1993
     56 H22         5.3306   -0.0149   -0.0027 H         1 <0>         0.4275
     57 H23         6.6738    1.8794    0.9265 H         1 <0>         0.1431
     58 H24         8.7936    3.1154    0.7424 H         1 <0>         0.1506
     59 H25         8.3373   -1.3092   -1.3869 H         1 <0>         0.1663
@<TRIPOS>BOND
     1    1    2 2
     2    1   35 1
     3    1   36 1
     4    2    3 1
     5    2   37 1
     6    3    4 2
     7    3    5 am
     8    5    6 1
     9    5   38 1
    10    6   11 ar
    11    6    7 ar
    12    7    8 ar
    13    7   39 1
    14    8   25 ar
    15    8    9 ar
    16    9   10 ar
    17    9   22 ar
    18   10   11 ar
    19   10   40 1
    20   11   12 1
    21   12   13 1
    22   13   14 1
    23   13   41 1
    24   13   42 1
    25   14   15 1
    26   14   43 1
    27   14   44 1
    28   15   16 1
    29   15   45 1
    30   15   46 1
    31   16   21 1
    32   16   17 1
    33   17   18 1
    34   17   47 1
    35   17   48 1
    36   18   19 1
    37   18   49 1
    38   18   50 1
    39   19   20 1
    40   20   21 1
    41   20   51 1
    42   20   52 1
    43   21   53 1
    44   21   54 1
    45   22   23 ar
    46   23   24 ar
    47   23   55 1
    48   24   25 ar
    49   25   26 1
    50   26   27 1
    51   26   56 1
    52   27   32 ar
    53   27   28 ar
    54   28   29 ar
    55   28   57 1
    56   29   30 ar
    57   29   58 1
    58   30   31 ar
    59   30   34 1
    60   31   32 ar
    61   31   33 1
    62   32   59 1
@<TRIPOS>MOLECULE
ZINC02047503
   45    48     0     0     0
SMALL
USER_CHARGES
6-(2,6-dichlorophenyl)-2-[[3-(hydroxymethyl)phenyl]amino]-8-methyl-pyrido[6,5-d]pyrimidin-7-one
@<TRIPOS>ATOM
      1 C1          0.0685    1.0902    0.1116 C.3       1 <0>         0.0699
      2 N1         -0.4262    1.5833    1.3993 N.am      1 <0>        -0.5062
      3 C2         -0.5386    2.9342    1.6113 C.ar      1 <0>         0.4668
      4 C3         -1.0182    3.4258    2.8448 C.ar      1 <0>        -0.2772
      5 C4         -1.3770    2.5290    3.8769 C.2       1 <0>         0.0314
      6 C5         -1.2566    1.1828    3.6580 C.2       1 <0>        -0.1643
      7 C6         -0.7609    0.7061    2.3650 C.2       1 <0>         0.5577
      8 O1         -0.6511   -0.4900    2.1618 O.2       1 <0>        -0.5027
      9 C7         -1.6241    0.2171    4.7198 C.ar      1 <0>        -0.0102
     10 C8         -0.6661   -0.2109    5.6397 C.ar      1 <0>        -0.0065
     11 C9         -1.0165   -1.1073    6.6304 C.ar      1 <0>        -0.1064
     12 C10        -2.3111   -1.5889    6.7051 C.ar      1 <0>        -0.0874
     13 C11        -3.2642   -1.1726    5.7932 C.ar      1 <0>        -0.1064
     14 C12        -2.9282   -0.2726    4.8008 C.ar      1 <0>        -0.0064
     15 Cl1        -4.1255    0.2477    3.6566 Cl        1 <0>        -0.0501
     16 Cl2         0.9610    0.3864    5.5428 Cl        1 <0>        -0.0503
     17 C13        -1.1231    4.8140    3.0188 C.ar      1 <0>         0.2643
     18 N2         -0.7739    5.6039    2.0208 N.ar      1 <0>        -0.5677
     19 C14        -0.3311    5.1056    0.8717 C.ar      1 <0>         0.6091
     20 N3         -0.2145    3.8035    0.6608 N.ar      1 <0>        -0.5948
     21 N4          0.0210    5.9779   -0.1404 N.pl3     1 <0>        -0.6255
     22 C15        -0.1997    7.3500    0.0111 C.ar      1 <0>         0.1535
     23 C16        -1.3058    7.8032    0.7190 C.ar      1 <0>        -0.1019
     24 C17        -1.5179    9.1592    0.8714 C.ar      1 <0>        -0.1022
     25 C18        -0.6364   10.0658    0.3112 C.ar      1 <0>        -0.1107
     26 C19         0.4624    9.6181   -0.3988 C.ar      1 <0>        -0.0740
     27 C20         0.6833    8.2631   -0.5504 C.ar      1 <0>        -0.1226
     28 C21         1.4197   10.6097   -1.0082 C.3       1 <0>         0.1166
     29 O2          0.9930   10.9310   -2.3336 O.3       1 <0>        -0.5676
     30 H1          0.0950    0.0006    0.1256 H         1 <0>         0.1008
     31 H2          1.0728    1.4758   -0.0636 H         1 <0>         0.0801
     32 H3         -0.5942    1.4272   -0.6855 H         1 <0>         0.0804
     33 H4         -1.7410    2.9000    4.8236 H         1 <0>         0.1507
     34 H5         -0.2771   -1.4360    7.3457 H         1 <0>         0.1438
     35 H6         -2.5787   -2.2934    7.4788 H         1 <0>         0.1454
     36 H7         -4.2732   -1.5525    5.8570 H         1 <0>         0.1438
     37 H8         -1.4817    5.2275    3.9498 H         1 <0>         0.1884
     38 H9          0.4212    5.6382   -0.9561 H         1 <0>         0.4268
     39 H10        -1.9968    7.0958    1.1532 H         1 <0>         0.1360
     40 H11        -2.3754    9.5121    1.4250 H         1 <0>         0.1294
     41 H12        -0.8068   11.1258    0.4283 H         1 <0>         0.1250
     42 H13         1.5416    7.9141   -1.1054 H         1 <0>         0.1259
     43 H14         1.4384   11.5159   -0.4028 H         1 <0>         0.0579
     44 H15         2.4189   10.1755   -1.0434 H         1 <0>         0.0551
     45 H16         1.5640   11.5657   -2.7877 H         1 <0>         0.3824
@<TRIPOS>BOND
     1    1    2 1
     2    1   30 1
     3    1   31 1
     4    1   32 1
     5    2    7 am
     6    2    3 1
     7    3   20 ar
     8    3    4 ar
     9    4    5 1
    10    4   17 ar
    11    5    6 2
    12    5   33 1
    13    6    7 1
    14    6    9 1
    15    7    8 2
    16    9   14 ar
    17    9   10 ar
    18   10   11 ar
    19   10   16 1
    20   11   12 ar
    21   11   34 1
    22   12   13 ar
    23   12   35 1
    24   13   14 ar
    25   13   36 1
    26   14   15 1
    27   17   18 ar
    28   17   37 1
    29   18   19 ar
    30   19   20 ar
    31   19   21 1
    32   21   22 1
    33   21   38 1
    34   22   27 ar
    35   22   23 ar
    36   23   24 ar
    37   23   39 1
    38   24   25 ar
    39   24   40 1
    40   25   26 ar
    41   25   41 1
    42   26   27 ar
    43   26   28 1
    44   27   42 1
    45   28   29 1
    46   28   43 1
    47   28   44 1
    48   29   45 1
@<TRIPOS>MOLECULE
ZINC12339625
   36    38     0     0     0
SMALL
USER_CHARGES

@<TRIPOS>ATOM
      1 C1          1.2339    1.8626   -0.5442 C.3       1 <0>         0.0879
      2 N1          0.9071    0.4447   -0.3743 N.pl3     1 <0>        -0.6311
      3 C2          0.8183   -0.1307    0.9700 C.3       1 <0>         0.0920
      4 C3          0.6811   -0.3549   -1.4889 C.ar      1 <0>         0.2389
      5 C4          0.3648   -1.7016   -1.3245 C.ar      1 <0>        -0.2114
      6 C5          0.1419   -2.4911   -2.4161 C.ar      1 <0>        -0.0340
      7 C6          0.2319   -1.9441   -3.7042 C.ar      1 <0>        -0.1690
      8 C7          0.5505   -0.5879   -3.8643 C.ar      1 <0>         0.0090
      9 C8          0.7660    0.1946   -2.7662 C.ar      1 <0>        -0.2084
     10 C9         -0.0058   -2.7867   -4.8786 C.2       1 <0>         0.0566
     11 C10        -0.6965   -2.2900   -5.9469 C.2       1 <0>        -0.1877
     12 C11        -0.9003   -2.9319   -7.2656 C.ar      1 <0>        -0.1003
     13 C12        -0.4922   -4.1458   -7.8079 C.ar      1 <0>        -0.0665
     14 C13        -0.8488   -4.4723   -9.1008 C.ar      1 <0>        -0.1408
     15 C14        -1.6094   -3.5936   -9.8540 C.ar      1 <0>        -0.0853
     16 C15        -2.0189   -2.3865   -9.3251 C.ar      1 <0>        -0.1384
     17 C16        -1.6702   -2.0404   -8.0241 C.ar      1 <0>         0.1422
     18 N2         -1.9455   -0.9108   -7.2625 N.am      1 <0>        -0.6570
     19 C17        -1.4055   -1.0030   -6.0353 C.2       1 <0>         0.5562
     20 O1         -1.4865   -0.1680   -5.1528 O.2       1 <0>        -0.4948
     21 H1          2.3149    1.9796   -0.6207 H         1 <0>         0.0513
     22 H2          0.7626    2.2379   -1.4526 H         1 <0>         0.0716
     23 H3          0.8675    2.4253    0.3144 H         1 <0>         0.0687
     24 H4          1.0252    0.6422    1.7104 H         1 <0>         0.0747
     25 H5         -0.1841   -0.5279    1.1298 H         1 <0>         0.0565
     26 H6          1.5479   -0.9343    1.0702 H         1 <0>         0.0570
     27 H7          0.2961   -2.1220   -0.3320 H         1 <0>         0.1235
     28 H8         -0.1029   -3.5351   -2.2876 H         1 <0>         0.1247
     29 H9          0.6213   -0.1620   -4.8543 H         1 <0>         0.1202
     30 H10         1.0069    1.2403   -2.8882 H         1 <0>         0.1232
     31 H11         0.3652   -3.8008   -4.8996 H         1 <0>         0.1394
     32 H12         0.1016   -4.8301   -7.2200 H         1 <0>         0.1280
     33 H13        -0.5339   -5.4140   -9.5256 H         1 <0>         0.1297
     34 H14        -1.8845   -3.8554  -10.8651 H         1 <0>         0.1308
     35 H15        -2.6112   -1.7093   -9.9227 H         1 <0>         0.1267
     36 H16        -2.4648   -0.1537   -7.5756 H         1 <0>         0.4160
@<TRIPOS>BOND
     1    1    2 1
     2    1   21 1
     3    1   22 1
     4    1   23 1
     5    2    3 1
     6    2    4 1
     7    3   24 1
     8    3   25 1
     9    3   26 1
    10    4    9 ar
    11    4    5 ar
    12    5    6 ar
    13    5   27 1
    14    6    7 ar
    15    6   28 1
    16    7    8 ar
    17    7   10 1
    18    8    9 ar
    19    8   29 1
    20    9   30 1
    21   10   11 2
    22   10   31 1
    23   11   19 1
    24   11   12 1
    25   12   17 ar
    26   12   13 ar
    27   13   14 ar
    28   13   32 1
    29   14   15 ar
    30   14   33 1
    31   15   16 ar
    32   15   34 1
    33   16   17 ar
    34   16   35 1
    35   17   18 1
    36   18   19 am
    37   18   36 1
    38   19   20 2
@<TRIPOS>MOLECULE
ZINC13687745
   34    37     0     0     0
SMALL
USER_CHARGES
bis(5-hydroxy-1H-indol-2-yl)methanone
@<TRIPOS>ATOM
      1 C1          1.1202   -0.5694    1.2946 C.ar      1 <0>        -0.1011
      2 C2         -0.0685    0.1178    1.1973 C.ar      1 <0>        -0.1191
      3 C3         -0.0679    1.4637    0.8438 C.ar      1 <0>         0.1120
      4 C4          1.1543    2.1154    0.5871 C.ar      1 <0>        -0.1064
      5 C5          2.3569    1.4030    0.6905 C.ar      1 <0>        -0.0834
      6 C6          2.3323    0.0703    1.0422 C.ar      1 <0>         0.0787
      7 O1          3.4973   -0.6238    1.1439 O.3       1 <0>        -0.4957
      8 C7          0.8464    3.4566    0.2565 C.2       1 <0>        -0.0893
      9 C8         -0.5058    3.5980    0.3140 C.2       1 <0>        -0.0128
     10 N1         -1.0726    2.3890    0.6654 N.pl3     1 <0>        -0.5813
     11 H1         -2.0218    2.2195    0.7709 H         1 <0>         0.4085
     12 C9         -1.2453    4.8383    0.0405 C.2       1 <0>         0.4824
     13 O2         -0.6430    5.8868   -0.1057 O.2       1 <0>        -0.4165
     14 C10        -2.7116    4.8135   -0.0567 C.2       1 <0>        -0.0129
     15 C11        -3.5148    5.9080   -0.1504 C.2       1 <0>        -0.0892
     16 C12        -4.8537    5.4554   -0.2242 C.ar      1 <0>        -0.1064
     17 C13        -6.0861    6.1142   -0.3315 C.ar      1 <0>        -0.0834
     18 C14        -7.2508    5.3784   -0.3839 C.ar      1 <0>         0.0787
     19 C15        -7.2076    3.9865   -0.3301 C.ar      1 <0>        -0.1011
     20 C16        -6.0044    3.3262   -0.2247 C.ar      1 <0>        -0.1191
     21 C17        -4.8162    4.0482   -0.1708 C.ar      1 <0>         0.1120
     22 N2         -3.4936    3.6757   -0.0734 N.pl3     1 <0>        -0.5813
     23 H2         -3.1658    2.7642   -0.0230 H         1 <0>         0.4085
     24 O3         -8.4482    6.0143   -0.4890 O.3       1 <0>        -0.4956
     25 H3          1.1134   -1.6138    1.5694 H         1 <0>         0.1380
     26 H4         -1.0021   -0.3877    1.3958 H         1 <0>         0.1299
     27 H5          3.2980    1.8958    0.4960 H         1 <0>         0.1365
     28 H6          3.7750   -1.0488    0.3209 H         1 <0>         0.3901
     29 H7          1.5573    4.2295    0.0041 H         1 <0>         0.1623
     30 H8         -3.1889    6.9375   -0.1654 H         1 <0>         0.1624
     31 H9         -6.1232    7.1927   -0.3733 H         1 <0>         0.1365
     32 H10        -8.1265    3.4207   -0.3720 H         1 <0>         0.1380
     33 H11        -5.9827    2.2472   -0.1842 H         1 <0>         0.1299
     34 H12        -8.8548    6.2304    0.3614 H         1 <0>         0.3901
@<TRIPOS>BOND
     1    1    6 ar
     2    1    2 ar
     3    1   25 1
     4    2    3 ar
     5    2   26 1
     6    3   10 1
     7    3    4 ar
     8    4    5 ar
     9    4    8 1
    10    5    6 ar
    11    5   27 1
    12    6    7 1
    13    7   28 1
    14    8    9 2
    15    8   29 1
    16    9   10 1
    17    9   12 1
    18   10   11 1
    19   12   13 2
    20   12   14 1
    21   14   22 1
    22   14   15 2
    23   15   16 1
    24   15   30 1
    25   16   21 ar
    26   16   17 ar
    27   17   18 ar
    28   17   31 1
    29   18   19 ar
    30   18   24 1
    31   19   20 ar
    32   19   32 1
    33   20   21 ar
    34   20   33 1
    35   21   22 1
    36   22   23 1
    37   24   34 1
@<TRIPOS>MOLECULE
ZINC06494041
   31    34     0     0     0
SMALL
USER_CHARGES

@<TRIPOS>ATOM
      1 C1         -0.0166    1.3729    0.0096 C.ar      1 <0>        -0.1772
      2 C2          1.1713    2.0902    0.0021 C.ar      1 <0>        -0.0720
      3 C3          2.3853    1.4387   -0.0129 C.ar      1 <0>        -0.1863
      4 C4          2.4268    0.0478   -0.0208 C.ar      1 <0>         0.2063
      5 C5          1.2241   -0.6774   -0.0132 C.ar      1 <0>        -0.1858
      6 C6          0.0021   -0.0041    0.0020 C.ar      1 <0>        -0.0332
      7 C7          1.2815   -2.1505   -0.0216 C.2       1 <0>         0.4332
      8 C8          2.5613   -2.7653   -0.0372 C.2       1 <0>        -0.4098
      9 C9          3.7021   -1.9733   -0.0438 C.2       1 <0>         0.5137
     10 O1          4.9122   -2.5683   -0.0585 O.3       1 <0>        -0.6869
     11 N1          3.6345   -0.6206   -0.0363 N.pl3     1 <0>        -0.6309
     12 H1          4.4575   -0.1073   -0.0417 H         1 <0>         0.4042
     13 C10         2.6782   -4.2336   -0.0457 C.2       1 <0>         0.4315
     14 N2          3.8577   -4.9308   -0.0552 N.pl3     1 <0>        -0.5959
     15 H2          4.7505   -4.5517   -0.0577 H         1 <0>         0.4291
     16 C11         3.5370   -6.2768   -0.0604 C.ar      1 <0>         0.0211
     17 C12         4.2878   -7.4431   -0.0706 C.ar      1 <0>        -0.1084
     18 C13         3.6537   -8.6681   -0.0741 C.ar      1 <0>        -0.1374
     19 C14         2.2683   -8.7428   -0.0680 C.ar      1 <0>        -0.1381
     20 C15         1.5066   -7.5965   -0.0579 C.ar      1 <0>        -0.0859
     21 C16         2.1332   -6.3464   -0.0538 C.ar      1 <0>         0.0641
     22 N3          1.6678   -5.0724   -0.0397 N.2       1 <0>        -0.5120
     23 O2          0.2619   -2.8199   -0.0151 O.2       1 <0>        -0.5033
     24 H3         -0.9606    1.8973    0.0259 H         1 <0>         0.1207
     25 H4          1.1439    3.1698    0.0078 H         1 <0>         0.1213
     26 H5          3.3037    2.0070   -0.0190 H         1 <0>         0.1238
     27 H6         -0.9240   -0.5597    0.0082 H         1 <0>         0.1332
     28 H7          5.3666   -7.3922   -0.0760 H         1 <0>         0.1100
     29 H8          4.2396   -9.5753   -0.0819 H         1 <0>         0.1160
     30 H9          1.7837   -9.7081   -0.0715 H         1 <0>         0.1161
     31 H10         0.4286   -7.6623   -0.0536 H         1 <0>         0.1187
@<TRIPOS>BOND
     1    1    6 ar
     2    1    2 ar
     3    1   24 1
     4    2    3 ar
     5    2   25 1
     6    3    4 ar
     7    3   26 1
     8    4   11 1
     9    4    5 ar
    10    5    6 ar
    11    5    7 1
    12    6   27 1
    13    7    8 1
    14    7   23 2
    15    8    9 2
    16    8   13 1
    17    9   10 1
    18    9   11 1
    19   11   12 1
    20   13   22 2
    21   13   14 1
    22   14   15 1
    23   14   16 1
    24   16   21 ar
    25   16   17 ar
    26   17   18 ar
    27   17   28 1
    28   18   19 ar
    29   18   29 1
    30   19   20 ar
    31   19   30 1
    32   20   21 ar
    33   20   31 1
    34   21   22 1
@<TRIPOS>MOLECULE
ZINC02047743
   45    48     0     0     0
SMALL
USER_CHARGES
6-(2,6-dichlorophenyl)-8-methyl-2-[(3-methylsulfanylphenyl)amino]pyrido[6,5-d]pyrimidin-7-one
@<TRIPOS>ATOM
      1 C1         -3.2149    9.9478    6.3397 C.3       1 <0>         0.0697
      2 N1         -2.5718   10.5969    5.1946 N.am      1 <0>        -0.5056
      3 C2         -2.0976    9.8322    4.1588 C.ar      1 <0>         0.4667
      4 C3         -1.4757   10.4419    3.0477 C.ar      1 <0>        -0.2757
      5 C4         -1.3364   11.8476    2.9932 C.2       1 <0>         0.0302
      6 C5         -1.8127   12.6024    4.0314 C.2       1 <0>        -0.1631
      7 C6         -2.4525   11.9382    5.1691 C.2       1 <0>         0.5568
      8 O1         -2.8794   12.6023    6.0968 O.2       1 <0>        -0.5010
      9 C7         -1.6815   14.0779    4.0044 C.ar      1 <0>        -0.0104
     10 C8         -0.5524   14.6911    4.5489 C.ar      1 <0>        -0.0065
     11 C9         -0.4345   16.0668    4.5170 C.ar      1 <0>        -0.1064
     12 C10        -1.4368   16.8371    3.9553 C.ar      1 <0>        -0.0873
     13 C11        -2.5608   16.2358    3.4182 C.ar      1 <0>        -0.1064
     14 C12        -2.6891   14.8608    3.4397 C.ar      1 <0>        -0.0064
     15 Cl1        -4.1011   14.1082    2.7661 Cl        1 <0>        -0.0503
     16 Cl2         0.7038   13.7265    5.2597 Cl        1 <0>        -0.0500
     17 C13        -1.0042    9.6238    2.0101 C.ar      1 <0>         0.2643
     18 N2         -1.1563    8.3171    2.1171 N.ar      1 <0>        -0.5670
     19 C14        -1.7515    7.7784    3.1755 C.ar      1 <0>         0.6097
     20 N3         -2.2123    8.5091    4.1791 N.ar      1 <0>        -0.5950
     21 N4         -1.8899    6.4048    3.2340 N.pl3     1 <0>        -0.6257
     22 C15        -1.5197    5.6178    2.1394 C.ar      1 <0>         0.1772
     23 C16        -1.6834    6.1025    0.8470 C.ar      1 <0>        -0.1138
     24 C17        -1.3176    5.3259   -0.2354 C.ar      1 <0>        -0.0792
     25 C18        -0.7826    4.0675   -0.0375 C.ar      1 <0>        -0.1466
     26 C19        -0.6215    3.5742    1.2521 C.ar      1 <0>        -0.0629
     27 C20        -0.9883    4.3524    2.3421 C.ar      1 <0>        -0.1252
     28 S1          0.0539    1.9663    1.5035 S.3       1 <0>        -0.1153
     29 C21         0.3690    1.3552   -0.1751 C.3       1 <0>        -0.1440
     30 H1         -2.4636    9.7144    7.0942 H         1 <0>         0.0748
     31 H2         -3.9613   10.6184    6.7655 H         1 <0>         0.0924
     32 H3         -3.6983    9.0276    6.0115 H         1 <0>         0.0952
     33 H4         -0.8618   12.3189    2.1453 H         1 <0>         0.1508
     34 H5          0.4406   16.5425    4.9347 H         1 <0>         0.1438
     35 H6         -1.3415   17.9127    3.9363 H         1 <0>         0.1454
     36 H7         -3.3400   16.8429    2.9814 H         1 <0>         0.1438
     37 H8         -0.5227   10.0538    1.1443 H         1 <0>         0.1886
     38 H9         -2.2438    5.9866    4.0344 H         1 <0>         0.4277
     39 H10        -2.0974    7.0873    0.6888 H         1 <0>         0.1382
     40 H11        -1.4455    5.7052   -1.2385 H         1 <0>         0.1308
     41 H12        -0.4935    3.4647   -0.8857 H         1 <0>         0.1250
     42 H13        -0.8598    3.9737    3.3453 H         1 <0>         0.1313
     43 H14         0.7936    0.3527   -0.1231 H         1 <0>         0.1105
     44 H15         1.0700    2.0210   -0.6785 H         1 <0>         0.0855
     45 H16        -0.5673    1.3248   -0.7324 H         1 <0>         0.0854
@<TRIPOS>BOND
     1    1    2 1
     2    1   30 1
     3    1   31 1
     4    1   32 1
     5    2    7 am
     6    2    3 1
     7    3   20 ar
     8    3    4 ar
     9    4    5 1
    10    4   17 ar
    11    5    6 2
    12    5   33 1
    13    6    7 1
    14    6    9 1
    15    7    8 2
    16    9   14 ar
    17    9   10 ar
    18   10   11 ar
    19   10   16 1
    20   11   12 ar
    21   11   34 1
    22   12   13 ar
    23   12   35 1
    24   13   14 ar
    25   13   36 1
    26   14   15 1
    27   17   18 ar
    28   17   37 1
    29   18   19 ar
    30   19   20 ar
    31   19   21 1
    32   21   22 1
    33   21   38 1
    34   22   27 ar
    35   22   23 ar
    36   23   24 ar
    37   23   39 1
    38   24   25 ar
    39   24   40 1
    40   25   26 ar
    41   25   41 1
    42   26   27 ar
    43   26   28 1
    44   27   42 1
    45   28   29 1
    46   29   43 1
    47   29   44 1
    48   29   45 1
@<TRIPOS>MOLECULE
ZINC05387628
   28    31     0     0     0
SMALL
USER_CHARGES

@<TRIPOS>ATOM
      1 C1         -0.0167    1.3790    0.0096 C.ar      1 <0>        -0.1062
      2 C2          1.1686    2.0920    0.0021 C.ar      1 <0>        -0.1212
      3 C3          2.3774    1.4260   -0.0130 C.ar      1 <0>        -0.0859
      4 C4          2.4023    0.0328   -0.0207 C.ar      1 <0>        -0.0282
      5 C5          1.2051   -0.6804   -0.0131 C.ar      1 <0>        -0.0880
      6 C6          0.0021   -0.0041    0.0020 C.ar      1 <0>        -0.1191
      7 C7          3.6985   -0.6887   -0.0375 C.2       1 <0>         0.1620
      8 C8          3.9676   -1.9172    0.6064 C.2       1 <0>        -0.0526
      9 C9          5.2862   -2.2350    0.3397 C.2       1 <0>         0.0466
     10 C10         5.5400   -3.5131    1.0187 C.ar      1 <0>        -0.1120
     11 C11         6.6507   -4.3465    1.1341 C.ar      1 <0>        -0.0589
     12 C12         6.5578   -5.5106    1.8655 C.ar      1 <0>        -0.1396
     13 C13         5.3649   -5.8527    2.4841 C.ar      1 <0>        -0.0732
     14 C14         4.2589   -5.0364    2.3774 C.ar      1 <0>        -0.1165
     15 C15         4.3318   -3.8579    1.6449 C.ar      1 <0>         0.1046
     16 O1          3.4293   -2.8904    1.3768 O.3       1 <0>        -0.1733
     17 N1          5.8008   -1.2376   -0.4374 N.pl3     1 <0>        -0.4440
     18 H1          6.7072   -1.1918   -0.7798 H         1 <0>         0.4495
     19 N2          4.7885   -0.2951   -0.6588 N.2       1 <0>        -0.2315
     20 H2         -0.9603    1.9042    0.0260 H         1 <0>         0.1266
     21 H3          1.1482    3.1718    0.0078 H         1 <0>         0.1287
     22 H4          3.3023    1.9837   -0.0192 H         1 <0>         0.1289
     23 H5          1.2186   -1.7603   -0.0194 H         1 <0>         0.1267
     24 H6         -0.9264   -0.5557    0.0079 H         1 <0>         0.1290
     25 H7          7.5801   -4.0814    0.6521 H         1 <0>         0.1298
     26 H8          7.4168   -6.1589    1.9569 H         1 <0>         0.1358
     27 H9          5.3014   -6.7675    3.0547 H         1 <0>         0.1415
     28 H10         3.3350   -5.3134    2.8633 H         1 <0>         0.1402
@<TRIPOS>BOND
     1    1    6 ar
     2    1    2 ar
     3    1   20 1
     4    2    3 ar
     5    2   21 1
     6    3    4 ar
     7    3   22 1
     8    4    5 ar
     9    4    7 1
    10    5    6 ar
    11    5   23 1
    12    6   24 1
    13    7   19 2
    14    7    8 1
    15    8   16 1
    16    8    9 2
    17    9   10 1
    18    9   17 1
    19   10   15 ar
    20   10   11 ar
    21   11   12 ar
    22   11   25 1
    23   12   13 ar
    24   12   26 1
    25   13   14 ar
    26   13   27 1
    27   14   15 ar
    28   14   28 1
    29   15   16 1
    30   17   18 1
    31   17   19 1
@<TRIPOS>MOLECULE
ZINC43129461
   71    74     0     0     0
SMALL
USER_CHARGES

@<TRIPOS>ATOM
      1 C1          0.1412    1.0958    0.0245 C.3       1 <0>        -0.1877
      2 C2          0.0343   -0.4072    0.2899 C.3       1 <0>        -0.0130
      3 N1         -1.3805   -0.7840    0.4090 N.4       1 <0>        -0.3814
      4 C3         -1.4799   -2.1981    0.7943 C.3       1 <0>        -0.0136
      5 C4         -0.8912   -2.3880    2.1937 C.3       1 <0>        -0.1480
      6 C5         -0.9947   -3.8608    2.5950 C.3       1 <0>         0.0597
      7 O1         -0.4449   -4.0381    3.9021 O.3       1 <0>        -0.3038
      8 C6         -0.4591   -5.2969    4.4113 C.ar      1 <0>         0.1781
      9 C7         -0.9923   -6.3430    3.6529 C.ar      1 <0>        -0.2017
     10 C8         -1.0190   -7.6149    4.1393 C.ar      1 <0>        -0.0296
     11 C9         -0.5067   -7.8812    5.4148 C.ar      1 <0>        -0.2176
     12 C10         0.0360   -6.8274    6.1915 C.ar      1 <0>         0.2265
     13 C11         0.0576   -5.5295    5.6681 C.ar      1 <0>        -0.1532
     14 N2          0.5211   -7.1085    7.4106 N.ar      1 <0>        -0.5472
     15 C12         0.4917   -8.3369    7.8711 C.ar      1 <0>         0.3522
     16 N3         -0.0047   -9.3517    7.1826 N.ar      1 <0>        -0.5832
     17 C13        -0.5099   -9.1841    5.9669 C.ar      1 <0>         0.4869
     18 N4         -1.0246  -10.2512    5.2605 N.pl3     1 <0>        -0.6010
     19 C14        -1.0183  -11.5330    5.8248 C.2       1 <0>         0.3061
     20 C15        -0.5270  -11.8723    7.0959 C.2       1 <0>        -0.2334
     21 C16        -0.7020  -13.2023    7.2669 C.2       1 <0>         0.0995
     22 N5         -1.2813  -13.6907    6.1499 N.pl3     1 <0>        -0.4600
     23 H1         -1.5240  -14.6165    5.9920 H         1 <0>         0.4395
     24 N6         -1.4756  -12.6260    5.2606 N.2       1 <0>        -0.3132
     25 C17        -0.3179  -13.9980    8.4876 C.3       1 <0>        -0.0736
     26 C18        -1.4253  -13.9203    9.5069 C.2       1 <0>         0.5124
     27 O2         -2.4277  -13.2816    9.2656 O.2       1 <0>        -0.4954
     28 N7         -1.3017  -14.5605   10.6864 N.am      1 <0>        -0.6738
     29 C19        -2.2814  -14.4046   11.6731 C.ar      1 <0>         0.1731
     30 C20        -1.9205  -14.3798   13.0142 C.ar      1 <0>        -0.1549
     31 C21        -2.8887  -14.2254   13.9867 C.ar      1 <0>        -0.0711
     32 C22        -4.2176  -14.0957   13.6276 C.ar      1 <0>        -0.1683
     33 C23        -4.5819  -14.1198   12.2917 C.ar      1 <0>         0.1190
     34 C24        -3.6151  -14.2686   11.3132 C.ar      1 <0>        -0.1590
     35 F1         -5.8812  -13.9933   11.9436 F         1 <0>        -0.1348
     36 C25        -2.0520   -0.5798   -0.8814 C.3       1 <0>        -0.0107
     37 C26        -3.5536   -0.8245   -0.7194 C.3       1 <0>         0.0927
     38 O3         -4.1052    0.1612    0.1558 O.3       1 <0>        -0.7578
     39 P1         -5.6390    0.1400    0.6447 P.3       1 <0>         2.1017
     40 O4         -6.5846    0.1017   -0.6038 O.2       1 <0>        -1.1721
     41 O5         -5.8881   -1.1299    1.5277 O.3       1 <0>        -1.1714
     42 O6         -5.9368    1.4276    1.4860 O.3       1 <0>        -1.1488
     43 H2          1.1901    1.3923    0.0315 H         1 <0>         0.0965
     44 H3         -0.2947    1.3249   -0.9479 H         1 <0>         0.0817
     45 H4         -0.3956    1.6409    0.8008 H         1 <0>         0.0844
     46 H5          0.4880   -0.9552   -0.5360 H         1 <0>         0.1221
     47 H6          0.5544   -0.6504    1.2165 H         1 <0>         0.1246
     48 H7         -2.5268   -2.5014    0.7963 H         1 <0>         0.1454
     49 H8         -0.9260   -2.8087    0.0813 H         1 <0>         0.1270
     50 H9          0.1557   -2.0846    2.1918 H         1 <0>         0.0937
     51 H10        -1.4451   -1.7773    2.9068 H         1 <0>         0.1060
     52 H11        -2.0417   -4.1641    2.5970 H         1 <0>         0.0850
     53 H12        -0.4409   -4.4714    1.8820 H         1 <0>         0.0737
     54 H13        -1.3884   -6.1401    2.6689 H         1 <0>         0.1410
     55 H14        -1.4340   -8.4146    3.5438 H         1 <0>         0.1329
     56 H15         0.4717   -4.7162    6.2456 H         1 <0>         0.1504
     57 H16         0.8909   -8.5281    8.8563 H         1 <0>         0.1983
     58 H17        -1.3909  -10.1139    4.3729 H         1 <0>         0.4265
     59 H18        -0.0875  -11.1918    7.8102 H         1 <0>         0.1855
     60 H19        -0.1551  -15.0386    8.2067 H         1 <0>         0.1119
     61 H20         0.5980  -13.5893    8.9144 H         1 <0>         0.1297
     62 H21        -0.5335  -15.1293   10.8513 H         1 <0>         0.4154
     63 H22        -0.8830  -14.4817   13.2963 H         1 <0>         0.1340
     64 H23        -2.6076  -14.2062   15.0293 H         1 <0>         0.1384
     65 H24        -4.9729  -13.9757   14.3902 H         1 <0>         0.1374
     66 H25        -3.8982  -14.2834   10.2710 H         1 <0>         0.1503
     67 H26        -1.8850    0.4427   -1.2201 H         1 <0>         0.1337
     68 H27        -1.6475   -1.2764   -1.6158 H         1 <0>         0.1254
     69 H28        -4.0395   -0.7589   -1.6929 H         1 <0>         0.0845
     70 H29        -3.7166   -1.8165   -0.2981 H         1 <0>         0.0571
     71 H30        -1.8229   -0.2118    1.1126 H         1 <0>         0.4394
@<TRIPOS>BOND
     1    1    2 1
     2    1   43 1
     3    1   44 1
     4    1   45 1
     5    2    3 1
     6    2   46 1
     7    2   47 1
     8    3    4 1
     9    3   36 1
    10    3   71 1
    11    4    5 1
    12    4   48 1
    13    4   49 1
    14    5    6 1
    15    5   50 1
    16    5   51 1
    17    6    7 1
    18    6   52 1
    19    6   53 1
    20    7    8 1
    21    8   13 ar
    22    8    9 ar
    23    9   10 ar
    24    9   54 1
    25   10   11 ar
    26   10   55 1
    27   11   17 ar
    28   11   12 ar
    29   12   13 ar
    30   12   14 ar
    31   13   56 1
    32   14   15 ar
    33   15   16 ar
    34   15   57 1
    35   16   17 ar
    36   17   18 1
    37   18   19 1
    38   18   58 1
    39   19   24 2
    40   19   20 1
    41   20   21 2
    42   20   59 1
    43   21   22 1
    44   21   25 1
    45   22   23 1
    46   22   24 1
    47   25   26 1
    48   25   60 1
    49   25   61 1
    50   26   27 2
    51   26   28 am
    52   28   29 1
    53   28   62 1
    54   29   34 ar
    55   29   30 ar
    56   30   31 ar
    57   30   63 1
    58   31   32 ar
    59   31   64 1
    60   32   33 ar
    61   32   65 1
    62   33   34 ar
    63   33   35 1
    64   34   66 1
    65   36   37 1
    66   36   67 1
    67   36   68 1
    68   37   38 1
    69   37   69 1
    70   37   70 1
    71   38   39 1
    72   39   40 2
    73   39   41 1
    74   39   42 1
@<TRIPOS>MOLECULE
ZINC43129461
   73    76     0     0     0
SMALL
USER_CHARGES

@<TRIPOS>ATOM
      1 C1          0.1409    1.0918    0.0251 C.3       1 <0>        -0.1892
      2 C2          0.0339   -0.4112    0.2906 C.3       1 <0>        -0.0152
      3 N1         -1.3809   -0.7879    0.4099 N.4       1 <0>        -0.3842
      4 C3         -1.4803   -2.2020    0.7953 C.3       1 <0>        -0.0158
      5 C4         -0.8914   -2.3919    2.1946 C.3       1 <0>        -0.1503
      6 C5         -0.9949   -3.8647    2.5959 C.3       1 <0>         0.0579
      7 O1         -0.4450   -4.0420    3.9029 O.3       1 <0>        -0.2993
      8 C6         -0.4592   -5.3008    4.4121 C.ar      1 <0>         0.1817
      9 C7         -0.9925   -6.3469    3.6538 C.ar      1 <0>        -0.1818
     10 C8         -1.0193   -7.6187    4.1402 C.ar      1 <0>        -0.0436
     11 C9         -0.5068   -7.8851    5.4157 C.ar      1 <0>        -0.1976
     12 C10         0.0362   -6.8313    6.1923 C.ar      1 <0>         0.2239
     13 C11         0.0578   -5.5334    5.6688 C.ar      1 <0>        -0.1405
     14 N2          0.5214   -7.1125    7.4113 N.ar      1 <0>        -0.5107
     15 C12         0.4920   -8.3409    7.8718 C.ar      1 <0>         0.3510
     16 N3         -0.0046   -9.3556    7.1834 N.ar      1 <0>        -0.5709
     17 C13        -0.5099   -9.1879    5.9677 C.ar      1 <0>         0.4598
     18 N4         -1.0249  -10.2553    5.2612 N.pl3     1 <0>        -0.6021
     19 C14        -1.0187  -11.5304    5.8226 C.2       1 <0>         0.4560
     20 C15        -0.5390  -11.8669    7.0517 C.2       1 <0>        -0.2320
     21 C16        -0.7243  -13.2413    7.2224 C.2       1 <0>         0.2582
     22 N5         -1.2916  -13.7195    6.1448 N.pl3     1 <0>        -0.3700
     23 N6         -1.4952  -12.6642    5.2465 N.pl3     1 <0>        -0.4476
     24 C17        -0.3360  -14.0381    8.4412 C.3       1 <0>        -0.1008
     25 C18        -1.4386  -13.9586    9.4655 C.2       1 <0>         0.5174
     26 O2         -2.4410  -13.3180    9.2291 O.2       1 <0>        -0.5061
     27 N7         -1.3107  -14.5994   10.6443 N.am      1 <0>        -0.6579
     28 C19        -2.2856  -14.4419   11.6355 C.ar      1 <0>         0.1577
     29 C20        -1.9185  -14.4182   12.9750 C.ar      1 <0>        -0.1459
     30 C21        -2.8820  -14.2623   13.9520 C.ar      1 <0>        -0.0677
     31 C22        -4.2123  -14.1302   13.5990 C.ar      1 <0>        -0.1573
     32 C23        -4.5828  -14.1533   12.2647 C.ar      1 <0>         0.1189
     33 C24        -3.6207  -14.3035   11.2818 C.ar      1 <0>        -0.1569
     34 F1         -5.8834  -14.0244   11.9227 F         1 <0>        -0.1323
     35 C25        -2.0526   -0.5836   -0.8804 C.3       1 <0>        -0.0130
     36 C26        -3.5541   -0.8283   -0.7182 C.3       1 <0>         0.1008
     37 O3         -4.1055    0.1575    0.1571 O.3       1 <0>        -0.7650
     38 P1         -5.6393    0.1364    0.6462 P.3       1 <0>         2.2015
     39 O4         -6.5720    0.0987   -0.5849 O.2       1 <0>        -1.0927
     40 O5         -5.8849   -1.1160    1.5170 O.3       1 <0>        -1.0945
     41 O6         -5.9451    1.4596    1.5109 O.3       1 <0>        -0.8978
     42 H1          1.1898    1.3882    0.0319 H         1 <0>         0.1035
     43 H2         -0.2951    1.3210   -0.9472 H         1 <0>         0.0827
     44 H3         -0.3958    1.6370    0.8015 H         1 <0>         0.0823
     45 H4          0.4874   -0.9592   -0.5353 H         1 <0>         0.1283
     46 H5          0.5541   -0.6544    1.2171 H         1 <0>         0.1288
     47 H6         -2.5272   -2.5053    0.7974 H         1 <0>         0.1420
     48 H7         -0.9266   -2.8127    0.0821 H         1 <0>         0.1333
     49 H8          0.1555   -2.0886    2.1924 H         1 <0>         0.0995
     50 H9         -1.4451   -1.7812    2.9077 H         1 <0>         0.1051
     51 H10        -2.0419   -4.1679    2.5981 H         1 <0>         0.0848
     52 H11        -0.4412   -4.4754    1.8828 H         1 <0>         0.0778
     53 H12        -1.3888   -6.1439    2.6698 H         1 <0>         0.1468
     54 H13        -1.4344   -8.4184    3.5448 H         1 <0>         0.1339
     55 H14         0.4720   -4.7201    6.2463 H         1 <0>         0.1595
     56 H15         0.8913   -8.5321    8.8569 H         1 <0>         0.2128
     57 H16        -1.3914  -10.1180    4.3736 H         1 <0>         0.4383
     58 H17        -0.0939  -11.1915    7.7674 H         1 <0>         0.2299
     59 H18        -0.1764  -15.0788    8.1593 H         1 <0>         0.1396
     60 H19         0.5826  -13.6311    8.8639 H         1 <0>         0.1633
     61 H20        -0.5428  -15.1696   10.8056 H         1 <0>         0.4210
     62 H21        -0.8799  -14.5220   13.2523 H         1 <0>         0.1376
     63 H22        -2.5961  -14.2439   14.9933 H         1 <0>         0.1439
     64 H23        -4.9639  -14.0091   14.3651 H         1 <0>         0.1423
     65 H24        -3.9087  -14.3175   10.2410 H         1 <0>         0.1477
     66 H25        -1.8856    0.4389   -1.2191 H         1 <0>         0.1423
     67 H26        -1.6482   -1.2803   -1.6148 H         1 <0>         0.1408
     68 H27        -4.0402   -0.7626   -1.6916 H         1 <0>         0.1052
     69 H28        -3.7172   -1.8203   -0.2969 H         1 <0>         0.0749
     70 H29        -6.8531    1.5139    1.8391 H         1 <0>         0.4246
     71 H30        -1.8231   -0.2157    1.1136 H         1 <0>         0.4343
     72 H31        -1.9019  -12.7316    4.3685 H         1 <0>         0.4711
     73 H32        -1.5334  -14.6468    5.9949 H         1 <0>         0.4758
@<TRIPOS>BOND
     1    1    2 1
     2    1   42 1
     3    1   43 1
     4    1   44 1
     5    2    3 1
     6    2   45 1
     7    2   46 1
     8    3    4 1
     9    3   35 1
    10    3   71 1
    11    4    5 1
    12    4   47 1
    13    4   48 1
    14    5    6 1
    15    5   49 1
    16    5   50 1
    17    6    7 1
    18    6   51 1
    19    6   52 1
    20    7    8 1
    21    8   13 ar
    22    8    9 ar
    23    9   10 ar
    24    9   53 1
    25   10   11 ar
    26   10   54 1
    27   11   17 ar
    28   11   12 ar
    29   12   13 ar
    30   12   14 ar
    31   13   55 1
    32   14   15 ar
    33   15   16 ar
    34   15   56 1
    35   16   17 ar
    36   17   18 1
    37   18   19 1
    38   18   57 1
    39   19   20 2
    40   19   23 1
    41   20   58 1
    42   20   21 1
    43   21   24 1
    44   21   22 2
    45   22   23 1
    46   22   73 1
    47   23   72 1
    48   24   25 1
    49   24   59 1
    50   24   60 1
    51   25   26 2
    52   25   27 am
    53   27   28 1
    54   27   61 1
    55   28   33 ar
    56   28   29 ar
    57   29   30 ar
    58   29   62 1
    59   30   31 ar
    60   30   63 1
    61   31   32 ar
    62   31   64 1
    63   32   33 ar
    64   32   34 1
    65   33   65 1
    66   35   36 1
    67   35   66 1
    68   35   67 1
    69   36   37 1
    70   36   68 1
    71   36   69 1
    72   37   38 1
    73   38   39 2
    74   38   40 1
    75   38   41 1
    76   41   70 1
@<TRIPOS>MOLECULE
ZINC16052730
   56    60     0     0     0
SMALL
USER_CHARGES
N-(4-chlorophenyl)-6-[(6,7-dimethoxy-4-quinolyl)oxy]naphthalene-1-carboxamide
@<TRIPOS>ATOM
      1 C1          2.6893    6.4089    4.7046 C.3       1 <0>         0.0224
      2 O1          2.2948    7.7772    4.5854 O.3       1 <0>        -0.2990
      3 C2          2.1900    8.2821    3.3272 C.ar      1 <0>         0.1299
      4 C3          2.4587    7.4829    2.2539 C.ar      1 <0>        -0.1690
      5 C4          2.3501    8.0038    0.9558 C.ar      1 <0>        -0.1013
      6 C5          2.6199    7.2065   -0.1791 C.ar      1 <0>         0.1416
      7 C6          2.4858    7.7883   -1.4274 C.ar      1 <0>        -0.1800
      8 C7          2.1014    9.1193   -1.5294 C.ar      1 <0>         0.1403
      9 N1          1.8581    9.8525   -0.4685 N.ar      1 <0>        -0.4668
     10 C8          1.9680    9.3547    0.7690 C.ar      1 <0>         0.1528
     11 C9          1.7032   10.1536    1.8937 C.ar      1 <0>        -0.1720
     12 C10         1.8065    9.6185    3.1454 C.ar      1 <0>         0.1457
     13 O2          1.5442   10.3943    4.2298 O.3       1 <0>        -0.2992
     14 C11         1.1580   11.7475    3.9813 C.3       1 <0>         0.0206
     15 O3          2.9932    5.9094   -0.0491 O.3       1 <0>        -0.2514
     16 C12         2.0160    4.9669    0.0061 C.ar      1 <0>         0.1272
     17 C13         0.6756    5.3630    0.0344 C.ar      1 <0>        -0.1711
     18 C14        -0.3245    4.4408    0.0888 C.ar      1 <0>        -0.0761
     19 C15        -0.0107    3.0747    0.1179 C.ar      1 <0>        -0.0333
     20 C16         1.3458    2.6686    0.0894 C.ar      1 <0>        -0.0239
     21 C17         2.3557    3.6437    0.0328 C.ar      1 <0>        -0.1440
     22 C18         1.6598    1.2985    0.1178 C.ar      1 <0>        -0.0725
     23 C19         0.6642    0.3695    0.1722 C.ar      1 <0>        -0.1204
     24 C20        -0.6720    0.7481    0.1954 C.ar      1 <0>        -0.0743
     25 C21        -1.0277    2.0889    0.1749 C.ar      1 <0>        -0.1205
     26 C22        -2.4478    2.4839    0.2049 C.2       1 <0>         0.5656
     27 O4         -2.7561    3.6543    0.0854 O.2       1 <0>        -0.5074
     28 N2         -3.4044    1.5480    0.3648 N.am      1 <0>        -0.6646
     29 C23        -4.7402    1.9327    0.5207 C.ar      1 <0>         0.1524
     30 C24        -5.0479    3.1782    1.0527 C.ar      1 <0>        -0.1162
     31 C25        -6.3676    3.5576    1.2007 C.ar      1 <0>        -0.0870
     32 C26        -7.3829    2.6934    0.8301 C.ar      1 <0>        -0.0520
     33 C27        -7.0792    1.4497    0.3046 C.ar      1 <0>        -0.0872
     34 C28        -5.7612    1.0676    0.1492 C.ar      1 <0>        -0.1366
     35 Cl1        -9.0408    3.1706    1.0241 Cl        1 <0>        -0.0681
     36 H1          2.7339    6.1341    5.7584 H         1 <0>         0.1067
     37 H2          1.9633    5.7758    4.1944 H         1 <0>         0.0576
     38 H3          3.6714    6.2731    4.2517 H         1 <0>         0.0591
     39 H4          2.7532    6.4546    2.4031 H         1 <0>         0.1459
     40 H5          2.6796    7.2101   -2.3188 H         1 <0>         0.1476
     41 H6          2.0003    9.5631   -2.5088 H         1 <0>         0.1693
     42 H7          1.4071   11.1846    1.7681 H         1 <0>         0.1552
     43 H8          1.9544   12.2592    3.4408 H         1 <0>         0.0611
     44 H9          0.2464   11.7613    3.3840 H         1 <0>         0.0611
     45 H10         0.9788   12.2541    4.9296 H         1 <0>         0.1066
     46 H11         0.4301    6.4145    0.0125 H         1 <0>         0.1293
     47 H12        -1.3558    4.7605    0.1095 H         1 <0>         0.1742
     48 H13         3.3945    3.3491    0.0101 H         1 <0>         0.1420
     49 H14         2.6921    0.9816    0.0960 H         1 <0>         0.1370
     50 H15         0.9186   -0.6799    0.1931 H         1 <0>         0.1357
     51 H16        -1.4415   -0.0087    0.2344 H         1 <0>         0.1287
     52 H17        -3.1665    0.6077    0.3717 H         1 <0>         0.4133
     53 H18        -4.2559    3.8512    1.3461 H         1 <0>         0.1517
     54 H19        -6.6074    4.5277    1.6101 H         1 <0>         0.1381
     55 H20        -7.8735    0.7775    0.0156 H         1 <0>         0.1390
     56 H21        -5.5247    0.0970   -0.2613 H         1 <0>         0.1362
@<TRIPOS>BOND
     1    1    2 1
     2    1   36 1
     3    1   37 1
     4    1   38 1
     5    2    3 1
     6    3   12 ar
     7    3    4 ar
     8    4    5 ar
     9    4   39 1
    10    5   10 ar
    11    5    6 ar
    12    6    7 ar
    13    6   15 1
    14    7    8 ar
    15    7   40 1
    16    8    9 ar
    17    8   41 1
    18    9   10 ar
    19   10   11 ar
    20   11   12 ar
    21   11   42 1
    22   12   13 1
    23   13   14 1
    24   14   43 1
    25   14   44 1
    26   14   45 1
    27   15   16 1
    28   16   21 ar
    29   16   17 ar
    30   17   18 ar
    31   17   46 1
    32   18   19 ar
    33   18   47 1
    34   19   25 ar
    35   19   20 ar
    36   20   21 ar
    37   20   22 ar
    38   21   48 1
    39   22   23 ar
    40   22   49 1
    41   23   24 ar
    42   23   50 1
    43   24   25 ar
    44   24   51 1
    45   25   26 1
    46   26   27 2
    47   26   28 am
    48   28   29 1
    49   28   52 1
    50   29   34 ar
    51   29   30 ar
    52   30   31 ar
    53   30   53 1
    54   31   32 ar
    55   31   54 1
    56   32   33 ar
    57   32   35 1
    58   33   34 ar
    59   33   55 1
    60   34   56 1
@<TRIPOS>MOLECULE
ZINC02064362
   45    48     0     0     0
SMALL
USER_CHARGES

@<TRIPOS>ATOM
      1 C1         -0.0050    1.2556    1.2013 C.ar      1 <0>        -0.1135
      2 C2          1.1644    1.9682    1.4276 C.ar      1 <0>        -0.0914
      3 C3          2.3809    1.3155    1.3532 C.ar      1 <0>        -0.0693
      4 C4          2.4105   -0.0253    1.0571 C.ar      1 <0>        -0.1422
      5 C5          1.2364   -0.7790    0.8214 C.ar      1 <0>         0.0755
      6 C6          0.0132   -0.0718    0.9074 C.ar      1 <0>        -0.0571
      7 N1          1.4257   -2.0836    0.5426 N.2       1 <0>        -0.4791
      8 C7          2.6216   -2.6293    0.4909 C.2       1 <0>         0.2034
      9 S1          3.6884   -1.2436    0.8607 S.3       1 <0>         0.0045
     10 C8          2.9893   -4.0306    0.2016 C.ar      1 <0>        -0.0452
     11 C9          4.3300   -4.4171    0.1996 C.ar      1 <0>        -0.0268
     12 C10         4.6675   -5.7327   -0.0720 C.ar      1 <0>         0.1075
     13 C11         3.6736   -6.6665   -0.3423 C.ar      1 <0>        -0.0765
     14 C12         2.3451   -6.2898   -0.3416 C.ar      1 <0>        -0.1412
     15 C13         1.9935   -4.9778   -0.0658 C.ar      1 <0>         0.1730
     16 O1          0.6857   -4.6105   -0.0601 O.3       1 <0>        -0.4731
     17 N2          6.0129   -6.1230   -0.0746 N.pl3     1 <0>        -0.6175
     18 C14         6.8486   -5.6676    0.8798 C.2       1 <0>         0.5033
     19 S2          6.2386   -4.7282    2.1745 S.2       1 <0>        -0.4611
     20 N3          8.1645   -5.9517    0.8148 N.am      1 <0>        -0.6375
     21 C15         9.0001   -5.4963    1.7691 C.2       1 <0>         0.5323
     22 O2          8.5671   -4.8295    2.6882 O.2       1 <0>        -0.3823
     23 C16        10.4429   -5.8078    1.6979 C.ar      1 <0>        -0.0854
     24 C17        10.9445   -6.5687    0.6403 C.ar      1 <0>        -0.0906
     25 C18        12.2925   -6.8554    0.5796 C.ar      1 <0>        -0.0578
     26 C19        13.1468   -6.3907    1.5639 C.ar      1 <0>        -0.0229
     27 C20        12.6562   -5.6365    2.6151 C.ar      1 <0>        -0.0551
     28 C21        11.3113   -5.3376    2.6848 C.ar      1 <0>        -0.0518
     29 N4         14.5921   -6.7023    1.4923 N.pl3     1 <0>         0.0261
     30 O3         15.0236   -7.3615    0.5752 O.2       1 <0>        -0.1476
     31 O4         15.3410   -6.2977    2.3508 O.3       1 <0>        -0.1442
     32 H1         -0.9538    1.7675    1.2646 H         1 <0>         0.1351
     33 H2          1.1245    3.0224    1.6590 H         1 <0>         0.1398
     34 H3          3.3001    1.8554    1.5262 H         1 <0>         0.1345
     35 H4         -0.9172   -0.5932    0.7378 H         1 <0>         0.1340
     36 H5          5.1026   -3.6922    0.4088 H         1 <0>         0.1504
     37 H6          3.9418   -7.6910   -0.5542 H         1 <0>         0.1389
     38 H7          1.5779   -7.0200   -0.5528 H         1 <0>         0.1473
     39 H8          0.3569   -4.3134   -0.9196 H         1 <0>         0.3968
     40 H9          6.3431   -6.7210   -0.7633 H         1 <0>         0.4113
     41 H10         8.5101   -6.4839    0.0812 H         1 <0>         0.4110
     42 H11        10.2787   -6.9323   -0.1284 H         1 <0>         0.1470
     43 H12        12.6819   -7.4442   -0.2377 H         1 <0>         0.1638
     44 H13        13.3283   -5.2775    3.3804 H         1 <0>         0.1666
     45 H14        10.9303   -4.7451    3.5034 H         1 <0>         0.1667
@<TRIPOS>BOND
     1    1    6 ar
     2    1    2 ar
     3    1   32 1
     4    2    3 ar
     5    2   33 1
     6    3    4 ar
     7    3   34 1
     8    4    9 1
     9    4    5 ar
    10    5    6 ar
    11    5    7 1
    12    6   35 1
    13    7    8 2
    14    8    9 1
    15    8   10 1
    16   10   15 ar
    17   10   11 ar
    18   11   12 ar
    19   11   36 1
    20   12   13 ar
    21   12   17 1
    22   13   14 ar
    23   13   37 1
    24   14   15 ar
    25   14   38 1
    26   15   16 1
    27   16   39 1
    28   17   18 1
    29   17   40 1
    30   18   19 2
    31   18   20 1
    32   20   21 am
    33   20   41 1
    34   21   22 2
    35   21   23 1
    36   23   28 ar
    37   23   24 ar
    38   24   25 ar
    39   24   42 1
    40   25   26 ar
    41   25   43 1
    42   26   27 ar
    43   26   29 1
    44   27   28 ar
    45   27   44 1
    46   28   45 1
    47   29   30 2
    48   29   31 1
@<TRIPOS>MOLECULE
ZINC11617039
   55    58     0     0     0
SMALL
USER_CHARGES

@<TRIPOS>ATOM
      1 H1          0.2120    6.2074    3.3921 H         1 <0>         0.1353
      2 C1         -0.6814    5.6062    3.3098 C.ar      1 <0>         0.0196
      3 C2         -1.0741    5.1311    2.1031 C.ar      1 <0>        -0.1998
      4 C3         -2.2288    4.3474    1.9606 C.ar      1 <0>         0.2426
      5 C4         -3.0111    4.0257    3.0293 C.ar      1 <0>        -0.1858
      6 C5         -2.6578    4.4884    4.3143 C.ar      1 <0>         0.1374
      7 C6         -1.4433    5.3059    4.4600 C.ar      1 <0>        -0.2352
      8 C7         -1.3367    5.6110    5.8041 C.2       1 <0>         0.1330
      9 N1         -2.3705    5.0424    6.4391 N.pl3     1 <0>        -0.3190
     10 N2         -3.1795    4.3626    5.5213 N.2       1 <0>        -0.3200
     11 C8         -2.6225    5.1281    7.8797 C.3       1 <0>         0.0831
     12 H2         -3.2434    5.9992    8.0888 H         1 <0>         0.0888
     13 H3         -3.1369    4.2268    8.2129 H         1 <0>         0.0992
     14 H4         -1.6744    5.2222    8.4094 H         1 <0>         0.0983
     15 C9         -0.2495    6.4365    6.4425 C.3       1 <0>        -0.1025
     16 H5         -0.5455    7.4855    6.4477 H         1 <0>         0.0927
     17 H6         -0.0907    6.0987    7.4666 H         1 <0>         0.0807
     18 H7          0.6740    6.3223    5.8749 H         1 <0>         0.0943
     19 H8         -3.8955    3.4210    2.8932 H         1 <0>         0.1075
     20 N3         -2.5862    3.8853    0.6908 N.pl3     1 <0>        -0.5925
     21 C10        -3.6562    3.0160    0.5454 C.ar      1 <0>         0.5430
     22 C11        -3.4766    1.6392    0.6984 C.ar      1 <0>        -0.2193
     23 C12        -4.5711    0.8111    0.5450 C.ar      1 <0>         0.2156
     24 N4         -5.7510    1.3422    0.2594 N.ar      1 <0>        -0.5411
     25 C13        -5.8925    2.6520    0.1199 C.ar      1 <0>         0.6254
     26 N5         -4.8692    3.4808    0.2639 N.ar      1 <0>        -0.5160
     27 N6         -7.1427    3.1682   -0.1788 N.pl3     1 <0>        -0.6061
     28 C14        -7.2911    4.5338   -0.4396 C.ar      1 <0>         0.0902
     29 C15        -6.2697    5.2382   -1.0645 C.ar      1 <0>        -0.0370
     30 C16        -6.4197    6.5867   -1.3210 C.ar      1 <0>        -0.1186
     31 C17        -7.5850    7.2362   -0.9562 C.ar      1 <0>         0.0334
     32 C18        -8.6034    6.5381   -0.3338 C.ar      1 <0>        -0.6606
     33 C19        -8.4623    5.1877   -0.0798 C.ar      1 <0>        -0.0140
     34 S1        -10.0857    7.3705    0.1294 S.o2      1 <0>         2.7024
     35 O1        -10.5091    8.1093   -1.0082 O.2       1 <0>        -0.9461
     36 O2        -10.9137    6.4040    0.7615 O.2       1 <0>        -0.9598
     37 N7         -9.6818    8.4799    1.2907 N.pl3     1 <0>        -1.2481
     38 C20        -7.7450    8.7080   -1.2374 C.3       1 <0>        -0.1567
     39 H9         -8.1929    8.8433   -2.2218 H         1 <0>         0.1090
     40 H10        -8.3897    9.1545   -0.4804 H         1 <0>         0.0769
     41 H11        -6.7680    9.1908   -1.2132 H         1 <0>         0.0924
     42 H12        -4.4665   -0.2581    0.6563 H         1 <0>         0.2280
     43 H13        -2.5039    1.2316    0.9310 H         1 <0>         0.1988
     44 C21        -1.8301    4.3196   -0.4864 C.3       1 <0>         0.0917
     45 H14        -1.0078    3.6271   -0.6659 H         1 <0>         0.0746
     46 H15        -2.4881    4.3354   -1.3553 H         1 <0>         0.0729
     47 H16        -1.4320    5.3196   -0.3140 H         1 <0>         0.0953
     48 H17        -0.4834    5.3620    1.2289 H         1 <0>         0.1346
     49 H18        -7.9152    2.5823   -0.2071 H         1 <0>         0.4391
     50 H19        -5.3592    4.7318   -1.3490 H         1 <0>         0.1427
     51 H20        -5.6260    7.1349   -1.8068 H         1 <0>         0.1482
     52 H21        -9.2599    4.6421    0.4024 H         1 <0>         0.1564
     53 H22        -8.7604    8.5635    1.5820 H         1 <0>         0.4174
     54 H23       -10.3667    9.0460    1.6797 H         1 <0>         0.4270
     55 H24        -6.5221    0.7638    0.1506 H         1 <0>         0.4504
@<TRIPOS>BOND
     1    1    2 1
     2    2    7 ar
     3    2    3 ar
     4    3    4 ar
     5    3   48 1
     6    4    5 ar
     7    4   20 1
     8    5    6 ar
     9    5   19 1
    10    6   10 2
    11    6    7 ar
    12    7    8 2
    13    8    9 1
    14    8   15 1
    15    9   10 1
    16    9   11 1
    17   11   12 1
    18   11   13 1
    19   11   14 1
    20   15   16 1
    21   15   17 1
    22   15   18 1
    23   20   21 1
    24   20   44 1
    25   21   26 ar
    26   21   22 ar
    27   22   23 ar
    28   22   43 1
    29   23   24 ar
    30   23   42 1
    31   24   25 ar
    32   24   55 1
    33   25   26 ar
    34   25   27 1
    35   27   28 1
    36   27   49 1
    37   28   33 ar
    38   28   29 ar
    39   29   30 ar
    40   29   50 1
    41   30   31 ar
    42   30   51 1
    43   31   32 ar
    44   31   38 1
    45   32   33 ar
    46   32   34 1
    47   33   52 1
    48   34   35 2
    49   34   36 2
    50   34   37 1
    51   37   53 1
    52   37   54 1
    53   38   39 1
    54   38   40 1
    55   38   41 1
    56   44   45 1
    57   44   46 1
    58   44   47 1
@<TRIPOS>MOLECULE
ZINC40423853
   72    77     0     0     0
SMALL
USER_CHARGES

@<TRIPOS>ATOM
      1 C1          2.2379    1.3842   -0.2342 C.3       1 <0>        -0.0473
      2 N1          2.0950   -0.0778   -0.2340 N.4       1 <0>        -0.3852
      3 C2          2.3510   -0.5928    1.1164 C.3       1 <0>        -0.0072
      4 C3          2.2832   -2.1215    1.1048 C.3       1 <0>        -0.1412
      5 C4          0.8905   -2.5617    0.6445 C.3       1 <0>        -0.0508
      6 C5          0.6045   -1.9576   -0.7334 C.3       1 <0>        -0.1411
      7 C6          0.7345   -0.4350   -0.6536 C.3       1 <0>        -0.0070
      8 C7          0.8410   -4.0652    0.5556 C.ar      1 <0>        -0.1132
      9 C8          1.7052   -4.7351   -0.2911 C.ar      1 <0>        -0.0936
     10 C9          1.6627   -6.1130   -0.3746 C.ar      1 <0>        -0.1063
     11 C10         0.7508   -6.8260    0.3931 C.ar      1 <0>         0.1731
     12 C11        -0.1158   -6.1500    1.2425 C.ar      1 <0>        -0.1391
     13 C12        -0.0645   -4.7724    1.3252 C.ar      1 <0>        -0.0851
     14 N2          0.7049   -8.2209    0.3106 N.pl3     1 <0>        -0.6282
     15 C13         1.8651   -8.9385    0.0937 C.ar      1 <0>         0.6099
     16 N3          3.0240   -8.2890    0.0752 N.ar      1 <0>        -0.5706
     17 C14         4.1613   -8.9305   -0.1280 C.ar      1 <0>         0.2834
     18 C15         4.1194  -10.3120   -0.3238 C.ar      1 <0>        -0.3313
     19 C16         5.3361  -11.1038   -0.5559 C.2       1 <0>         0.4546
     20 O1          6.4377  -10.5834   -0.5870 O.2       1 <0>        -0.4810
     21 C17         5.1647  -12.5548   -0.7488 C.2       1 <0>        -0.3113
     22 C18         3.8948  -13.0872   -0.7027 C.2       1 <0>         0.2582
     23 N4          2.8056  -12.3289   -0.4878 N.pl3     1 <0>        -0.4194
     24 C19         2.8738  -10.9709   -0.2983 C.ar      1 <0>         0.4674
     25 N5          1.7802  -10.2481   -0.0825 N.ar      1 <0>        -0.5809
     26 C20         1.5509  -12.9492   -0.4559 C.ar      1 <0>         0.0883
     27 C21         1.2863  -13.9382    0.4827 C.ar      1 <0>        -0.1031
     28 C22         0.0480  -14.5458    0.5100 C.ar      1 <0>        -0.0925
     29 C23        -0.9333  -14.1744   -0.3952 C.ar      1 <0>        -0.0738
     30 C24        -0.6729  -13.1902   -1.3310 C.ar      1 <0>        -0.0858
     31 C25         0.5659  -12.5741   -1.3581 C.ar      1 <0>        -0.0652
     32 C26        -1.8957  -12.9701   -2.1958 C.3       1 <0>        -0.0822
     33 C27        -2.7753  -14.2193   -1.9772 C.3       1 <0>        -0.1217
     34 C28        -2.3491  -14.6821   -0.5678 C.3       1 <0>        -0.0880
     35 C29         6.3305  -13.4204   -0.9871 C.2       1 <0>         0.5966
     36 O2          6.1706  -14.5976   -1.2487 O.2       1 <0>        -0.5314
     37 N6          7.5754  -12.9090   -0.9156 N.am      1 <0>        -0.5864
     38 O3          8.6911  -13.7114   -1.2572 O.3       1 <0>        -0.1461
     39 C30         9.9476  -13.0417   -1.1356 C.3       1 <0>         0.0006
     40 H1          1.5174    1.8198    0.4581 H         1 <0>         0.1214
     41 H2          3.2479    1.6506    0.0773 H         1 <0>         0.1237
     42 H3          2.0544    1.7671   -1.2381 H         1 <0>         0.1236
     43 H4          3.3412   -0.2760    1.4439 H         1 <0>         0.1315
     44 H5          1.5999   -0.2014    1.8025 H         1 <0>         0.1287
     45 H6          3.0341   -2.5139    0.4192 H         1 <0>         0.0906
     46 H7          2.4718   -2.5018    2.1087 H         1 <0>         0.1143
     47 H8          0.1437   -2.2128    1.3576 H         1 <0>         0.0951
     48 H9          1.3206   -2.3466   -1.4572 H         1 <0>         0.0901
     49 H10        -0.4068   -2.2207   -1.0433 H         1 <0>         0.1139
     50 H11         0.0179   -0.0470    0.0702 H         1 <0>         0.1288
     51 H12         0.5313   -0.0016   -1.6329 H         1 <0>         0.1312
     52 H13         2.4138   -4.1801   -0.8880 H         1 <0>         0.1216
     53 H14         2.3377   -6.6355   -1.0363 H         1 <0>         0.1388
     54 H15        -0.8262   -6.7014    1.8405 H         1 <0>         0.1306
     55 H16        -0.7352   -4.2465    1.9885 H         1 <0>         0.1285
     56 H17        -0.1417   -8.6848    0.4058 H         1 <0>         0.4293
     57 H18         5.1010   -8.3984   -0.1425 H         1 <0>         0.1942
     58 H19         3.7699  -14.1506   -0.8446 H         1 <0>         0.1944
     59 H20         2.0483  -14.2307    1.1900 H         1 <0>         0.1352
     60 H21        -0.1575  -15.3147    1.2400 H         1 <0>         0.1355
     61 H22         0.7678  -11.8022   -2.0860 H         1 <0>         0.1235
     62 H23        -2.4271  -12.0730   -1.8781 H         1 <0>         0.0831
     63 H24        -1.6080  -12.8888   -3.2440 H         1 <0>         0.0783
     64 H25        -3.8330  -13.9565   -1.9953 H         1 <0>         0.0815
     65 H26        -2.5524  -14.9850   -2.7203 H         1 <0>         0.0768
     66 H27        -2.3711  -15.7701   -0.5043 H         1 <0>         0.0826
     67 H28        -3.0023  -14.2451    0.1874 H         1 <0>         0.0863
     68 H29         7.7072  -11.9914   -0.6302 H         1 <0>         0.4186
     69 H30         9.9619  -12.1736   -1.7947 H         1 <0>         0.0568
     70 H31        10.0882  -12.7174   -0.1045 H         1 <0>         0.0563
     71 H32        10.7511  -13.7232   -1.4150 H         1 <0>         0.1145
     72 H33         2.7606   -0.4799   -0.8769 H         1 <0>         0.4244
@<TRIPOS>BOND
     1    1    2 1
     2    1   40 1
     3    1   41 1
     4    1   42 1
     5    2    7 1
     6    2    3 1
     7    2   72 1
     8    3    4 1
     9    3   43 1
    10    3   44 1
    11    4    5 1
    12    4   45 1
    13    4   46 1
    14    5    6 1
    15    5    8 1
    16    5   47 1
    17    6    7 1
    18    6   48 1
    19    6   49 1
    20    7   50 1
    21    7   51 1
    22    8   13 ar
    23    8    9 ar
    24    9   10 ar
    25    9   52 1
    26   10   11 ar
    27   10   53 1
    28   11   12 ar
    29   11   14 1
    30   12   13 ar
    31   12   54 1
    32   13   55 1
    33   14   15 1
    34   14   56 1
    35   15   25 ar
    36   15   16 ar
    37   16   17 ar
    38   17   18 ar
    39   17   57 1
    40   18   24 ar
    41   18   19 1
    42   19   20 2
    43   19   21 1
    44   21   22 2
    45   21   35 1
    46   22   23 1
    47   22   58 1
    48   23   24 1
    49   23   26 1
    50   24   25 ar
    51   26   31 ar
    52   26   27 ar
    53   27   28 ar
    54   27   59 1
    55   28   29 ar
    56   28   60 1
    57   29   34 1
    58   29   30 ar
    59   30   31 ar
    60   30   32 1
    61   31   61 1
    62   32   33 1
    63   32   62 1
    64   32   63 1
    65   33   34 1
    66   33   64 1
    67   33   65 1
    68   34   66 1
    69   34   67 1
    70   35   36 2
    71   35   37 am
    72   37   38 1
    73   37   68 1
    74   38   39 1
    75   39   69 1
    76   39   70 1
    77   39   71 1
@<TRIPOS>MOLECULE
ZINC22449469
   74    78     0     0     0
SMALL
USER_CHARGES

@<TRIPOS>ATOM
      1 C1          1.6200   -1.5857   -4.2133 C.3       1 <0>        -0.0457
      2 N1          1.1042   -2.2979   -3.0366 N.4       1 <0>        -0.3891
      3 C2          0.6210   -3.6248   -3.4407 C.3       1 <0>        -0.0013
      4 C3          0.0663   -4.3599   -2.2185 C.3       1 <0>         0.0260
      5 N2          1.1250   -4.4920   -1.2077 N.3       1 <0>        -0.5236
      6 C4          1.6361   -3.1722   -0.8115 C.3       1 <0>         0.0190
      7 C5          2.1778   -2.4469   -2.0453 C.3       1 <0>         0.0004
      8 C6          0.6468   -5.2437   -0.0397 C.3       1 <0>         0.0382
      9 C7          1.8119   -5.5712    0.8583 C.2       1 <0>         0.5151
     10 O1          2.9305   -5.2135    0.5552 O.2       1 <0>        -0.5111
     11 N3          1.6108   -6.2614    1.9984 N.am      1 <0>        -0.5638
     12 C8          0.2491   -6.6000    2.4192 C.3       1 <0>         0.0714
     13 C9          2.7039   -6.6550    2.7807 C.ar      1 <0>         0.0880
     14 C10         3.4772   -5.6979    3.4248 C.ar      1 <0>        -0.0594
     15 C11         4.5546   -6.0855    4.1955 C.ar      1 <0>        -0.1576
     16 C12         4.8653   -7.4333    4.3273 C.ar      1 <0>         0.2055
     17 C13         4.0913   -8.3905    3.6832 C.ar      1 <0>        -0.1610
     18 C14         3.0108   -8.0027    2.9168 C.ar      1 <0>        -0.0724
     19 N4          5.9572   -7.8262    5.1077 N.pl3     1 <0>        -0.6661
     20 C15         6.3653   -9.1334    5.1054 C.2       1 <0>         0.3219
     21 C16         6.3952   -9.8552    6.2951 C.2       1 <0>        -0.2136
     22 C17         6.9454  -11.2087    6.5011 C.ar      1 <0>        -0.0552
     23 C18         7.5608  -12.1327    5.6578 C.ar      1 <0>        -0.0866
     24 C19         7.9740  -13.3370    6.1503 C.ar      1 <0>        -0.0786
     25 C20         7.7818  -13.6478    7.5020 C.ar      1 <0>        -0.0930
     26 C21         7.1664  -12.7290    8.3549 C.ar      1 <0>        -0.0681
     27 C22         6.7458  -11.5064    7.8599 C.ar      1 <0>         0.1311
     28 N5          6.1180  -10.4193    8.4558 N.am      1 <0>        -0.6517
     29 C23         5.9079   -9.4383    7.5621 C.2       1 <0>         0.5643
     30 O2          5.3815   -8.3650    7.7999 O.2       1 <0>        -0.5077
     31 C24         8.2305  -14.9501    8.0268 C.2       1 <0>         0.5078
     32 O3          8.0650  -15.2223    9.1995 O.2       1 <0>        -0.4988
     33 O4          8.8243  -15.8390    7.2060 O.3       1 <0>        -0.3474
     34 C25         9.2338  -17.0810    7.7821 C.3       1 <0>         0.0336
     35 C26         6.7731   -9.7761    3.8428 C.ar      1 <0>        -0.0960
     36 C27         6.1914  -10.9850    3.4502 C.ar      1 <0>        -0.0837
     37 C28         6.5780  -11.5802    2.2679 C.ar      1 <0>        -0.1219
     38 C29         7.5393  -10.9837    1.4707 C.ar      1 <0>        -0.0938
     39 C30         8.1197   -9.7868    1.8528 C.ar      1 <0>        -0.1198
     40 C31         7.7392   -9.1768    3.0296 C.ar      1 <0>        -0.0769
     41 H1          2.4418   -2.1530   -4.6501 H         1 <0>         0.1233
     42 H2          0.8234   -1.4750   -4.9491 H         1 <0>         0.1241
     43 H3          1.9775   -0.6004   -3.9138 H         1 <0>         0.1242
     44 H4         -0.1666   -3.5132   -4.1859 H         1 <0>         0.1374
     45 H5          1.4451   -4.1976   -3.8661 H         1 <0>         0.1387
     46 H6         -0.7667   -3.7942   -1.8010 H         1 <0>         0.0624
     47 H7         -0.2787   -5.3503   -2.5154 H         1 <0>         0.1251
     48 H8          0.8290   -2.5869   -0.3708 H         1 <0>         0.0569
     49 H9          2.4363   -3.2960   -0.0819 H         1 <0>         0.1392
     50 H10         2.9939   -3.0257   -2.4778 H         1 <0>         0.1396
     51 H11         2.5444   -1.4620   -1.7560 H         1 <0>         0.1359
     52 H12        -0.0767   -4.6408    0.5091 H         1 <0>         0.0780
     53 H13         0.1728   -6.1675   -0.3713 H         1 <0>         0.1196
     54 H14        -0.0313   -7.5661    1.9996 H         1 <0>         0.0664
     55 H15         0.2070   -6.6504    3.5072 H         1 <0>         0.0835
     56 H16        -0.4417   -5.8353    2.0639 H         1 <0>         0.0741
     57 H17         3.2356   -4.6503    3.3224 H         1 <0>         0.1234
     58 H18         5.1564   -5.3412    4.6958 H         1 <0>         0.1317
     59 H19         4.3328   -9.4382    3.7852 H         1 <0>         0.1304
     60 H20         2.4064   -8.7470    2.4197 H         1 <0>         0.1270
     61 H21         6.4255   -7.1729    5.6506 H         1 <0>         0.4225
     62 H22         7.7103  -11.8958    4.6148 H         1 <0>         0.1426
     63 H23         8.4499  -14.0521    5.4956 H         1 <0>         0.1460
     64 H24         7.0188  -12.9715    9.3969 H         1 <0>         0.1450
     65 H25         5.8689  -10.3731    9.3921 H         1 <0>         0.4213
     66 H26         9.6960  -17.7023    7.0150 H         1 <0>         0.1062
     67 H27         9.9531  -16.8923    8.5790 H         1 <0>         0.0634
     68 H28         8.3646  -17.5957    8.1915 H         1 <0>         0.0633
     69 H29         5.4414  -11.4518    4.0714 H         1 <0>         0.1312
     70 H30         6.1297  -12.5145    1.9634 H         1 <0>         0.1329
     71 H31         7.8383  -11.4548    0.5460 H         1 <0>         0.1291
     72 H32         8.8692   -9.3272    1.2256 H         1 <0>         0.1298
     73 H33         8.1894   -8.2403    3.3241 H         1 <0>         0.1256
     74 H34         0.3438   -1.7723   -2.6321 H         1 <0>         0.4216
@<TRIPOS>BOND
     1    1    2 1
     2    1   41 1
     3    1   42 1
     4    1   43 1
     5    2    7 1
     6    2    3 1
     7    2   74 1
     8    3    4 1
     9    3   44 1
    10    3   45 1
    11    4    5 1
    12    4   46 1
    13    4   47 1
    14    5    6 1
    15    5    8 1
    16    6    7 1
    17    6   48 1
    18    6   49 1
    19    7   50 1
    20    7   51 1
    21    8    9 1
    22    8   52 1
    23    8   53 1
    24    9   10 2
    25    9   11 am
    26   11   12 1
    27   11   13 1
    28   12   54 1
    29   12   55 1
    30   12   56 1
    31   13   18 ar
    32   13   14 ar
    33   14   15 ar
    34   14   57 1
    35   15   16 ar
    36   15   58 1
    37   16   17 ar
    38   16   19 1
    39   17   18 ar
    40   17   59 1
    41   18   60 1
    42   19   20 1
    43   19   61 1
    44   20   21 2
    45   20   35 1
    46   21   29 1
    47   21   22 1
    48   22   27 ar
    49   22   23 ar
    50   23   24 ar
    51   23   62 1
    52   24   25 ar
    53   24   63 1
    54   25   26 ar
    55   25   31 1
    56   26   27 ar
    57   26   64 1
    58   27   28 1
    59   28   29 am
    60   28   65 1
    61   29   30 2
    62   31   32 2
    63   31   33 1
    64   33   34 1
    65   34   66 1
    66   34   67 1
    67   34   68 1
    68   35   40 ar
    69   35   36 ar
    70   36   37 ar
    71   36   69 1
    72   37   38 ar
    73   37   70 1
    74   38   39 ar
    75   38   71 1
    76   39   40 ar
    77   39   72 1
    78   40   73 1
@<TRIPOS>MOLECULE
ZINC22449469
   74    78     0     0     0
SMALL
USER_CHARGES

@<TRIPOS>ATOM
      1 C1          1.8905   -1.2340   -4.0590 C.3       1 <0>        -0.0458
      2 N1          1.3432   -1.9811   -2.9188 N.4       1 <0>        -0.3890
      3 C2          0.8615   -3.2907   -3.3776 C.3       1 <0>        -0.0014
      4 C3          0.2741   -4.0618   -2.1935 C.3       1 <0>         0.0262
      5 N2          1.3081   -4.2342   -1.1633 N.3       1 <0>        -0.5238
      6 C4          1.8177   -2.9316   -0.7121 C.3       1 <0>         0.0192
      7 C5          2.3924   -2.1698   -1.9084 C.3       1 <0>         0.0003
      8 C6          0.7983   -5.0207   -0.0322 C.3       1 <0>         0.0382
      9 C7          1.9402   -5.3854    0.8812 C.2       1 <0>         0.5153
     10 O1          3.0677   -5.0255    0.6160 O.2       1 <0>        -0.5102
     11 N3          1.7084   -6.1114    1.9929 N.am      1 <0>        -0.5650
     12 C8          0.3349   -6.4504    2.3732 C.3       1 <0>         0.0715
     13 C9          2.7808   -6.5416    2.7845 C.ar      1 <0>         0.0916
     14 C10         3.5480   -5.6144    3.4777 C.ar      1 <0>        -0.0599
     15 C11         4.6051   -6.0381    4.2575 C.ar      1 <0>        -0.1595
     16 C12         4.9014   -7.3924    4.3493 C.ar      1 <0>         0.1982
     17 C13         4.1335   -8.3198    3.6561 C.ar      1 <0>        -0.1559
     18 C14         3.0733   -7.8959    2.8806 C.ar      1 <0>        -0.0721
     19 N4          5.9727   -7.8219    5.1389 N.pl3     1 <0>        -0.6763
     20 C15         6.3653   -9.1334    5.1054 C.2       1 <0>         0.3268
     21 C16         6.3747   -9.8871    6.2755 C.2       1 <0>        -0.2173
     22 C17         5.8714   -9.4788    7.6010 C.ar      1 <0>        -0.0582
     23 C18         5.2751   -8.3148    8.0839 C.ar      1 <0>        -0.0826
     24 C19         4.9077   -8.2295    9.3960 C.ar      1 <0>        -0.0794
     25 C20         5.1278   -9.3094   10.2598 C.ar      1 <0>        -0.0935
     26 C21         5.7244  -10.4797    9.7858 C.ar      1 <0>        -0.0677
     27 C22         6.0986  -10.5706    8.4560 C.ar      1 <0>         0.1336
     28 N5          6.6987  -11.5836    7.7179 N.am      1 <0>        -0.6522
     29 C23         6.8650  -11.2099    6.4381 C.2       1 <0>         0.5658
     30 O2          7.3595  -11.8945    5.5593 O.2       1 <0>        -0.4960
     31 C24         4.7285   -9.2103   11.6753 C.2       1 <0>         0.5076
     32 O3          4.9184  -10.1459   12.4271 O.2       1 <0>        -0.4977
     33 O4          4.1530   -8.0820   12.1357 O.3       1 <0>        -0.3483
     34 C25         3.7917   -8.0554   13.5180 C.3       1 <0>         0.0336
     35 C26         6.7781   -9.7469    3.8300 C.ar      1 <0>        -0.0992
     36 C27         7.7088   -9.1031    3.0096 C.ar      1 <0>        -0.0767
     37 C28         8.0901   -9.6831    1.8180 C.ar      1 <0>        -0.1285
     38 C29         7.5536  -10.8996    1.4337 C.ar      1 <0>        -0.0915
     39 C30         6.6315  -11.5430    2.2407 C.ar      1 <0>        -0.1238
     40 C31         6.2450  -10.9781    3.4378 C.ar      1 <0>        -0.0444
     41 H1          2.7189   -1.7923   -4.4952 H         1 <0>         0.1234
     42 H2          1.1121   -1.0939   -4.8090 H         1 <0>         0.1241
     43 H3          2.2468   -0.2616   -3.7190 H         1 <0>         0.1243
     44 H4          0.0922   -3.1493   -4.1367 H         1 <0>         0.1375
     45 H5          1.6919   -3.8547   -3.8024 H         1 <0>         0.1388
     46 H6         -0.5649   -3.5046   -1.7769 H         1 <0>         0.0625
     47 H7         -0.0698   -5.0395   -2.5308 H         1 <0>         0.1252
     48 H8          1.0041   -2.3558   -0.2710 H         1 <0>         0.0569
     49 H9          2.6000   -3.0849    0.0314 H         1 <0>         0.1391
     50 H10         3.2149   -2.7396   -2.3408 H         1 <0>         0.1397
     51 H11         2.7581   -1.1975   -1.5783 H         1 <0>         0.1360
     52 H12         0.0659   -4.4313    0.5194 H         1 <0>         0.0781
     53 H13         0.3267   -5.9299   -0.4050 H         1 <0>         0.1197
     54 H14         0.0548   -7.3992    1.9155 H         1 <0>         0.0665
     55 H15         0.2690   -6.5368    3.4578 H         1 <0>         0.0836
     56 H16        -0.3411   -5.6676    2.0294 H         1 <0>         0.0743
     57 H17         3.3176   -4.5617    3.4063 H         1 <0>         0.1240
     58 H18         5.2021   -5.3170    4.7959 H         1 <0>         0.1324
     59 H19         4.3638   -9.3725    3.7270 H         1 <0>         0.1315
     60 H20         2.4736   -8.6172    2.3452 H         1 <0>         0.1276
     61 H21         6.4376   -7.1909    5.7103 H         1 <0>         0.4197
     62 H22         5.1041   -7.4803    7.4200 H         1 <0>         0.1318
     63 H23         4.4466   -7.3269    9.7687 H         1 <0>         0.1453
     64 H24         5.8937  -11.3109   10.4544 H         1 <0>         0.1456
     65 H25         6.9586  -12.4463    8.0773 H         1 <0>         0.4220
     66 H26         3.3396   -7.0928   13.7569 H         1 <0>         0.1059
     67 H27         3.0773   -8.8530   13.7222 H         1 <0>         0.0634
     68 H28         4.6825   -8.2002   14.1292 H         1 <0>         0.0637
     69 H29         8.1281   -8.1536    3.3081 H         1 <0>         0.1218
     70 H30         8.8088   -9.1866    1.1829 H         1 <0>         0.1266
     71 H31         7.8557  -11.3489    0.4992 H         1 <0>         0.1258
     72 H32         6.2171  -12.4921    1.9342 H         1 <0>         0.1277
     73 H33         5.5290  -11.4837    4.0688 H         1 <0>         0.1222
     74 H34         0.5767   -1.4639   -2.5148 H         1 <0>         0.4215
@<TRIPOS>BOND
     1    1    2 1
     2    1   41 1
     3    1   42 1
     4    1   43 1
     5    2    7 1
     6    2    3 1
     7    2   74 1
     8    3    4 1
     9    3   44 1
    10    3   45 1
    11    4    5 1
    12    4   46 1
    13    4   47 1
    14    5    6 1
    15    5    8 1
    16    6    7 1
    17    6   48 1
    18    6   49 1
    19    7   50 1
    20    7   51 1
    21    8    9 1
    22    8   52 1
    23    8   53 1
    24    9   10 2
    25    9   11 am
    26   11   12 1
    27   11   13 1
    28   12   54 1
    29   12   55 1
    30   12   56 1
    31   13   18 ar
    32   13   14 ar
    33   14   15 ar
    34   14   57 1
    35   15   16 ar
    36   15   58 1
    37   16   17 ar
    38   16   19 1
    39   17   18 ar
    40   17   59 1
    41   18   60 1
    42   19   20 1
    43   19   61 1
    44   20   21 2
    45   20   35 1
    46   21   29 1
    47   21   22 1
    48   22   27 ar
    49   22   23 ar
    50   23   24 ar
    51   23   62 1
    52   24   25 ar
    53   24   63 1
    54   25   26 ar
    55   25   31 1
    56   26   27 ar
    57   26   64 1
    58   27   28 1
    59   28   29 am
    60   28   65 1
    61   29   30 2
    62   31   32 2
    63   31   33 1
    64   33   34 1
    65   34   66 1
    66   34   67 1
    67   34   68 1
    68   35   40 ar
    69   35   36 ar
    70   36   37 ar
    71   36   69 1
    72   37   38 ar
    73   37   70 1
    74   38   39 ar
    75   38   71 1
    76   39   40 ar
    77   39   72 1
    78   40   73 1
@<TRIPOS>MOLECULE
ZINC22449469
   74    78     0     0     0
SMALL
USER_CHARGES
methyl (3Z)-3-[[[4-[methyl-[2-(4-methylpiperazin-1-yl)acetyl]amino]phenyl]amino]-phenyl-methylene]-2-oxo-indoline-6-carboxylate
@<TRIPOS>ATOM
      1 C1          0.1652    5.0587   11.0404 C.3       1 <0>         0.0170
      2 N1         -0.6347    3.9333   10.5391 N.3       1 <0>        -0.5443
      3 C2         -2.0308    4.3361   10.3193 C.3       1 <0>         0.0236
      4 C3         -2.8461    3.1196    9.8748 C.3       1 <0>         0.0014
      5 N2         -2.2617    2.5640    8.6461 N.4       1 <0>        -0.3901
      6 C4         -0.8656    2.1612    8.8658 C.3       1 <0>        -0.0065
      7 C5         -0.0503    3.3777    9.3105 C.3       1 <0>         0.0276
      8 C6         -3.0617    1.4385    8.1448 C.3       1 <0>        -0.0258
      9 C7         -2.5819    1.0548    6.7688 C.2       1 <0>         0.5001
     10 O1         -1.6638    1.6593    6.2560 O.2       1 <0>        -0.5159
     11 N3         -3.1730    0.0397    6.1077 N.am      1 <0>        -0.5369
     12 C8         -4.3571   -0.6115    6.6732 C.3       1 <0>         0.0561
     13 C9         -2.6550   -0.3923    4.8802 C.ar      1 <0>         0.0686
     14 C10        -2.1981   -1.6963    4.7398 C.ar      1 <0>        -0.0707
     15 C11        -1.6877   -2.1223    3.5303 C.ar      1 <0>        -0.1615
     16 C12        -1.6311   -1.2466    2.4531 C.ar      1 <0>         0.2147
     17 C13        -2.0829    0.0594    2.5955 C.ar      1 <0>        -0.1620
     18 C14        -2.5981    0.4835    3.8037 C.ar      1 <0>        -0.0511
     19 N4         -1.1140   -1.6781    1.2275 N.pl3     1 <0>        -0.6878
     20 C15        -1.1902   -0.8653    0.1280 C.2       1 <0>         0.3236
     21 C16        -0.0287   -0.4841   -0.5375 C.2       1 <0>        -0.2114
     22 C17         1.3623   -0.7433   -0.1192 C.ar      1 <0>        -0.0646
     23 C18         1.9295   -1.3932    0.9760 C.ar      1 <0>        -0.0818
     24 C19         3.2872   -1.4754    1.0932 C.ar      1 <0>        -0.0834
     25 C20         4.1134   -0.9070    0.1160 C.ar      1 <0>        -0.0924
     26 C21         3.5550   -0.2533   -0.9845 C.ar      1 <0>        -0.0705
     27 C22         2.1787   -0.1681   -1.1078 C.ar      1 <0>         0.1323
     28 N5          1.3573    0.4066   -2.0702 N.am      1 <0>        -0.6654
     29 C23         0.0617    0.2348   -1.7588 C.2       1 <0>         0.5711
     30 O2         -0.8834    0.6280   -2.4204 O.2       1 <0>        -0.4973
     31 C24         5.5786   -0.9986    0.2497 C.2       1 <0>         0.5077
     32 O3          6.2979   -0.5058   -0.5967 O.2       1 <0>        -0.4988
     33 O4          6.1203   -1.6288    1.3107 O.3       1 <0>        -0.3540
     34 C25         7.5699   -1.6805    1.3771 C.3       1 <0>         0.0322
     35 C26        -2.5026   -0.3941   -0.3509 C.ar      1 <0>        -0.0949
     36 C27        -2.7281    0.9706   -0.5522 C.ar      1 <0>        -0.0530
     37 C28        -3.9568    1.4035   -1.0044 C.ar      1 <0>        -0.1214
     38 C29        -4.9686    0.4914   -1.2491 C.ar      1 <0>        -0.0933
     39 C30        -4.7543   -0.8609   -1.0475 C.ar      1 <0>        -0.1255
     40 C31        -3.5293   -1.3092   -0.6001 C.ar      1 <0>        -0.0791
     41 H1         -0.2936    5.4546   11.9584 H         1 <0>         0.0842
     42 H2          0.2021    5.8507   10.2779 H         1 <0>         0.0400
     43 H3          1.1863    4.7136   11.2602 H         1 <0>         0.0849
     44 H4         -2.4485    4.7366   11.2548 H         1 <0>         0.1258
     45 H5         -2.0706    5.1104    9.5390 H         1 <0>         0.0617
     46 H6         -2.8290    2.3572   10.6675 H         1 <0>         0.1380
     47 H7         -3.8852    3.4250    9.6822 H         1 <0>         0.1378
     48 H8         -0.8259    1.3868    9.6460 H         1 <0>         0.1317
     49 H9         -0.4479    1.7608    7.9303 H         1 <0>         0.1492
     50 H10        -0.0673    4.1411    8.5187 H         1 <0>         0.0627
     51 H11         0.9888    3.0732    9.5039 H         1 <0>         0.1239
     52 H12        -2.9527    0.5800    8.8238 H         1 <0>         0.1598
     53 H13        -4.1200    1.7345    8.0949 H         1 <0>         0.1615
     54 H14        -4.6947   -1.4102    5.9963 H         1 <0>         0.0999
     55 H15        -5.1605    0.1300    6.7948 H         1 <0>         0.0772
     56 H16        -4.1053   -1.0434    7.6530 H         1 <0>         0.0761
     57 H17        -2.2418   -2.3769    5.5772 H         1 <0>         0.1304
     58 H18        -1.3321   -3.1362    3.4211 H         1 <0>         0.1365
     59 H19        -2.0349    0.7416    1.7597 H         1 <0>         0.1323
     60 H20        -2.9528    1.4976    3.9134 H         1 <0>         0.1242
     61 H21        -0.6461   -2.6703    1.1467 H         1 <0>         0.4459
     62 H22         1.2948   -1.8325    1.7313 H         1 <0>         0.1305
     63 H23         3.7250   -1.9799    1.9418 H         1 <0>         0.1438
     64 H24         4.1946    0.1846   -1.7366 H         1 <0>         0.1452
     65 H25         1.8006    0.9148   -2.9392 H         1 <0>         0.4486
     66 H26         7.8763   -2.2190    2.2860 H         1 <0>         0.1072
     67 H27         7.9724   -0.6571    1.4039 H         1 <0>         0.0669
     68 H28         7.9590   -2.2045    0.4917 H         1 <0>         0.0678
     69 H29        -1.9408    1.6840   -0.3578 H         1 <0>         0.1196
     70 H30        -4.1315    2.4573   -1.1637 H         1 <0>         0.1271
     71 H31        -5.9301    0.8367   -1.5995 H         1 <0>         0.1266
     72 H32        -5.5485   -1.5668   -1.2404 H         1 <0>         0.1279
     73 H33        -3.3634   -2.3649   -0.4432 H         1 <0>         0.1225
     74 H34        -2.2711    3.3521    7.8788 H         1 <0>         0.4460
@<TRIPOS>BOND
     1    1    2 1
     2    1   41 1
     3    1   42 1
     4    1   43 1
     5    2    7 1
     6    2    3 1
     7    3    4 1
     8    3   44 1
     9    3   45 1
    10    4    5 1
    11    4   46 1
    12    4   47 1
    13    5    6 1
    14    5    8 1
    15    5   74 1
    16    6    7 1
    17    6   48 1
    18    6   49 1
    19    7   50 1
    20    7   51 1
    21    8    9 1
    22    8   52 1
    23    8   53 1
    24    9   10 2
    25    9   11 am
    26   11   12 1
    27   11   13 1
    28   12   54 1
    29   12   55 1
    30   12   56 1
    31   13   18 ar
    32   13   14 ar
    33   14   15 ar
    34   14   57 1
    35   15   16 ar
    36   15   58 1
    37   16   17 ar
    38   16   19 1
    39   17   18 ar
    40   17   59 1
    41   18   60 1
    42   19   20 1
    43   19   61 1
    44   20   21 2
    45   20   35 1
    46   21   29 1
    47   21   22 1
    48   22   27 ar
    49   22   23 ar
    50   23   24 ar
    51   23   62 1
    52   24   25 ar
    53   24   63 1
    54   25   26 ar
    55   25   31 1
    56   26   27 ar
    57   26   64 1
    58   27   28 1
    59   28   29 am
    60   28   65 1
    61   29   30 2
    62   31   32 2
    63   31   33 1
    64   33   34 1
    65   34   66 1
    66   34   67 1
    67   34   68 1
    68   35   40 ar
    69   35   36 ar
    70   36   37 ar
    71   36   69 1
    72   37   38 ar
    73   37   70 1
    74   38   39 ar
    75   38   71 1
    76   39   40 ar
    77   39   72 1
    78   40   73 1
@<TRIPOS>MOLECULE
ZINC55760827
   83    87     0     0     0
SMALL
USER_CHARGES

@<TRIPOS>ATOM
      1 C1          0.1308    1.2757   -1.5114 C.3       1 <0>        -0.1457
      2 C2          0.0489   -0.2316   -1.2617 C.3       1 <0>        -0.5666
      3 C3          1.2691   -0.6821   -0.4560 C.3       1 <0>        -0.1409
      4 S1         -1.4624   -0.6093   -0.3323 S.o2      1 <0>         2.4858
      5 O1         -1.4234    0.0188    0.9418 O.2       1 <0>        -0.9268
      6 O2         -2.6005   -0.4734   -1.1723 O.2       1 <0>        -0.9405
      7 C4         -1.3622   -2.3341    0.0135 C.ar      1 <0>        -0.6839
      8 C5         -1.2554   -2.7725    1.3190 C.ar      1 <0>        -0.0030
      9 C6         -1.1772   -4.1258    1.5912 C.ar      1 <0>        -0.1503
     10 C7         -1.2056   -5.0450    0.5581 C.ar      1 <0>        -0.0467
     11 C8         -1.3123   -4.6135   -0.7492 C.ar      1 <0>        -0.1331
     12 C9         -1.3964   -3.2546   -1.0259 C.ar      1 <0>         0.2443
     13 N1         -1.5099   -2.8147   -2.3478 N.pl3     1 <0>        -0.6616
     14 C10        -0.8607   -3.4990   -3.3646 C.ar      1 <0>         0.4830
     15 C11        -0.8842   -3.0123   -4.6745 C.ar      1 <0>        -0.2526
     16 C12        -0.2236   -3.7275   -5.6550 C.ar      1 <0>         0.2363
     17 N2          0.4082   -4.8455   -5.3272 N.ar      1 <0>        -0.5723
     18 C13         0.4137   -5.2832   -4.0770 C.ar      1 <0>         0.5997
     19 N3         -0.2026   -4.6244   -3.1067 N.ar      1 <0>        -0.5908
     20 N4          1.0856   -6.4561   -3.7754 N.pl3     1 <0>        -0.6151
     21 C14         1.8542   -7.0973   -4.7591 C.ar      1 <0>         0.0827
     22 C15         2.3739   -6.3680   -5.8182 C.ar      1 <0>        -0.0385
     23 C16         3.1307   -6.9985   -6.7873 C.ar      1 <0>        -0.2089
     24 C17         3.3726   -8.3634   -6.7029 C.ar      1 <0>         0.2363
     25 C18         2.8541   -9.0969   -5.6442 C.ar      1 <0>        -0.2647
     26 C19         2.1002   -8.4653   -4.6693 C.ar      1 <0>         0.1479
     27 O3          1.5961   -9.1808   -3.6285 O.3       1 <0>        -0.3171
     28 C20         1.8884  -10.5793   -3.6006 C.3       1 <0>         0.0308
     29 N5          4.1389   -8.9999   -7.6857 N.pl3     1 <0>        -0.6295
     30 C21         4.7972   -8.2205   -8.7431 C.3       1 <0>         0.1228
     31 C22         4.3883   -8.7923  -10.1042 C.3       1 <0>        -0.1329
     32 C23         4.7023  -10.2897  -10.1391 C.3       1 <0>         0.0908
     33 C24         3.8977  -11.0068   -9.0526 C.3       1 <0>        -0.1308
     34 C25         4.3056  -10.4596   -7.6763 C.3       1 <0>         0.1234
     35 N6          4.3421  -10.8347  -11.4549 N.3       1 <0>        -0.5357
     36 C26         5.0321  -10.1106  -12.5318 C.3       1 <0>         0.0201
     37 C27         4.5853  -10.6681  -13.8850 C.3       1 <0>        -0.0022
     38 N7          4.9025  -12.1007  -13.9534 N.4       1 <0>        -0.3883
     39 C28         4.1869  -12.8138  -12.8872 C.3       1 <0>        -0.0021
     40 C29         4.6303  -12.2741  -11.5256 C.3       1 <0>         0.0207
     41 C30         4.4898  -12.6315  -15.2595 C.3       1 <0>        -0.0459
     42 Cl1        -1.7246   -1.5432   -5.0610 Cl        1 <0>        -0.0377
     43 H1          1.0389    1.5027   -2.0698 H         1 <0>         0.0885
     44 H2         -0.7385    1.5967   -2.0853 H         1 <0>         0.0736
     45 H3          0.1503    1.8016   -0.5568 H         1 <0>         0.0788
     46 H4          0.0294   -0.7574   -2.2162 H         1 <0>         0.1318
     47 H5          2.1772   -0.4551   -1.0145 H         1 <0>         0.0814
     48 H6          1.2886   -0.1562    0.4985 H         1 <0>         0.0798
     49 H7          1.2107   -1.7559   -0.2782 H         1 <0>         0.0704
     50 H8         -1.2325   -2.0574    2.1279 H         1 <0>         0.1501
     51 H9         -1.0933   -4.4659    2.6128 H         1 <0>         0.1365
     52 H10        -1.1440   -6.1014    0.7741 H         1 <0>         0.1352
     53 H11        -1.3341   -5.3318   -1.5555 H         1 <0>         0.1523
     54 H12        -2.0426   -2.0307   -2.5540 H         1 <0>         0.4348
     55 H13        -0.2223   -3.3794   -6.6774 H         1 <0>         0.1828
     56 H14         1.0250   -6.8344   -2.8843 H         1 <0>         0.4275
     57 H15         2.1866   -5.3065   -5.8858 H         1 <0>         0.1583
     58 H16         3.5343   -6.4292   -7.6115 H         1 <0>         0.1269
     59 H17         3.0423  -10.1584   -5.5787 H         1 <0>         0.1320
     60 H18         1.4922  -11.0513   -4.4997 H         1 <0>         0.0544
     61 H19         2.9680  -10.7241   -3.5600 H         1 <0>         0.0558
     62 H20         1.4281  -11.0293   -2.7210 H         1 <0>         0.1025
     63 H21         4.4859   -7.1780   -8.6762 H         1 <0>         0.0942
     64 H22         5.8789   -8.2891   -8.6279 H         1 <0>         0.0623
     65 H23         3.3196   -8.6410  -10.2562 H         1 <0>         0.0830
     66 H24         4.9438   -8.2856  -10.8934 H         1 <0>         0.0745
     67 H25         5.7671  -10.4417   -9.9625 H         1 <0>         0.0537
     68 H26         2.8336  -10.8347   -9.2145 H         1 <0>         0.0823
     69 H27         4.1040  -12.0763   -9.0933 H         1 <0>         0.0730
     70 H28         5.3481  -10.7071   -7.4760 H         1 <0>         0.0623
     71 H29         3.6699  -10.8950   -6.9053 H         1 <0>         0.0877
     72 H30         4.7834   -9.0509  -12.4750 H         1 <0>         0.1272
     73 H31         6.1092  -10.2381  -12.4236 H         1 <0>         0.0603
     74 H32         3.5103  -10.5282  -13.9986 H         1 <0>         0.1375
     75 H33         5.1067  -10.1420  -14.6847 H         1 <0>         0.1357
     76 H34         3.1139  -12.6629  -13.0058 H         1 <0>         0.1374
     77 H35         4.4128  -13.8785  -12.9471 H         1 <0>         0.1354
     78 H36         5.7008  -12.4372  -11.4009 H         1 <0>         0.0602
     79 H37         4.0885  -12.7929  -10.7348 H         1 <0>         0.1256
     80 H38         5.0217  -12.1033  -16.0508 H         1 <0>         0.1244
     81 H39         4.7251  -13.6946  -15.3105 H         1 <0>         0.1242
     82 H40         3.4165  -12.4904  -15.3864 H         1 <0>         0.1232
     83 H41         5.8962  -12.2309  -13.8366 H         1 <0>         0.4222
@<TRIPOS>BOND
     1    1    2 1
     2    1   43 1
     3    1   44 1
     4    1   45 1
     5    2    3 1
     6    2    4 1
     7    2   46 1
     8    3   47 1
     9    3   48 1
    10    3   49 1
    11    4    5 2
    12    4    6 2
    13    4    7 1
    14    7   12 ar
    15    7    8 ar
    16    8    9 ar
    17    8   50 1
    18    9   10 ar
    19    9   51 1
    20   10   11 ar
    21   10   52 1
    22   11   12 ar
    23   11   53 1
    24   12   13 1
    25   13   14 1
    26   13   54 1
    27   14   19 ar
    28   14   15 ar
    29   15   16 ar
    30   15   42 1
    31   16   17 ar
    32   16   55 1
    33   17   18 ar
    34   18   19 ar
    35   18   20 1
    36   20   21 1
    37   20   56 1
    38   21   26 ar
    39   21   22 ar
    40   22   23 ar
    41   22   57 1
    42   23   24 ar
    43   23   58 1
    44   24   25 ar
    45   24   29 1
    46   25   26 ar
    47   25   59 1
    48   26   27 1
    49   27   28 1
    50   28   60 1
    51   28   61 1
    52   28   62 1
    53   29   34 1
    54   29   30 1
    55   30   31 1
    56   30   63 1
    57   30   64 1
    58   31   32 1
    59   31   65 1
    60   31   66 1
    61   32   33 1
    62   32   35 1
    63   32   67 1
    64   33   34 1
    65   33   68 1
    66   33   69 1
    67   34   70 1
    68   34   71 1
    69   35   40 1
    70   35   36 1
    71   36   37 1
    72   36   72 1
    73   36   73 1
    74   37   38 1
    75   37   74 1
    76   37   75 1
    77   38   39 1
    78   38   41 1
    79   38   83 1
    80   39   40 1
    81   39   76 1
    82   39   77 1
    83   40   78 1
    84   40   79 1
    85   41   80 1
    86   41   81 1
    87   41   82 1
