@<TRIPOS>MOLECULE
ZINC13812765
   54    58     0     0     0
SMALL
USER_CHARGES
6-(2,6-dichlorophenyl)-8-methyl-2-[(4-morpholinophenyl)amino]pyrido[6,5-d]pyrimidin-7-one
@<TRIPOS>ATOM
      1 C1          0.0687    1.0901    0.1116 C.3       1 <0>         0.0701
      2 N1         -0.4256    1.5832    1.3995 N.am      1 <0>        -0.5063
      3 C2         -0.5381    2.9341    1.6116 C.ar      1 <0>         0.4672
      4 C3         -1.0181    3.4257    2.8449 C.ar      1 <0>        -0.2783
      5 C4         -1.3766    2.5289    3.8770 C.2       1 <0>         0.0316
      6 C5         -1.2558    1.1827    3.6582 C.2       1 <0>        -0.1650
      7 C6         -0.7600    0.7060    2.3653 C.2       1 <0>         0.5578
      8 O1         -0.6498   -0.4900    2.1622 O.2       1 <0>        -0.5029
      9 C7         -1.6228    0.2170    4.7202 C.ar      1 <0>        -0.0099
     10 C8         -0.6646   -0.2107    5.6401 C.ar      1 <0>        -0.0065
     11 C9         -1.0148   -1.1067    6.6311 C.ar      1 <0>        -0.1065
     12 C10        -2.3092   -1.5888    6.7060 C.ar      1 <0>        -0.0874
     13 C11        -3.2624   -1.1733    5.7937 C.ar      1 <0>        -0.1064
     14 C12        -2.9268   -0.2732    4.8013 C.ar      1 <0>        -0.0065
     15 Cl1        -4.1243    0.2466    3.6571 Cl        1 <0>        -0.0502
     16 Cl2         0.9621    0.3876    5.5434 Cl        1 <0>        -0.0503
     17 C13        -1.1231    4.8139    3.0190 C.ar      1 <0>         0.2640
     18 N2         -0.7738    5.6040    2.0212 N.ar      1 <0>        -0.5685
     19 C14        -0.3309    5.1056    0.8720 C.ar      1 <0>         0.6086
     20 N3         -0.2147    3.8034    0.6608 N.ar      1 <0>        -0.5957
     21 N4          0.0216    5.9777   -0.1395 N.pl3     1 <0>        -0.6241
     22 C15        -0.1990    7.3525    0.0126 C.ar      1 <0>         0.1313
     23 C16        -1.3055    7.8041    0.7199 C.ar      1 <0>        -0.0798
     24 C17        -1.5204    9.1593    0.8740 C.ar      1 <0>        -0.1488
     25 C18        -0.6355   10.0708    0.3129 C.ar      1 <0>         0.0971
     26 C19         0.4681    9.6192   -0.3990 C.ar      1 <0>        -0.1172
     27 C20         0.6855    8.2640   -0.5489 C.ar      1 <0>        -0.1155
     28 N5         -0.8562   11.4443    0.4644 N.pl3     1 <0>        -0.4872
     29 C21         0.3065   12.0999    1.0805 C.3       1 <0>         0.0198
     30 C22         0.0470   13.6060    1.1727 C.3       1 <0>         0.0611
     31 O2         -1.1567   13.8329    1.9108 O.3       1 <0>        -0.3827
     32 C23        -2.3093   13.2091    1.3385 C.3       1 <0>         0.0615
     33 C24        -2.0737   11.6990    1.2481 C.3       1 <0>         0.0123
     34 H1          0.0953    0.0006    0.1257 H         1 <0>         0.1006
     35 H2          1.0730    1.4758   -0.0638 H         1 <0>         0.0800
     36 H3         -0.5943    1.4272   -0.6852 H         1 <0>         0.0803
     37 H4         -1.7407    2.8999    4.8237 H         1 <0>         0.1502
     38 H5         -0.2753   -1.4351    7.3464 H         1 <0>         0.1437
     39 H6         -2.5767   -2.2930    7.4799 H         1 <0>         0.1454
     40 H7         -4.2711   -1.5537    5.8574 H         1 <0>         0.1437
     41 H8         -1.4818    5.2273    3.9501 H         1 <0>         0.1873
     42 H9          0.4219    5.6381   -0.9552 H         1 <0>         0.4261
     43 H10        -1.9958    7.0952    1.1528 H         1 <0>         0.1359
     44 H11        -2.3786    9.5104    1.4276 H         1 <0>         0.1305
     45 H12         1.1560   10.3280   -0.8357 H         1 <0>         0.1300
     46 H13         1.5438    7.9128   -1.1025 H         1 <0>         0.1287
     47 H14         0.4646   11.6960    2.0805 H         1 <0>         0.0544
     48 H15         1.1916   11.9198    0.4704 H         1 <0>         0.0931
     49 H16        -0.0578   14.0192    0.1695 H         1 <0>         0.0625
     50 H17         0.8818   14.0894    1.6801 H         1 <0>         0.1034
     51 H18        -2.4827   13.6108    0.3402 H         1 <0>         0.0622
     52 H19        -3.1791   13.4048    1.9657 H         1 <0>         0.1035
     53 H20        -2.9261   11.2262    0.7602 H         1 <0>         0.0942
     54 H21        -1.9540   11.2880    2.2505 H         1 <0>         0.0573
@<TRIPOS>BOND
     1    1    2 1
     2    1   34 1
     3    1   35 1
     4    1   36 1
     5    2    7 am
     6    2    3 1
     7    3   20 ar
     8    3    4 ar
     9    4    5 1
    10    4   17 ar
    11    5    6 2
    12    5   37 1
    13    6    7 1
    14    6    9 1
    15    7    8 2
    16    9   14 ar
    17    9   10 ar
    18   10   11 ar
    19   10   16 1
    20   11   12 ar
    21   11   38 1
    22   12   13 ar
    23   12   39 1
    24   13   14 ar
    25   13   40 1
    26   14   15 1
    27   17   18 ar
    28   17   41 1
    29   18   19 ar
    30   19   20 ar
    31   19   21 1
    32   21   22 1
    33   21   42 1
    34   22   27 ar
    35   22   23 ar
    36   23   24 ar
    37   23   43 1
    38   24   25 ar
    39   24   44 1
    40   25   26 ar
    41   25   28 1
    42   26   27 ar
    43   26   45 1
    44   27   46 1
    45   28   33 1
    46   28   29 1
    47   29   30 1
    48   29   47 1
    49   29   48 1
    50   30   31 1
    51   30   49 1
    52   30   50 1
    53   31   32 1
    54   32   33 1
    55   32   51 1
    56   32   52 1
    57   33   53 1
    58   33   54 1
@<TRIPOS>MOLECULE
ZINC13782579
   27    29     0     0     0
SMALL
USER_CHARGES
1-phenylbenzimidazole-5-carboxylic acid
@<TRIPOS>ATOM
      1 C1          0.0021   -0.0041    0.0020 C.ar      1 <0>        -0.1230
      2 C2         -0.0167    1.3786    0.0096 C.ar      1 <0>        -0.1007
      3 C3          1.1691    2.0868    0.0021 C.ar      1 <0>        -0.1187
      4 C4          2.3808    1.4090   -0.0137 C.ar      1 <0>         0.1387
      5 C5          2.3963    0.0206   -0.0213 C.ar      1 <0>        -0.1228
      6 C6          1.2072   -0.6819   -0.0132 C.ar      1 <0>        -0.1025
      7 N1          3.5854    2.1246   -0.0223 N.pl3     1 <0>        -0.4539
      8 C7          4.6492    1.9254    0.8067 C.2       1 <0>         0.2447
      9 N2          5.6008    2.7653    0.5228 N.2       1 <0>        -0.4790
     10 C8          5.2138    3.5618   -0.5081 C.ar      1 <0>         0.0299
     11 C9          3.9167    3.1572   -0.8753 C.ar      1 <0>         0.0533
     12 C10         3.2504    3.8028   -1.9104 C.ar      1 <0>        -0.1372
     13 C11         3.8554    4.8244   -2.5833 C.ar      1 <0>        -0.0447
     14 C12         5.1487    5.2368   -2.2347 C.ar      1 <0>        -0.1207
     15 C13         5.8287    4.6055   -1.1967 C.ar      1 <0>        -0.0284
     16 C14         5.7916    6.3426   -2.9702 C.2       1 <0>         0.4935
     17 O1          6.9128    6.7011   -2.6697 O.co2     1 <0>        -0.6286
     18 H1         -0.9264   -0.5556    0.0083 H         1 <0>         0.1272
     19 H2         -0.9595    1.9053    0.0170 H         1 <0>         0.1309
     20 H3          1.1538    3.1667    0.0077 H         1 <0>         0.1311
     21 H4          3.3373   -0.5094   -0.0338 H         1 <0>         0.1299
     22 H5          1.2187   -1.7619   -0.0191 H         1 <0>         0.1303
     23 H6          4.6951    1.1788    1.5858 H         1 <0>         0.2096
     24 H7          2.2534    3.4922   -2.1858 H         1 <0>         0.1166
     25 H8          3.3339    5.3186   -3.3896 H         1 <0>         0.1411
     26 H9          6.8255    4.9222   -0.9274 H         1 <0>         0.1373
     27 O2          5.1351    6.9548   -3.9751 O.co2     1 <0>        -0.7542
@<TRIPOS>BOND
     1    1    6 ar
     2    1    2 ar
     3    1   18 1
     4    2    3 ar
     5    2   19 1
     6    3    4 ar
     7    3   20 1
     8    4    5 ar
     9    4    7 1
    10    5    6 ar
    11    5   21 1
    12    6   22 1
    13    7   11 1
    14    7    8 1
    15    8    9 2
    16    8   23 1
    17    9   10 1
    18   10   15 ar
    19   10   11 ar
    20   11   12 ar
    21   12   13 ar
    22   12   24 1
    23   13   14 ar
    24   13   25 1
    25   14   15 ar
    26   14   16 1
    27   15   26 1
    28   16   17 2
    29   16   27 1
@<TRIPOS>MOLECULE
ZINC03815800
   30    32     0     0     0
SMALL
USER_CHARGES
1-(1-phenylbenzoimidazol-5-yl)ethanone
@<TRIPOS>ATOM
      1 C1          7.1286    6.8613   -2.5228 C.3       1 <0>        -0.1943
      2 C2          5.7858    6.3407   -2.9664 C.2       1 <0>         0.3997
      3 O1          5.2333    6.8303   -3.9287 O.2       1 <0>        -0.4577
      4 C3          5.1456    5.2399   -2.2329 C.ar      1 <0>        -0.1793
      5 C4          3.8458    4.8330   -2.5743 C.ar      1 <0>        -0.0474
      6 C5          3.2423    3.8128   -1.9004 C.ar      1 <0>        -0.1174
      7 C6          3.9137    3.1606   -0.8712 C.ar      1 <0>         0.0779
      8 C7          5.2149    3.5585   -0.5108 C.ar      1 <0>         0.0307
      9 C8          5.8304    4.6012   -1.1996 C.ar      1 <0>        -0.0054
     10 N1          5.6047    2.7571    0.5155 N.2       1 <0>        -0.4787
     11 C9          4.6509    1.9210    0.8027 C.2       1 <0>         0.2699
     12 N2          3.5829    2.1279   -0.0192 N.pl3     1 <0>        -0.4442
     13 C10         2.3748    1.4183   -0.0049 C.ar      1 <0>         0.1177
     14 C11         1.1666    2.1021    0.0202 C.ar      1 <0>        -0.1157
     15 C12        -0.0226    1.3999    0.0334 C.ar      1 <0>        -0.0997
     16 C13        -0.0108    0.0172    0.0221 C.ar      1 <0>        -0.1114
     17 C14         1.1908   -0.6667   -0.0025 C.ar      1 <0>        -0.0997
     18 C15         2.3833    0.0299   -0.0162 C.ar      1 <0>        -0.1157
     19 H1          7.4743    6.2961   -1.7738 H         1 <0>         0.0749
     20 H2          7.8271    6.8236   -3.3587 H         1 <0>         0.0952
     21 H3          7.0246    7.8915   -2.1824 H         1 <0>         0.0976
     22 H4          3.3206    5.3316   -3.3755 H         1 <0>         0.1429
     23 H5          2.2420    3.5071   -2.1694 H         1 <0>         0.1295
     24 H6          6.8304    4.9124   -0.9356 H         1 <0>         0.1457
     25 H7          4.6978    1.1722    1.5795 H         1 <0>         0.2191
     26 H8          1.1568    3.1821    0.0290 H         1 <0>         0.1302
     27 H9         -0.9627    1.9312    0.0480 H         1 <0>         0.1349
     28 H10        -0.9420   -0.5298    0.0328 H         1 <0>         0.1326
     29 H11         1.1968   -1.7467   -0.0112 H         1 <0>         0.1356
     30 H12         3.3215   -0.5047   -0.0360 H         1 <0>         0.1323
@<TRIPOS>BOND
     1    1    2 1
     2    1   19 1
     3    1   20 1
     4    1   21 1
     5    2    3 2
     6    2    4 1
     7    4    9 ar
     8    4    5 ar
     9    5    6 ar
    10    5   22 1
    11    6    7 ar
    12    6   23 1
    13    7   12 1
    14    7    8 ar
    15    8    9 ar
    16    8   10 1
    17    9   24 1
    18   10   11 2
    19   11   12 1
    20   11   25 1
    21   12   13 1
    22   13   18 ar
    23   13   14 ar
    24   14   15 ar
    25   14   26 1
    26   15   16 ar
    27   15   27 1
    28   16   17 ar
    29   16   28 1
    30   17   18 ar
    31   17   29 1
    32   18   30 1
@<TRIPOS>MOLECULE
ZINC00577456
   27    29     0     0     0
SMALL
USER_CHARGES
1-phenylbenzimidazol-5-amine
@<TRIPOS>ATOM
      1 C1         -3.4051    3.7845    0.0399 C.ar      1 <0>        -0.1164
      2 C2         -3.2974    2.7612   -0.8839 C.ar      1 <0>        -0.0999
      3 C3         -2.1756    1.9556   -0.8967 C.ar      1 <0>        -0.1200
      4 C4         -1.1555    2.1738    0.0196 C.ar      1 <0>         0.1278
      5 C5         -1.2690    3.1985    0.9497 C.ar      1 <0>        -0.1186
      6 C6         -2.3908    4.0043    0.9537 C.ar      1 <0>        -0.1005
      7 N1         -0.0164    1.3580    0.0095 N.pl3     1 <0>        -0.4472
      8 C7          0.0021   -0.0041    0.0020 C.2       1 <0>         0.2729
      9 N2          1.2300   -0.4343   -0.0120 N.2       1 <0>        -0.4972
     10 C8          2.0855    0.6207   -0.0145 C.ar      1 <0>         0.0970
     11 C9          1.3005    1.7860   -0.0008 C.ar      1 <0>         0.0002
     12 C10         1.9078    3.0335   -0.0003 C.ar      1 <0>        -0.0613
     13 C11         3.2826    3.1290   -0.0133 C.ar      1 <0>        -0.1629
     14 C12         4.0687    1.9786   -0.0269 C.ar      1 <0>         0.2117
     15 C13         3.4783    0.7285   -0.0276 C.ar      1 <0>        -0.1591
     16 N3          5.4634    2.0893   -0.0405 N.pl3     1 <0>        -0.8782
     17 H1         -4.2829    4.4135    0.0474 H         1 <0>         0.1306
     18 H2         -4.0912    2.5919   -1.5964 H         1 <0>         0.1336
     19 H3         -2.0918    1.1570   -1.6189 H         1 <0>         0.1310
     20 H4         -0.4791    3.3681    1.6663 H         1 <0>         0.1292
     21 H5         -2.4779    4.8041    1.6742 H         1 <0>         0.1328
     22 H6         -0.8746   -0.6348    0.0064 H         1 <0>         0.2138
     23 H7          1.3039    3.9288    0.0107 H         1 <0>         0.1232
     24 H8          3.7533    4.1010   -0.0125 H         1 <0>         0.1304
     25 H9          4.0911   -0.1607   -0.0386 H         1 <0>         0.1284
     26 H10         6.0132    1.2903   -0.0504 H         1 <0>         0.3995
     27 H11         5.8805    2.9651   -0.0401 H         1 <0>         0.3991
@<TRIPOS>BOND
     1    1    6 ar
     2    1    2 ar
     3    1   17 1
     4    2    3 ar
     5    2   18 1
     6    3    4 ar
     7    3   19 1
     8    4    5 ar
     9    4    7 1
    10    5    6 ar
    11    5   20 1
    12    6   21 1
    13    7   11 1
    14    7    8 1
    15    8    9 2
    16    8   22 1
    17    9   10 1
    18   10   15 ar
    19   10   11 ar
    20   11   12 ar
    21   12   13 ar
    22   12   23 1
    23   13   14 ar
    24   13   24 1
    25   14   15 ar
    26   14   16 1
    27   15   25 1
    28   16   26 1
    29   16   27 1
@<TRIPOS>MOLECULE
ZINC13782569
   27    29     0     0     0
SMALL
USER_CHARGES
3-(benzimidazol-1-yl)benzaldehyde
@<TRIPOS>ATOM
      1 C1          1.1824    1.7813    0.0003 C.ar      1 <0>        -0.1248
      2 C2         -0.0126    1.0758    0.0080 C.ar      1 <0>        -0.0972
      3 C3         -1.2184    1.7442    0.0173 C.ar      1 <0>        -0.1100
      4 C4         -1.2352    3.1320    0.0298 C.ar      1 <0>         0.0484
      5 C5         -0.0250    3.8461    0.0220 C.ar      1 <0>         0.0465
      6 C6          1.1851    3.1474    0.0072 C.ar      1 <0>        -0.0613
      7 N1         -0.3435    5.1662    0.0324 N.2       1 <0>        -0.4845
      8 C7         -1.6371    5.3052    0.0456 C.2       1 <0>         0.2680
      9 N2         -2.2387    4.0825    0.0447 N.pl3     1 <0>        -0.4498
     10 C8         -3.6182    3.8349    0.0566 C.ar      1 <0>         0.1146
     11 C9         -4.1748    2.9594   -0.8686 C.ar      1 <0>        -0.0855
     12 C10        -5.5340    2.7062   -0.8588 C.ar      1 <0>        -0.1120
     13 C11        -6.3503    3.3293    0.0623 C.ar      1 <0>        -0.0635
     14 C12        -5.8020    4.2163    0.9942 C.ar      1 <0>        -0.1726
     15 C13        -4.4268    4.4668    0.9866 C.ar      1 <0>        -0.0619
     16 C14        -6.6693    4.8836    1.9784 C.2       1 <0>         0.3820
     17 O1         -6.1913    5.6526    2.7849 O.2       1 <0>        -0.4510
     18 H1          2.1197    1.2449   -0.0108 H         1 <0>         0.1327
     19 H2          0.0021   -0.0041    0.0020 H         1 <0>         0.1329
     20 H3         -2.1457    1.1904    0.0187 H         1 <0>         0.1225
     21 H4          2.1209    3.6865    0.0015 H         1 <0>         0.1324
     22 H5         -2.1579    6.2513    0.0559 H         1 <0>         0.2164
     23 H6         -3.5422    2.4718   -1.5956 H         1 <0>         0.1352
     24 H7         -5.9589    2.0214   -1.5778 H         1 <0>         0.1422
     25 H8         -7.4122    3.1324    0.0636 H         1 <0>         0.1432
     26 H9         -3.9965    5.1504    1.7035 H         1 <0>         0.1419
     27 H10        -7.7315    4.6884    1.9823 H         1 <0>         0.1153
@<TRIPOS>BOND
     1    1    6 ar
     2    1    2 ar
     3    1   18 1
     4    2    3 ar
     5    2   19 1
     6    3    4 ar
     7    3   20 1
     8    4    9 1
     9    4    5 ar
    10    5    6 ar
    11    5    7 1
    12    6   21 1
    13    7    8 2
    14    8    9 1
    15    8   22 1
    16    9   10 1
    17   10   15 ar
    18   10   11 ar
    19   11   12 ar
    20   11   23 1
    21   12   13 ar
    22   12   24 1
    23   13   14 ar
    24   13   25 1
    25   14   15 ar
    26   14   16 1
    27   15   26 1
    28   16   17 2
    29   16   27 1
@<TRIPOS>MOLECULE
ZINC13782578
   28    30     0     0     0
SMALL
USER_CHARGES
5-methyl-1-phenyl-benzimidazole
@<TRIPOS>ATOM
      1 C1          5.5640    2.0827   -0.0393 C.3       1 <0>        -0.1119
      2 C2          4.0615    1.9682   -0.0261 C.ar      1 <0>        -0.0916
      3 C3          3.2851    3.1184   -0.0125 C.ar      1 <0>        -0.0975
      4 C4          1.9091    3.0324    0.0001 C.ar      1 <0>        -0.1045
      5 C5          1.2981    1.7861   -0.0007 C.ar      1 <0>         0.0444
      6 C6          2.0846    0.6217   -0.0145 C.ar      1 <0>         0.0506
      7 C7          3.4774    0.7332   -0.0272 C.ar      1 <0>        -0.0650
      8 N1          1.2301   -0.4339   -0.0120 N.2       1 <0>        -0.4878
      9 C8          0.0021   -0.0041    0.0020 C.2       1 <0>         0.2669
     10 N2         -0.0164    1.3585    0.0095 N.pl3     1 <0>        -0.4473
     11 C9         -1.1557    2.1742    0.0196 C.ar      1 <0>         0.1238
     12 C10        -1.2694    3.1988    0.9496 C.ar      1 <0>        -0.1174
     13 C11        -2.3906    4.0054    0.9527 C.ar      1 <0>        -0.1002
     14 C12        -3.4051    3.7851    0.0392 C.ar      1 <0>        -0.1144
     15 C13        -3.2975    2.7615   -0.8843 C.ar      1 <0>        -0.0998
     16 C14        -2.1758    1.9558   -0.8967 C.ar      1 <0>        -0.1183
     17 H1          5.9169    2.1156   -1.0701 H         1 <0>         0.0715
     18 H2          5.8635    2.9950    0.4765 H         1 <0>         0.0680
     19 H3          5.9986    1.2202    0.4660 H         1 <0>         0.0679
     20 H4          3.7620    4.0874   -0.0115 H         1 <0>         0.1321
     21 H5          1.3095    3.9306    0.0107 H         1 <0>         0.1231
     22 H6          4.0911   -0.1554   -0.0382 H         1 <0>         0.1311
     23 H7         -0.8745   -0.6350    0.0067 H         1 <0>         0.2156
     24 H8         -0.4796    3.3683    1.6665 H         1 <0>         0.1292
     25 H9         -2.4775    4.8056    1.6728 H         1 <0>         0.1338
     26 H10        -4.2830    4.4140    0.0467 H         1 <0>         0.1316
     27 H11        -4.0913    2.5921   -1.5968 H         1 <0>         0.1346
     28 H12        -2.0920    1.1569   -1.6186 H         1 <0>         0.1314
@<TRIPOS>BOND
     1    1    2 1
     2    1   17 1
     3    1   18 1
     4    1   19 1
     5    2    7 ar
     6    2    3 ar
     7    3    4 ar
     8    3   20 1
     9    4    5 ar
    10    4   21 1
    11    5   10 1
    12    5    6 ar
    13    6    7 ar
    14    6    8 1
    15    7   22 1
    16    8    9 2
    17    9   10 1
    18    9   23 1
    19   10   11 1
    20   11   16 ar
    21   11   12 ar
    22   12   13 ar
    23   12   24 1
    24   13   14 ar
    25   13   25 1
    26   14   15 ar
    27   14   26 1
    28   15   16 ar
    29   15   27 1
    30   16   28 1
@<TRIPOS>MOLECULE
ZINC03815799
   31    33     0     0     0
SMALL
USER_CHARGES
methyl 1-phenylbenzoimidazole-5-carboxylate
@<TRIPOS>ATOM
      1 C1          5.8341    8.0339   -4.6506 C.3       1 <0>         0.0365
      2 O1          5.1397    6.9542   -3.9721 O.3       1 <0>        -0.3546
      3 C2          5.7948    6.3425   -2.9661 C.2       1 <0>         0.5133
      4 O2          6.9156    6.7013   -2.6641 O.2       1 <0>        -0.5034
      5 C3          5.1511    5.2367   -2.2313 C.ar      1 <0>        -0.1356
      6 C4          3.8581    4.8238   -2.5816 C.ar      1 <0>        -0.0485
      7 C5          3.2527    3.8023   -1.9098 C.ar      1 <0>        -0.1172
      8 C6          3.9178    3.1569   -0.8732 C.ar      1 <0>         0.0810
      9 C7          5.2139    3.5621   -0.5041 C.ar      1 <0>         0.0327
     10 C8          5.8297    4.6060   -1.1923 C.ar      1 <0>         0.0166
     11 N1          5.5998    2.7659    0.5273 N.2       1 <0>        -0.4758
     12 C9          4.6481    1.9257    0.8100 C.2       1 <0>         0.2711
     13 N2          3.5855    2.1246   -0.0204 N.pl3     1 <0>        -0.4438
     14 C10         2.3808    1.4090   -0.0132 C.ar      1 <0>         0.1175
     15 C11         1.1691    2.0868    0.0021 C.ar      1 <0>        -0.1153
     16 C12        -0.0167    1.3786    0.0096 C.ar      1 <0>        -0.0998
     17 C13         0.0021   -0.0041    0.0020 C.ar      1 <0>        -0.1112
     18 C14         1.2072   -0.6819   -0.0127 C.ar      1 <0>        -0.0997
     19 C15         2.3963    0.0206   -0.0203 C.ar      1 <0>        -0.1153
     20 H1          6.0708    8.8205   -3.9342 H         1 <0>         0.0651
     21 H2          6.7561    7.6533   -5.0902 H         1 <0>         0.0651
     22 H3          5.1966    8.4384   -5.4369 H         1 <0>         0.1044
     23 H4          3.3375    5.3180   -3.3886 H         1 <0>         0.1481
     24 H5          2.2563    3.4911   -2.1868 H         1 <0>         0.1327
     25 H6          6.8260    4.9230   -0.9218 H         1 <0>         0.1495
     26 H7          4.6932    1.1791    1.5892 H         1 <0>         0.2204
     27 H8          1.1538    3.1667    0.0077 H         1 <0>         0.1308
     28 H9         -0.9595    1.9053    0.0170 H         1 <0>         0.1350
     29 H10        -0.9264   -0.5556    0.0080 H         1 <0>         0.1325
     30 H11         1.2187   -1.7619   -0.0186 H         1 <0>         0.1355
     31 H12         3.3373   -0.5094   -0.0322 H         1 <0>         0.1326
@<TRIPOS>BOND
     1    1    2 1
     2    1   20 1
     3    1   21 1
     4    1   22 1
     5    2    3 1
     6    3    4 2
     7    3    5 1
     8    5   10 ar
     9    5    6 ar
    10    6    7 ar
    11    6   23 1
    12    7    8 ar
    13    7   24 1
    14    8   13 1
    15    8    9 ar
    16    9   10 ar
    17    9   11 1
    18   10   25 1
    19   11   12 2
    20   12   13 1
    21   12   26 1
    22   13   14 1
    23   14   19 ar
    24   14   15 ar
    25   15   16 ar
    26   15   27 1
    27   16   17 ar
    28   16   28 1
    29   17   18 ar
    30   17   29 1
    31   18   19 ar
    32   18   30 1
    33   19   31 1
@<TRIPOS>MOLECULE
ZINC13782583
   26    28     0     0     0
SMALL
USER_CHARGES
3-phenylbenzimidazol-5-ol
@<TRIPOS>ATOM
      1 C1          0.0021   -0.0041    0.0020 C.ar      1 <0>        -0.1133
      2 C2         -0.0167    1.3786    0.0096 C.ar      1 <0>        -0.1001
      3 C3          1.1691    2.0868    0.0021 C.ar      1 <0>        -0.1171
      4 C4          2.3808    1.4090   -0.0132 C.ar      1 <0>         0.1218
      5 C5          2.3963    0.0206   -0.0208 C.ar      1 <0>        -0.1173
      6 C6          1.2072   -0.6820   -0.0132 C.ar      1 <0>        -0.0995
      7 N1          3.5854    2.1246   -0.0214 N.pl3     1 <0>        -0.4467
      8 C7          4.6498    1.9262    0.8078 C.2       1 <0>         0.2684
      9 N2          5.6003    2.7672    0.5230 N.2       1 <0>        -0.4835
     10 C8          5.2136    3.5640   -0.5077 C.ar      1 <0>         0.0385
     11 C9          3.9187    3.1594   -0.8754 C.ar      1 <0>         0.0651
     12 C10         3.2642    3.7991   -1.9179 C.ar      1 <0>        -0.1372
     13 C11         3.8942    4.8307   -2.5913 C.ar      1 <0>         0.1268
     14 C12         5.1777    5.2270   -2.2273 C.ar      1 <0>        -0.1474
     15 C13         5.8302    4.6108   -1.1975 C.ar      1 <0>        -0.0441
     16 O1          3.2564    5.4600   -3.6138 O.3       1 <0>        -0.4938
     17 H1         -0.9264   -0.5556    0.0083 H         1 <0>         0.1321
     18 H2         -0.9595    1.9053    0.0170 H         1 <0>         0.1341
     19 H3          1.1538    3.1667    0.0077 H         1 <0>         0.1289
     20 H4          3.3373   -0.5094   -0.0330 H         1 <0>         0.1321
     21 H5          1.2187   -1.7619   -0.0194 H         1 <0>         0.1351
     22 H6          4.6968    1.1798    1.5869 H         1 <0>         0.2174
     23 H7          2.2683    3.4933   -2.2026 H         1 <0>         0.1294
     24 H8          5.6597    6.0337   -2.7596 H         1 <0>         0.1391
     25 H9          6.8267    4.9250   -0.9242 H         1 <0>         0.1382
     26 H10         2.7303    6.2233   -3.3388 H         1 <0>         0.3930
@<TRIPOS>BOND
     1    1    6 ar
     2    1    2 ar
     3    1   17 1
     4    2    3 ar
     5    2   18 1
     6    3    4 ar
     7    3   19 1
     8    4    5 ar
     9    4    7 1
    10    5    6 ar
    11    5   20 1
    12    6   21 1
    13    7   11 1
    14    7    8 1
    15    8    9 2
    16    8   22 1
    17    9   10 1
    18   10   15 ar
    19   10   11 ar
    20   11   12 ar
    21   12   13 ar
    22   12   23 1
    23   13   14 ar
    24   13   16 1
    25   14   15 ar
    26   14   24 1
    27   15   25 1
    28   16   26 1
@<TRIPOS>MOLECULE
ZINC13782584
   25    27     0     0     0
SMALL
USER_CHARGES
6-chloro-1-phenyl-benzimidazole
@<TRIPOS>ATOM
      1 C1          0.0021   -0.0041    0.0020 C.ar      1 <0>        -0.1119
      2 C2         -0.0167    1.3786    0.0096 C.ar      1 <0>        -0.0995
      3 C3          1.1691    2.0868    0.0021 C.ar      1 <0>        -0.1164
      4 C4          2.3808    1.4090   -0.0135 C.ar      1 <0>         0.1189
      5 C5          2.3963    0.0206   -0.0207 C.ar      1 <0>        -0.1162
      6 C6          1.2072   -0.6820   -0.0126 C.ar      1 <0>        -0.0996
      7 N1          3.5854    2.1246   -0.0212 N.pl3     1 <0>        -0.4446
      8 C7          4.6486    1.9265    0.8083 C.2       1 <0>         0.2758
      9 N2          5.5998    2.7672    0.5236 N.2       1 <0>        -0.4848
     10 C8          5.2141    3.5631   -0.5074 C.ar      1 <0>         0.0514
     11 C9          3.9192    3.1593   -0.8755 C.ar      1 <0>         0.0585
     12 C10         3.2644    3.7984   -1.9183 C.ar      1 <0>        -0.0984
     13 C11         3.8892    4.8275   -2.5928 C.ar      1 <0>        -0.0160
     14 C12         5.1697    5.2275   -2.2349 C.ar      1 <0>        -0.1169
     15 C13         5.8307    4.6094   -1.1980 C.ar      1 <0>        -0.0477
     16 Cl1         3.0690    5.6267   -3.8975 Cl        1 <0>        -0.0580
     17 H1         -0.9264   -0.5556    0.0079 H         1 <0>         0.1325
     18 H2         -0.9595    1.9053    0.0169 H         1 <0>         0.1348
     19 H3          1.1538    3.1667    0.0077 H         1 <0>         0.1297
     20 H4          3.3373   -0.5094   -0.0328 H         1 <0>         0.1323
     21 H5          1.2187   -1.7619   -0.0182 H         1 <0>         0.1355
     22 H6          4.6948    1.1805    1.5879 H         1 <0>         0.2193
     23 H7          2.2686    3.4912   -2.2016 H         1 <0>         0.1338
     24 H8          5.6483    6.0342   -2.7703 H         1 <0>         0.1439
     25 H9          6.8272    4.9249   -0.9261 H         1 <0>         0.1436
@<TRIPOS>BOND
     1    1    6 ar
     2    1    2 ar
     3    1   17 1
     4    2    3 ar
     5    2   18 1
     6    3    4 ar
     7    3   19 1
     8    4    5 ar
     9    4    7 1
    10    5    6 ar
    11    5   20 1
    12    6   21 1
    13    7   11 1
    14    7    8 1
    15    8    9 2
    16    8   22 1
    17    9   10 1
    18   10   15 ar
    19   10   11 ar
    20   11   12 ar
    21   12   13 ar
    22   12   23 1
    23   13   14 ar
    24   13   16 1
    25   14   15 ar
    26   14   24 1
    27   15   25 1
@<TRIPOS>MOLECULE
ZINC13782567
   27    29     0     0     0
SMALL
USER_CHARGES
3-(benzimidazol-1-yl)aniline
@<TRIPOS>ATOM
      1 C1          1.1824    1.7813    0.0003 C.ar      1 <0>        -0.1256
      2 C2         -0.0126    1.0758    0.0080 C.ar      1 <0>        -0.1000
      3 C3         -1.2184    1.7442    0.0173 C.ar      1 <0>        -0.1070
      4 C4         -1.2352    3.1320    0.0307 C.ar      1 <0>         0.0507
      5 C5         -0.0250    3.8461    0.0230 C.ar      1 <0>         0.0449
      6 C6          1.1851    3.1474    0.0076 C.ar      1 <0>        -0.0634
      7 N1         -0.3435    5.1662    0.0331 N.2       1 <0>        -0.4884
      8 C7         -1.6371    5.3052    0.0462 C.2       1 <0>         0.2672
      9 N2         -2.2388    4.0826    0.0454 N.pl3     1 <0>        -0.4466
     10 C8         -3.6179    3.8350    0.0568 C.ar      1 <0>         0.1732
     11 C9         -4.1748    2.9599   -0.8674 C.ar      1 <0>        -0.1763
     12 C10        -5.5335    2.7106   -0.8534 C.ar      1 <0>        -0.0506
     13 C11        -6.3447    3.3390    0.0720 C.ar      1 <0>        -0.1938
     14 C12        -5.7947    4.2197    0.9953 C.ar      1 <0>         0.2359
     15 C13        -4.4290    4.4676    0.9871 C.ar      1 <0>        -0.2005
     16 N3         -6.6151    4.8550    1.9302 N.pl3     1 <0>        -0.8729
     17 H1          2.1197    1.2450   -0.0111 H         1 <0>         0.1314
     18 H2          0.0021   -0.0041    0.0020 H         1 <0>         0.1319
     19 H3         -2.1457    1.1904    0.0184 H         1 <0>         0.1241
     20 H4          2.1209    3.6865    0.0020 H         1 <0>         0.1310
     21 H5         -2.1578    6.2513    0.0559 H         1 <0>         0.2149
     22 H6         -3.5442    2.4706   -1.5948 H         1 <0>         0.1263
     23 H7         -5.9633    2.0265   -1.5701 H         1 <0>         0.1333
     24 H8         -7.4073    3.1458    0.0773 H         1 <0>         0.1282
     25 H9         -3.9989    5.1519    1.7034 H         1 <0>         0.1284
     26 H10        -6.2306    5.4700    2.5743 H         1 <0>         0.4010
     27 H11        -7.5695    4.6813    1.9354 H         1 <0>         0.4028
@<TRIPOS>BOND
     1    1    6 ar
     2    1    2 ar
     3    1   17 1
     4    2    3 ar
     5    2   18 1
     6    3    4 ar
     7    3   19 1
     8    4    9 1
     9    4    5 ar
    10    5    6 ar
    11    5    7 1
    12    6   20 1
    13    7    8 2
    14    8    9 1
    15    8   21 1
    16    9   10 1
    17   10   15 ar
    18   10   11 ar
    19   11   12 ar
    20   11   22 1
    21   12   13 ar
    22   12   23 1
    23   13   14 ar
    24   13   24 1
    25   14   15 ar
    26   14   16 1
    27   15   25 1
    28   16   26 1
    29   16   27 1
@<TRIPOS>MOLECULE
ZINC03814434
   62    69     0     0     0
SMALL
USER_CHARGES

@<TRIPOS>ATOM
      1 C1         -0.1295    1.5952   -0.2973 C.3       1 <0>        -0.1687
      2 C2         -0.0862    0.0696   -0.1900 C.3       1 <0>         0.3342
      3 C3          0.5692   -0.4501   -1.4637 C.3       1 <0>         0.0405
      4 H1          1.4796    0.1159   -1.6612 H         1 <0>         0.1372
      5 C4          0.9167   -1.9328   -1.2889 C.3       1 <0>        -0.0061
      6 H2          1.3963   -2.3075   -2.1932 H         1 <0>         0.1555
      7 C5          1.8785   -2.0596   -0.1021 C.3       1 <0>        -0.1827
      8 C6          1.2061   -1.5198    1.1541 C.3       1 <0>         0.2999
      9 H3          1.9797   -1.4243    1.9161 H         1 <0>         0.1550
     10 O1          0.6555   -0.2442    0.9666 O.3       1 <0>        -0.3234
     11 N1          0.2189   -2.4746    1.6600 N.pl3     1 <0>        -0.5366
     12 C7          0.4705   -3.5508    2.4739 C.ar      1 <0>         0.1469
     13 C8          1.6649   -4.0152    3.0240 C.ar      1 <0>        -0.1522
     14 C9          1.5948   -5.1456    3.8201 C.ar      1 <0>        -0.0582
     15 C10         0.4006   -5.7997    4.0696 C.ar      1 <0>        -0.1457
     16 C11        -0.7984   -5.3597    3.5358 C.ar      1 <0>        -0.0280
     17 C12        -0.7487   -4.2198    2.7307 C.ar      1 <0>        -0.1131
     18 C13        -1.7893   -3.4830    2.0197 C.ar      1 <0>         0.0276
     19 C14        -1.1442   -2.4197    1.3841 C.ar      1 <0>         0.0376
     20 C15        -1.8806   -1.5095    0.6175 C.ar      1 <0>         0.0894
     21 N2         -1.4718   -0.3951   -0.1095 N.pl3     1 <0>        -0.5183
     22 C16        -2.5611    0.1913   -0.7090 C.ar      1 <0>         0.1618
     23 C17        -2.6521    1.3277   -1.5118 C.ar      1 <0>        -0.1305
     24 C18        -3.9109    1.6745   -1.9733 C.ar      1 <0>        -0.0737
     25 C19        -5.0393    0.9368   -1.6616 C.ar      1 <0>        -0.1358
     26 C20        -4.9745   -0.1955   -0.8662 C.ar      1 <0>        -0.0503
     27 C21        -3.7147   -0.5596   -0.3919 C.ar      1 <0>        -0.1042
     28 C22        -3.2693   -1.6660    0.4845 C.ar      1 <0>        -0.0360
     29 C23        -3.9084   -2.7313    1.1102 C.ar      1 <0>        -0.0288
     30 C24        -3.1873   -3.6421    1.8754 C.ar      1 <0>        -0.1255
     31 C25        -4.1221   -4.6480    2.4030 C.2       1 <0>         0.5632
     32 O2         -3.8062   -5.5851    3.1110 O.2       1 <0>        -0.5106
     33 N3         -5.3744   -4.3851    1.9926 N.am      1 <0>        -0.7162
     34 C26        -5.3495   -3.1771    1.1601 C.3       1 <0>         0.1358
     35 N4         -0.3067   -2.7008   -1.0216 N.4       1 <0>        -0.5252
     36 C27         0.0145   -4.1336   -0.9773 C.3       1 <0>        -0.0497
     37 O3         -0.3340   -0.2979   -2.5607 O.3       1 <0>        -0.3614
     38 C28         0.3101   -0.0933   -3.8198 C.3       1 <0>         0.0162
     39 H4          0.8261    2.0094    0.0240 H         1 <0>         0.0984
     40 H5         -0.3202    1.8814   -1.3317 H         1 <0>         0.1036
     41 H6         -0.9255    1.9818    0.3392 H         1 <0>         0.0921
     42 H7          2.1370   -3.1081    0.0458 H         1 <0>         0.1233
     43 H8          2.7835   -1.4869   -0.3048 H         1 <0>         0.1455
     44 H9          2.6036   -3.5149    2.8368 H         1 <0>         0.1365
     45 H10         2.5026   -5.5304    4.2610 H         1 <0>         0.1359
     46 H11         0.4045   -6.6780    4.6980 H         1 <0>         0.1352
     47 H12        -1.7278   -5.8736    3.7323 H         1 <0>         0.1600
     48 H13        -1.7792    1.9122   -1.7624 H         1 <0>         0.1440
     49 H14        -4.0153    2.5500   -2.5970 H         1 <0>         0.1336
     50 H15        -5.9967    1.2527   -2.0488 H         1 <0>         0.1332
     51 H16        -5.8575   -0.7687   -0.6249 H         1 <0>         0.1415
     52 H17        -6.1628   -4.9065    2.2103 H         1 <0>         0.4348
     53 H18        -5.9671   -2.3994    1.6094 H         1 <0>         0.1115
     54 H19        -5.7060   -3.4063    0.1559 H         1 <0>         0.1103
     55 H20        -0.6958   -2.4158   -0.1353 H         1 <0>         0.4186
     56 H21         0.4349   -4.4415   -1.9347 H         1 <0>         0.1256
     57 H22         0.7403   -4.3189   -0.1854 H         1 <0>         0.1191
     58 H23        -0.8932   -4.7035   -0.7789 H         1 <0>         0.1256
     59 H24         0.9168    0.8112   -3.7748 H         1 <0>         0.0633
     60 H25         0.9482   -0.9479   -4.0446 H         1 <0>         0.0514
     61 H26        -0.4433    0.0130   -4.6003 H         1 <0>         0.1100
     62 H27        -0.9785   -2.5293   -1.7546 H         1 <0>         0.4274
@<TRIPOS>BOND
     1    1    2 1
     2    1   39 1
     3    1   40 1
     4    1   41 1
     5    2   10 1
     6    2   21 1
     7    2    3 1
     8    3    4 1
     9    3    5 1
    10    3   37 1
    11    5    6 1
    12    5    7 1
    13    5   35 1
    14    7    8 1
    15    7   42 1
    16    7   43 1
    17    8    9 1
    18    8   10 1
    19    8   11 1
    20   11   19 1
    21   11   12 1
    22   12   17 ar
    23   12   13 ar
    24   13   14 ar
    25   13   44 1
    26   14   15 ar
    27   14   45 1
    28   15   16 ar
    29   15   46 1
    30   16   17 ar
    31   16   47 1
    32   17   18 1
    33   18   30 ar
    34   18   19 ar
    35   19   20 ar
    36   20   28 ar
    37   20   21 1
    38   21   22 1
    39   22   27 ar
    40   22   23 ar
    41   23   24 ar
    42   23   48 1
    43   24   25 ar
    44   24   49 1
    45   25   26 ar
    46   25   50 1
    47   26   27 ar
    48   26   51 1
    49   27   28 1
    50   28   29 ar
    51   29   34 1
    52   29   30 ar
    53   30   31 1
    54   31   32 2
    55   31   33 am
    56   33   34 1
    57   33   52 1
    58   34   53 1
    59   34   54 1
    60   35   36 1
    61   35   55 1
    62   35   62 1
    63   36   56 1
    64   36   57 1
    65   36   58 1
    66   37   38 1
    67   38   59 1
    68   38   60 1
    69   38   61 1
@<TRIPOS>MOLECULE
ZINC08048290
   30    33     0     0     0
SMALL
USER_CHARGES
dibenzofuran-2-ylmethanone
@<TRIPOS>ATOM
      1 C1         -1.2031    1.7458    0.0172 C.ar      1 <0>        -0.1388
      2 C2         -1.2291    3.1339    0.0315 C.ar      1 <0>        -0.0752
      3 C3         -0.0581    3.8607    0.0238 C.ar      1 <0>        -0.1132
      4 C4          1.1655    3.2016    0.0082 C.ar      1 <0>         0.0776
      5 C5          1.1861    1.7940    0.0004 C.ar      1 <0>        -0.1536
      6 C6         -0.0126    1.0758    0.0080 C.ar      1 <0>        -0.0551
      7 C7          2.5988    1.4183   -0.0152 C.2       1 <0>        -0.0962
      8 C8          3.2986    2.5847   -0.0156 C.2       1 <0>        -0.0550
      9 O1          2.4436    3.6283   -0.0017 O.3       1 <0>        -0.1664
     10 C9          4.7636    2.6919   -0.0294 C.2       1 <0>         0.5184
     11 O2          5.4480    1.6842   -0.0419 O.2       1 <0>        -0.4053
     12 C10         5.4034    4.0143   -0.0284 C.2       1 <0>        -0.0550
     13 C11         6.7455    4.2348   -0.0404 C.2       1 <0>        -0.0962
     14 C12         6.9171    5.6865   -0.0339 C.ar      1 <0>        -0.1536
     15 C13         8.0265    6.5362   -0.0405 C.ar      1 <0>        -0.0551
     16 C14         7.8426    7.8899   -0.0315 C.ar      1 <0>        -0.1388
     17 C15         6.5619    8.4258   -0.0163 C.ar      1 <0>        -0.0752
     18 C16         5.4546    7.6051   -0.0096 C.ar      1 <0>        -0.1132
     19 C17         5.6164    6.2246   -0.0181 C.ar      1 <0>         0.0776
     20 O3          4.7485    5.1939   -0.0211 O.3       1 <0>        -0.1664
     21 H1         -2.1303    1.1920    0.0186 H         1 <0>         0.1347
     22 H2         -2.1777    3.6501    0.0437 H         1 <0>         0.1402
     23 H3         -0.0911    4.9402    0.0304 H         1 <0>         0.1373
     24 H4          0.0021   -0.0041    0.0020 H         1 <0>         0.1334
     25 H5          3.0046    0.4175   -0.0240 H         1 <0>         0.1737
     26 H6          7.5262    3.4887   -0.0528 H         1 <0>         0.1737
     27 H7          9.0249    6.1245   -0.0531 H         1 <0>         0.1333
     28 H8          8.6992    8.5476   -0.0366 H         1 <0>         0.1347
     29 H9          6.4318    9.4979   -0.0100 H         1 <0>         0.1402
     30 H10         4.4634    8.0337    0.0026 H         1 <0>         0.1373
@<TRIPOS>BOND
     1    1    6 ar
     2    1    2 ar
     3    1   21 1
     4    2    3 ar
     5    2   22 1
     6    3    4 ar
     7    3   23 1
     8    4    9 1
     9    4    5 ar
    10    5    6 ar
    11    5    7 1
    12    6   24 1
    13    7    8 2
    14    7   25 1
    15    8    9 1
    16    8   10 1
    17   10   11 2
    18   10   12 1
    19   12   20 1
    20   12   13 2
    21   13   14 1
    22   13   26 1
    23   14   19 ar
    24   14   15 ar
    25   15   16 ar
    26   15   27 1
    27   16   17 ar
    28   16   28 1
    29   17   18 ar
    30   17   29 1
    31   18   19 ar
    32   18   30 1
    33   19   20 1
@<TRIPOS>MOLECULE
ZINC03815794
   31    33     0     0     0
SMALL
USER_CHARGES
4-(5-methoxybenzoimidazol-1-yl)aniline
@<TRIPOS>ATOM
      1 C1          6.0404   -1.8896   -0.0662 C.3       1 <0>         0.0273
      2 O1          5.4589   -0.5843   -0.0537 O.3       1 <0>        -0.3155
      3 C2          4.1011   -0.5135   -0.0399 C.ar      1 <0>         0.1199
      4 C3          3.3473   -1.6841   -0.0389 C.ar      1 <0>        -0.1802
      5 C4          1.9706   -1.6269   -0.0259 C.ar      1 <0>        -0.0662
      6 C5          1.3292   -0.3962   -0.0128 C.ar      1 <0>         0.0175
      7 C6          2.0829    0.7895   -0.0136 C.ar      1 <0>         0.0865
      8 C7          3.4786    0.7185   -0.0273 C.ar      1 <0>        -0.1067
      9 N1          1.1998    1.8211    0.0004 N.2       1 <0>        -0.4945
     10 C8         -0.0164    1.3576    0.0095 C.2       1 <0>         0.2740
     11 N2          0.0021   -0.0041    0.0020 N.pl3     1 <0>        -0.4358
     12 C9         -1.1161   -0.8516    0.0086 C.ar      1 <0>         0.0587
     13 C10        -1.2139   -1.8786   -0.9206 C.ar      1 <0>        -0.0638
     14 C11        -2.3117   -2.7156   -0.9113 C.ar      1 <0>        -0.1814
     15 C12        -3.3236   -2.5234    0.0206 C.ar      1 <0>         0.2242
     16 C13        -3.2279   -1.4926    0.9466 C.ar      1 <0>        -0.1809
     17 C14        -2.1271   -0.6594    0.9405 C.ar      1 <0>        -0.0640
     18 N3         -4.4388   -3.3673    0.0262 N.pl3     1 <0>        -0.8733
     19 H1          5.7101   -2.4260   -0.9557 H         1 <0>         0.0554
     20 H2          7.1269   -1.8033   -0.0765 H         1 <0>         0.1010
     21 H3          5.7277   -2.4352    0.8241 H         1 <0>         0.0554
     22 H4          3.8446   -2.6427   -0.0492 H         1 <0>         0.1369
     23 H5          1.3915   -2.5385   -0.0251 H         1 <0>         0.1262
     24 H6          4.0676    1.6237   -0.0277 H         1 <0>         0.1390
     25 H7         -0.9098    1.9643    0.0172 H         1 <0>         0.2153
     26 H8         -0.4292   -2.0252   -1.6480 H         1 <0>         0.1285
     27 H9         -2.3857   -3.5173   -1.6312 H         1 <0>         0.1305
     28 H10        -4.0147   -1.3427    1.6711 H         1 <0>         0.1315
     29 H11        -2.0526    0.1421    1.6605 H         1 <0>         0.1312
     30 H12        -5.1455   -3.2328    0.6768 H         1 <0>         0.4016
     31 H13        -4.5056   -4.0872   -0.6205 H         1 <0>         0.4015
@<TRIPOS>BOND
     1    1    2 1
     2    1   19 1
     3    1   20 1
     4    1   21 1
     5    2    3 1
     6    3    8 ar
     7    3    4 ar
     8    4    5 ar
     9    4   22 1
    10    5    6 ar
    11    5   23 1
    12    6   11 1
    13    6    7 ar
    14    7    8 ar
    15    7    9 1
    16    8   24 1
    17    9   10 2
    18   10   11 1
    19   10   25 1
    20   11   12 1
    21   12   17 ar
    22   12   13 ar
    23   13   14 ar
    24   13   26 1
    25   14   15 ar
    26   14   27 1
    27   15   16 ar
    28   15   18 1
    29   16   17 ar
    30   16   28 1
    31   17   29 1
    32   18   30 1
    33   18   31 1
@<TRIPOS>MOLECULE
ZINC00334446
   25    27     0     0     0
SMALL
USER_CHARGES

@<TRIPOS>ATOM
      1 C1         -0.0167    1.3786    0.0096 C.ar      1 <0>        -0.1144
      2 C2          1.1696    2.0890    0.0021 C.ar      1 <0>        -0.0996
      3 C3          2.3774    1.4191   -0.0134 C.ar      1 <0>        -0.1186
      4 C4          2.3995    0.0308   -0.0211 C.ar      1 <0>         0.1238
      5 C5          1.2066   -0.6797   -0.0130 C.ar      1 <0>        -0.1176
      6 C6          0.0021   -0.0041    0.0020 C.ar      1 <0>        -0.1000
      7 N1          3.6231   -0.6517   -0.0373 N.pl3     1 <0>        -0.4485
      8 C7          4.6660   -0.4211   -0.8834 C.2       1 <0>         0.2679
      9 N2          5.6445   -1.2369   -0.6191 N.2       1 <0>        -0.4877
     10 C8          5.2983   -2.0474    0.4142 C.ar      1 <0>         0.0458
     11 C9          3.9994   -1.6807    0.8062 C.ar      1 <0>         0.0494
     12 C10         3.3802   -2.3424    1.8566 C.ar      1 <0>        -0.1096
     13 C11         4.0435   -3.3565    2.5147 C.ar      1 <0>        -0.0986
     14 C12         5.3270   -3.7204    2.1336 C.ar      1 <0>        -0.1257
     15 C13         5.9543   -3.0798    1.0892 C.ar      1 <0>        -0.0631
     16 H1         -0.9598    1.9046    0.0260 H         1 <0>         0.1317
     17 H2          1.1518    3.1689    0.0080 H         1 <0>         0.1347
     18 H3          3.3036    1.9745   -0.0200 H         1 <0>         0.1315
     19 H4          1.2206   -1.7596   -0.0193 H         1 <0>         0.1293
     20 H5         -0.9261   -0.5562    0.0082 H         1 <0>         0.1339
     21 H6          4.6784    0.3291   -1.6603 H         1 <0>         0.2158
     22 H7          2.3813   -2.0638    2.1584 H         1 <0>         0.1223
     23 H8          3.5607   -3.8708    3.3325 H         1 <0>         0.1324
     24 H9          5.8360   -4.5161    2.6573 H         1 <0>         0.1326
     25 H10         6.9542   -3.3672    0.7994 H         1 <0>         0.1323
@<TRIPOS>BOND
     1    1    6 ar
     2    1    2 ar
     3    1   16 1
     4    2    3 ar
     5    2   17 1
     6    3    4 ar
     7    3   18 1
     8    4    5 ar
     9    4    7 1
    10    5    6 ar
    11    5   19 1
    12    6   20 1
    13    7   11 1
    14    7    8 1
    15    8    9 2
    16    8   21 1
    17    9   10 1
    18   10   15 ar
    19   10   11 ar
    20   11   12 ar
    21   12   13 ar
    22   12   22 1
    23   13   14 ar
    24   13   23 1
    25   14   15 ar
    26   14   24 1
    27   15   25 1
@<TRIPOS>MOLECULE
ZINC02047503
   45    48     0     0     0
SMALL
USER_CHARGES
6-(2,6-dichlorophenyl)-2-[[3-(hydroxymethyl)phenyl]amino]-8-methyl-pyrido[6,5-d]pyrimidin-7-one
@<TRIPOS>ATOM
      1 C1          0.0685    1.0902    0.1116 C.3       1 <0>         0.0699
      2 N1         -0.4262    1.5833    1.3993 N.am      1 <0>        -0.5062
      3 C2         -0.5386    2.9342    1.6113 C.ar      1 <0>         0.4668
      4 C3         -1.0182    3.4258    2.8448 C.ar      1 <0>        -0.2772
      5 C4         -1.3770    2.5290    3.8769 C.2       1 <0>         0.0314
      6 C5         -1.2566    1.1828    3.6580 C.2       1 <0>        -0.1643
      7 C6         -0.7609    0.7061    2.3650 C.2       1 <0>         0.5577
      8 O1         -0.6511   -0.4900    2.1618 O.2       1 <0>        -0.5027
      9 C7         -1.6241    0.2171    4.7198 C.ar      1 <0>        -0.0102
     10 C8         -0.6661   -0.2109    5.6397 C.ar      1 <0>        -0.0065
     11 C9         -1.0165   -1.1073    6.6304 C.ar      1 <0>        -0.1064
     12 C10        -2.3111   -1.5889    6.7051 C.ar      1 <0>        -0.0874
     13 C11        -3.2642   -1.1726    5.7932 C.ar      1 <0>        -0.1064
     14 C12        -2.9282   -0.2726    4.8008 C.ar      1 <0>        -0.0064
     15 Cl1        -4.1255    0.2477    3.6566 Cl        1 <0>        -0.0501
     16 Cl2         0.9610    0.3864    5.5428 Cl        1 <0>        -0.0503
     17 C13        -1.1231    4.8140    3.0188 C.ar      1 <0>         0.2643
     18 N2         -0.7739    5.6039    2.0208 N.ar      1 <0>        -0.5677
     19 C14        -0.3311    5.1056    0.8717 C.ar      1 <0>         0.6091
     20 N3         -0.2145    3.8035    0.6608 N.ar      1 <0>        -0.5948
     21 N4          0.0210    5.9779   -0.1404 N.pl3     1 <0>        -0.6255
     22 C15        -0.1997    7.3500    0.0111 C.ar      1 <0>         0.1535
     23 C16        -1.3058    7.8032    0.7190 C.ar      1 <0>        -0.1019
     24 C17        -1.5179    9.1592    0.8714 C.ar      1 <0>        -0.1022
     25 C18        -0.6364   10.0658    0.3112 C.ar      1 <0>        -0.1107
     26 C19         0.4624    9.6181   -0.3988 C.ar      1 <0>        -0.0740
     27 C20         0.6833    8.2631   -0.5504 C.ar      1 <0>        -0.1226
     28 C21         1.4197   10.6097   -1.0082 C.3       1 <0>         0.1166
     29 O2          0.9930   10.9310   -2.3336 O.3       1 <0>        -0.5676
     30 H1          0.0950    0.0006    0.1256 H         1 <0>         0.1008
     31 H2          1.0728    1.4758   -0.0636 H         1 <0>         0.0801
     32 H3         -0.5942    1.4272   -0.6855 H         1 <0>         0.0804
     33 H4         -1.7410    2.9000    4.8236 H         1 <0>         0.1507
     34 H5         -0.2771   -1.4360    7.3457 H         1 <0>         0.1438
     35 H6         -2.5787   -2.2934    7.4788 H         1 <0>         0.1454
     36 H7         -4.2732   -1.5525    5.8570 H         1 <0>         0.1438
     37 H8         -1.4817    5.2275    3.9498 H         1 <0>         0.1884
     38 H9          0.4212    5.6382   -0.9561 H         1 <0>         0.4268
     39 H10        -1.9968    7.0958    1.1532 H         1 <0>         0.1360
     40 H11        -2.3754    9.5121    1.4250 H         1 <0>         0.1294
     41 H12        -0.8068   11.1258    0.4283 H         1 <0>         0.1250
     42 H13         1.5416    7.9141   -1.1054 H         1 <0>         0.1259
     43 H14         1.4384   11.5159   -0.4028 H         1 <0>         0.0579
     44 H15         2.4189   10.1755   -1.0434 H         1 <0>         0.0551
     45 H16         1.5640   11.5657   -2.7877 H         1 <0>         0.3824
@<TRIPOS>BOND
     1    1    2 1
     2    1   30 1
     3    1   31 1
     4    1   32 1
     5    2    7 am
     6    2    3 1
     7    3   20 ar
     8    3    4 ar
     9    4    5 1
    10    4   17 ar
    11    5    6 2
    12    5   33 1
    13    6    7 1
    14    6    9 1
    15    7    8 2
    16    9   14 ar
    17    9   10 ar
    18   10   11 ar
    19   10   16 1
    20   11   12 ar
    21   11   34 1
    22   12   13 ar
    23   12   35 1
    24   13   14 ar
    25   13   36 1
    26   14   15 1
    27   17   18 ar
    28   17   37 1
    29   18   19 ar
    30   19   20 ar
    31   19   21 1
    32   21   22 1
    33   21   38 1
    34   22   27 ar
    35   22   23 ar
    36   23   24 ar
    37   23   39 1
    38   24   25 ar
    39   24   40 1
    40   25   26 ar
    41   25   41 1
    42   26   27 ar
    43   26   28 1
    44   27   42 1
    45   28   29 1
    46   28   43 1
    47   28   44 1
    48   29   45 1
@<TRIPOS>MOLECULE
ZINC02538824
   27    29     0     0     0
SMALL
USER_CHARGES
4-(benzimidazol-1-yl)aniline
@<TRIPOS>ATOM
      1 C1         -1.2263    1.7485    0.0174 C.ar      1 <0>        -0.1271
      2 C2         -0.0126    1.0758    0.0080 C.ar      1 <0>        -0.1015
      3 C3          1.1746    1.7767    0.0004 C.ar      1 <0>        -0.1080
      4 C4          1.1538    3.1646    0.0080 C.ar      1 <0>         0.0483
      5 C5         -0.0755    3.8454    0.0234 C.ar      1 <0>         0.0445
      6 C6         -1.2662    3.1140    0.0305 C.ar      1 <0>        -0.0636
      7 N1          0.2072    5.1736    0.0279 N.2       1 <0>        -0.4917
      8 C7          1.4969    5.3474    0.0165 C.2       1 <0>         0.2640
      9 N2          2.1310    4.1419    0.0040 N.pl3     1 <0>        -0.4368
     10 C8          3.5182    3.9315   -0.0104 C.ar      1 <0>         0.0578
     11 C9          4.0979    3.0627    0.9043 C.ar      1 <0>        -0.0630
     12 C10         5.4621    2.8517    0.8873 C.ar      1 <0>        -0.1813
     13 C11         6.2561    3.5173   -0.0379 C.ar      1 <0>         0.2244
     14 C12         5.6764    4.3904   -0.9494 C.ar      1 <0>        -0.1811
     15 C13         4.3114    4.5965   -0.9356 C.ar      1 <0>        -0.0639
     16 N3          7.6389    3.3086   -0.0513 N.pl3     1 <0>        -0.8732
     17 H1         -2.1488    1.1868    0.0184 H         1 <0>         0.1304
     18 H2          0.0021   -0.0041    0.0020 H         1 <0>         0.1306
     19 H3          2.1165    1.2483   -0.0118 H         1 <0>         0.1219
     20 H4         -2.2163    3.6274    0.0427 H         1 <0>         0.1301
     21 H5          1.9920    6.3072    0.0175 H         1 <0>         0.2139
     22 H6          3.4810    2.5486    1.6265 H         1 <0>         0.1287
     23 H7          5.9124    2.1725    1.5959 H         1 <0>         0.1308
     24 H8          6.2936    4.9084   -1.6687 H         1 <0>         0.1315
     25 H9          3.8607    5.2754   -1.6443 H         1 <0>         0.1309
     26 H10         8.1933    3.7737   -0.6972 H         1 <0>         0.4016
     27 H11         8.0436    2.6988    0.5853 H         1 <0>         0.4016
@<TRIPOS>BOND
     1    1    6 ar
     2    1    2 ar
     3    1   17 1
     4    2    3 ar
     5    2   18 1
     6    3    4 ar
     7    3   19 1
     8    4    9 1
     9    4    5 ar
    10    5    6 ar
    11    5    7 1
    12    6   20 1
    13    7    8 2
    14    8    9 1
    15    8   21 1
    16    9   10 1
    17   10   15 ar
    18   10   11 ar
    19   11   12 ar
    20   11   22 1
    21   12   13 ar
    22   12   23 1
    23   13   14 ar
    24   13   16 1
    25   14   15 ar
    26   14   24 1
    27   15   25 1
    28   16   26 1
    29   16   27 1
@<TRIPOS>MOLECULE
ZINC13782570
   26    28     0     0     0
SMALL
USER_CHARGES
4-(benzimidazol-1-yl)phenol
@<TRIPOS>ATOM
      1 C1         -1.2263    1.7485    0.0174 C.ar      1 <0>        -0.1250
      2 C2         -0.0126    1.0758    0.0080 C.ar      1 <0>        -0.0981
      3 C3          1.1747    1.7767    0.0004 C.ar      1 <0>        -0.1093
      4 C4          1.1538    3.1646    0.0080 C.ar      1 <0>         0.0486
      5 C5         -0.0755    3.8454    0.0234 C.ar      1 <0>         0.0459
      6 C6         -1.2661    3.1140    0.0316 C.ar      1 <0>        -0.0623
      7 N1          0.2072    5.1736    0.0279 N.2       1 <0>        -0.4865
      8 C7          1.4968    5.3475    0.0165 C.2       1 <0>         0.2660
      9 N2          2.1310    4.1419    0.0040 N.pl3     1 <0>        -0.4471
     10 C8          3.5179    3.9316   -0.0097 C.ar      1 <0>         0.1149
     11 C9          4.0976    3.0633    0.9054 C.ar      1 <0>        -0.0990
     12 C10         5.4621    2.8522    0.8877 C.ar      1 <0>        -0.1261
     13 C11         6.2551    3.5164   -0.0367 C.ar      1 <0>         0.1136
     14 C12         5.6770    4.3886   -0.9477 C.ar      1 <0>        -0.1258
     15 C13         4.3119    4.5960   -0.9346 C.ar      1 <0>        -0.0997
     16 O1          7.5993    3.3129   -0.0497 O.3       1 <0>        -0.4959
     17 H1         -2.1488    1.1868    0.0187 H         1 <0>         0.1323
     18 H2          0.0021   -0.0041    0.0020 H         1 <0>         0.1325
     19 H3          2.1165    1.2483   -0.0118 H         1 <0>         0.1228
     20 H4         -2.2162    3.6274    0.0438 H         1 <0>         0.1319
     21 H5          1.9919    6.3073    0.0169 H         1 <0>         0.2161
     22 H6          3.4809    2.5495    1.6279 H         1 <0>         0.1347
     23 H7          5.9126    2.1734    1.5966 H         1 <0>         0.1406
     24 H8          6.2948    4.9057   -1.6669 H         1 <0>         0.1413
     25 H9          3.8620    5.2753   -1.6436 H         1 <0>         0.1371
     26 H10         8.0945    3.9202    0.5168 H         1 <0>         0.3963
@<TRIPOS>BOND
     1    1    6 ar
     2    1    2 ar
     3    1   17 1
     4    2    3 ar
     5    2   18 1
     6    3    4 ar
     7    3   19 1
     8    4    9 1
     9    4    5 ar
    10    5    6 ar
    11    5    7 1
    12    6   20 1
    13    7    8 2
    14    8    9 1
    15    8   21 1
    16    9   10 1
    17   10   15 ar
    18   10   11 ar
    19   11   12 ar
    20   11   22 1
    21   12   13 ar
    22   12   23 1
    23   13   14 ar
    24   13   16 1
    25   14   15 ar
    26   14   24 1
    27   15   25 1
    28   16   26 1
@<TRIPOS>MOLECULE
ZINC13782564
   26    28     0     0     0
SMALL
USER_CHARGES
3-(benzimidazol-1-yl)phenol
@<TRIPOS>ATOM
      1 C1         -1.9888    8.1879   -2.1341 C.ar      1 <0>        -0.1249
      2 C2         -2.2817    6.8840   -2.5079 C.ar      1 <0>        -0.0980
      3 C3         -1.6979    5.8212   -1.8518 C.ar      1 <0>        -0.1092
      4 C4         -0.8069    6.0592   -0.8145 C.ar      1 <0>         0.0490
      5 C5         -0.5151    7.3796   -0.4323 C.ar      1 <0>         0.0460
      6 C6         -1.1188    8.4410   -1.1117 C.ar      1 <0>        -0.0619
      7 N1          0.3680    7.3084    0.5969 N.2       1 <0>        -0.4856
      8 C7          0.6263    6.0624    0.8680 C.2       1 <0>         0.2680
      9 N2         -0.0741    5.2468    0.0305 N.pl3     1 <0>        -0.4488
     10 C8         -0.0510    3.8458    0.0232 C.ar      1 <0>         0.1435
     11 C9         -1.2418    3.1307    0.0307 C.ar      1 <0>        -0.1270
     12 C10        -1.2192    1.7497    0.0173 C.ar      1 <0>        -0.0816
     13 C11        -0.0126    1.0758    0.0080 C.ar      1 <0>        -0.1406
     14 C12         1.1801    1.7851    0.0004 C.ar      1 <0>         0.1281
     15 C13         1.1611    3.1713    0.0080 C.ar      1 <0>        -0.1467
     16 O1          2.3658    1.1213   -0.0150 O.3       1 <0>        -0.4939
     17 H1         -2.4531    9.0110   -2.6570 H         1 <0>         0.1325
     18 H2         -2.9714    6.7005   -3.3185 H         1 <0>         0.1327
     19 H3         -1.9290    4.8083   -2.1468 H         1 <0>         0.1232
     20 H4         -0.8982    9.4597   -0.8288 H         1 <0>         0.1321
     21 H5          1.2978    5.7239    1.6431 H         1 <0>         0.2164
     22 H6         -2.1860    3.6549    0.0426 H         1 <0>         0.1333
     23 H7         -2.1461    1.1954    0.0187 H         1 <0>         0.1400
     24 H8          0.0021   -0.0041    0.0020 H         1 <0>         0.1383
     25 H9          2.0884    3.7250    0.0018 H         1 <0>         0.1380
     26 H10         2.7004    0.9343   -0.9027 H         1 <0>         0.3971
@<TRIPOS>BOND
     1    1    6 ar
     2    1    2 ar
     3    1   17 1
     4    2    3 ar
     5    2   18 1
     6    3    4 ar
     7    3   19 1
     8    4    9 1
     9    4    5 ar
    10    5    6 ar
    11    5    7 1
    12    6   20 1
    13    7    8 2
    14    8    9 1
    15    8   21 1
    16    9   10 1
    17   10   15 ar
    18   10   11 ar
    19   11   12 ar
    20   11   22 1
    21   12   13 ar
    22   12   23 1
    23   13   14 ar
    24   13   24 1
    25   14   15 ar
    26   14   16 1
    27   15   25 1
    28   16   26 1
@<TRIPOS>MOLECULE
ZINC00361259
   29    31     0     0     0
SMALL
USER_CHARGES

@<TRIPOS>ATOM
      1 C1         -0.0173    1.4248    0.0099 C.3       1 <0>         0.0262
      2 O1          0.0021   -0.0041    0.0020 O.3       1 <0>        -0.3145
      3 C2         -1.2007   -0.6377    0.0101 C.ar      1 <0>         0.1485
      4 C3         -2.3763    0.1080    0.0195 C.ar      1 <0>        -0.2031
      5 C4         -3.5930   -0.5121    0.0273 C.ar      1 <0>        -0.0196
      6 C5         -3.6652   -1.9077    0.0258 C.ar      1 <0>         0.0127
      7 C6         -2.4802   -2.6628    0.0163 C.ar      1 <0>         0.0902
      8 C7         -1.2504   -2.0201    0.0031 C.ar      1 <0>        -0.1527
      9 N1         -2.8724   -3.9884    0.0171 N.pl3     1 <0>        -0.4471
     10 C8         -4.2360   -4.0064    0.0268 C.2       1 <0>         0.2612
     11 N2         -4.6982   -2.7906    0.0318 N.2       1 <0>        -0.4793
     12 C9         -2.0265   -5.1055    0.0091 C.ar      1 <0>         0.1233
     13 C10        -0.9941   -5.1896   -0.9155 C.ar      1 <0>        -0.1166
     14 C11        -0.1617   -6.2917   -0.9206 C.ar      1 <0>        -0.1000
     15 C12        -0.3556   -7.3107   -0.0061 C.ar      1 <0>        -0.1141
     16 C13        -1.3829   -7.2298    0.9159 C.ar      1 <0>        -0.1003
     17 C14        -2.2154   -6.1278    0.9295 C.ar      1 <0>        -0.1176
     18 H1          1.0053    1.8021    0.0021 H         1 <0>         0.1023
     19 H2         -0.5445    1.7859   -0.8732 H         1 <0>         0.0581
     20 H3         -0.5275    1.7763    0.9067 H         1 <0>         0.0581
     21 H4         -2.3256    1.1868    0.0211 H         1 <0>         0.1384
     22 H5         -4.4990    0.0758    0.0349 H         1 <0>         0.1369
     23 H6         -0.3369   -2.5961   -0.0086 H         1 <0>         0.1313
     24 H7         -4.8433   -4.8995    0.0302 H         1 <0>         0.2164
     25 H8         -0.8424   -4.3943   -1.6302 H         1 <0>         0.1298
     26 H9          0.6413   -6.3579   -1.6398 H         1 <0>         0.1338
     27 H10         0.2964   -8.1716   -0.0123 H         1 <0>         0.1314
     28 H11        -1.5321   -8.0273    1.6287 H         1 <0>         0.1344
     29 H12        -3.0149   -6.0631    1.6527 H         1 <0>         0.1317
@<TRIPOS>BOND
     1    1    2 1
     2    1   18 1
     3    1   19 1
     4    1   20 1
     5    2    3 1
     6    3    8 ar
     7    3    4 ar
     8    4    5 ar
     9    4   21 1
    10    5    6 ar
    11    5   22 1
    12    6   11 1
    13    6    7 ar
    14    7    8 ar
    15    7    9 1
    16    8   23 1
    17    9   10 1
    18    9   12 1
    19   10   11 2
    20   10   24 1
    21   12   17 ar
    22   12   13 ar
    23   13   14 ar
    24   13   25 1
    25   14   15 ar
    26   14   26 1
    27   15   16 ar
    28   15   27 1
    29   16   17 ar
    30   16   28 1
    31   17   29 1
@<TRIPOS>MOLECULE
ZINC13687745
   34    37     0     0     0
SMALL
USER_CHARGES
bis(5-hydroxy-1H-indol-2-yl)methanone
@<TRIPOS>ATOM
      1 C1          1.1202   -0.5694    1.2946 C.ar      1 <0>        -0.1011
      2 C2         -0.0685    0.1178    1.1973 C.ar      1 <0>        -0.1191
      3 C3         -0.0679    1.4637    0.8438 C.ar      1 <0>         0.1120
      4 C4          1.1543    2.1154    0.5871 C.ar      1 <0>        -0.1064
      5 C5          2.3569    1.4030    0.6905 C.ar      1 <0>        -0.0834
      6 C6          2.3323    0.0703    1.0422 C.ar      1 <0>         0.0787
      7 O1          3.4973   -0.6238    1.1439 O.3       1 <0>        -0.4957
      8 C7          0.8464    3.4566    0.2565 C.2       1 <0>        -0.0893
      9 C8         -0.5058    3.5980    0.3140 C.2       1 <0>        -0.0128
     10 N1         -1.0726    2.3890    0.6654 N.pl3     1 <0>        -0.5813
     11 H1         -2.0218    2.2195    0.7709 H         1 <0>         0.4085
     12 C9         -1.2453    4.8383    0.0405 C.2       1 <0>         0.4824
     13 O2         -0.6430    5.8868   -0.1057 O.2       1 <0>        -0.4165
     14 C10        -2.7116    4.8135   -0.0567 C.2       1 <0>        -0.0129
     15 C11        -3.5148    5.9080   -0.1504 C.2       1 <0>        -0.0892
     16 C12        -4.8537    5.4554   -0.2242 C.ar      1 <0>        -0.1064
     17 C13        -6.0861    6.1142   -0.3315 C.ar      1 <0>        -0.0834
     18 C14        -7.2508    5.3784   -0.3839 C.ar      1 <0>         0.0787
     19 C15        -7.2076    3.9865   -0.3301 C.ar      1 <0>        -0.1011
     20 C16        -6.0044    3.3262   -0.2247 C.ar      1 <0>        -0.1191
     21 C17        -4.8162    4.0482   -0.1708 C.ar      1 <0>         0.1120
     22 N2         -3.4936    3.6757   -0.0734 N.pl3     1 <0>        -0.5813
     23 H2         -3.1658    2.7642   -0.0230 H         1 <0>         0.4085
     24 O3         -8.4482    6.0143   -0.4890 O.3       1 <0>        -0.4956
     25 H3          1.1134   -1.6138    1.5694 H         1 <0>         0.1380
     26 H4         -1.0021   -0.3877    1.3958 H         1 <0>         0.1299
     27 H5          3.2980    1.8958    0.4960 H         1 <0>         0.1365
     28 H6          3.7750   -1.0488    0.3209 H         1 <0>         0.3901
     29 H7          1.5573    4.2295    0.0041 H         1 <0>         0.1623
     30 H8         -3.1889    6.9375   -0.1654 H         1 <0>         0.1624
     31 H9         -6.1232    7.1927   -0.3733 H         1 <0>         0.1365
     32 H10        -8.1265    3.4207   -0.3720 H         1 <0>         0.1380
     33 H11        -5.9827    2.2472   -0.1842 H         1 <0>         0.1299
     34 H12        -8.8548    6.2304    0.3614 H         1 <0>         0.3901
@<TRIPOS>BOND
     1    1    6 ar
     2    1    2 ar
     3    1   25 1
     4    2    3 ar
     5    2   26 1
     6    3   10 1
     7    3    4 ar
     8    4    5 ar
     9    4    8 1
    10    5    6 ar
    11    5   27 1
    12    6    7 1
    13    7   28 1
    14    8    9 2
    15    8   29 1
    16    9   10 1
    17    9   12 1
    18   10   11 1
    19   12   13 2
    20   12   14 1
    21   14   22 1
    22   14   15 2
    23   15   16 1
    24   15   30 1
    25   16   21 ar
    26   16   17 ar
    27   17   18 ar
    28   17   31 1
    29   18   19 ar
    30   18   24 1
    31   19   20 ar
    32   19   32 1
    33   20   21 ar
    34   20   33 1
    35   21   22 1
    36   22   23 1
    37   24   34 1
@<TRIPOS>MOLECULE
ZINC06494041
   31    34     0     0     0
SMALL
USER_CHARGES

@<TRIPOS>ATOM
      1 C1         -0.0166    1.3729    0.0096 C.ar      1 <0>        -0.1772
      2 C2          1.1713    2.0902    0.0021 C.ar      1 <0>        -0.0720
      3 C3          2.3853    1.4387   -0.0129 C.ar      1 <0>        -0.1863
      4 C4          2.4268    0.0478   -0.0208 C.ar      1 <0>         0.2063
      5 C5          1.2241   -0.6774   -0.0132 C.ar      1 <0>        -0.1858
      6 C6          0.0021   -0.0041    0.0020 C.ar      1 <0>        -0.0332
      7 C7          1.2815   -2.1505   -0.0216 C.2       1 <0>         0.4332
      8 C8          2.5613   -2.7653   -0.0372 C.2       1 <0>        -0.4098
      9 C9          3.7021   -1.9733   -0.0438 C.2       1 <0>         0.5137
     10 O1          4.9122   -2.5683   -0.0585 O.3       1 <0>        -0.6869
     11 N1          3.6345   -0.6206   -0.0363 N.pl3     1 <0>        -0.6309
     12 H1          4.4575   -0.1073   -0.0417 H         1 <0>         0.4042
     13 C10         2.6782   -4.2336   -0.0457 C.2       1 <0>         0.4315
     14 N2          3.8577   -4.9308   -0.0552 N.pl3     1 <0>        -0.5959
     15 H2          4.7505   -4.5517   -0.0577 H         1 <0>         0.4291
     16 C11         3.5370   -6.2768   -0.0604 C.ar      1 <0>         0.0211
     17 C12         4.2878   -7.4431   -0.0706 C.ar      1 <0>        -0.1084
     18 C13         3.6537   -8.6681   -0.0741 C.ar      1 <0>        -0.1374
     19 C14         2.2683   -8.7428   -0.0680 C.ar      1 <0>        -0.1381
     20 C15         1.5066   -7.5965   -0.0579 C.ar      1 <0>        -0.0859
     21 C16         2.1332   -6.3464   -0.0538 C.ar      1 <0>         0.0641
     22 N3          1.6678   -5.0724   -0.0397 N.2       1 <0>        -0.5120
     23 O2          0.2619   -2.8199   -0.0151 O.2       1 <0>        -0.5033
     24 H3         -0.9606    1.8973    0.0259 H         1 <0>         0.1207
     25 H4          1.1439    3.1698    0.0078 H         1 <0>         0.1213
     26 H5          3.3037    2.0070   -0.0190 H         1 <0>         0.1238
     27 H6         -0.9240   -0.5597    0.0082 H         1 <0>         0.1332
     28 H7          5.3666   -7.3922   -0.0760 H         1 <0>         0.1100
     29 H8          4.2396   -9.5753   -0.0819 H         1 <0>         0.1160
     30 H9          1.7837   -9.7081   -0.0715 H         1 <0>         0.1161
     31 H10         0.4286   -7.6623   -0.0536 H         1 <0>         0.1187
@<TRIPOS>BOND
     1    1    6 ar
     2    1    2 ar
     3    1   24 1
     4    2    3 ar
     5    2   25 1
     6    3    4 ar
     7    3   26 1
     8    4   11 1
     9    4    5 ar
    10    5    6 ar
    11    5    7 1
    12    6   27 1
    13    7    8 1
    14    7   23 2
    15    8    9 2
    16    8   13 1
    17    9   10 1
    18    9   11 1
    19   11   12 1
    20   13   22 2
    21   13   14 1
    22   14   15 1
    23   14   16 1
    24   16   21 ar
    25   16   17 ar
    26   17   18 ar
    27   17   28 1
    28   18   19 ar
    29   18   29 1
    30   19   20 ar
    31   19   30 1
    32   20   21 ar
    33   20   31 1
    34   21   22 1
@<TRIPOS>MOLECULE
ZINC14961821
   28    31     0     0     0
SMALL
USER_CHARGES

@<TRIPOS>ATOM
      1 C1         -0.0164    1.3614    0.0095 C.ar      1 <0>        -0.1554
      2 C2          1.1697    2.0843    0.0021 C.ar      1 <0>        -0.0625
      3 C3          2.3773    1.4458   -0.0133 C.ar      1 <0>        -0.1433
      4 C4          2.4255    0.0535   -0.0213 C.ar      1 <0>         0.1273
      5 C5          1.2248   -0.6787   -0.0133 C.ar      1 <0>        -0.1427
      6 C6          0.0021   -0.0041    0.0020 C.ar      1 <0>        -0.0275
      7 C7          1.6063   -2.0961   -0.0252 C.2       1 <0>         0.1595
      8 N1          2.9183   -2.1519   -0.0388 N.2       1 <0>        -0.2302
      9 N2          3.4502   -0.8585   -0.0368 N.pl3     1 <0>        -0.4922
     10 H1          4.3953   -0.6405   -0.0456 H         1 <0>         0.4463
     11 C8          0.6836   -3.2485   -0.0220 C.2       1 <0>         0.3537
     12 N3          1.0655   -4.5638   -0.0278 N.pl3     1 <0>        -0.5842
     13 H2          1.9757   -4.8989   -0.0347 H         1 <0>         0.4288
     14 C9         -0.0882   -5.3240   -0.0215 C.ar      1 <0>         0.0578
     15 C10        -0.3426   -6.6883   -0.0234 C.ar      1 <0>        -0.1129
     16 C11        -1.6454   -7.1409   -0.0158 C.ar      1 <0>        -0.0935
     17 C12        -2.7024   -6.2418   -0.0062 C.ar      1 <0>        -0.1260
     18 C13        -2.4721   -4.8954   -0.0042 C.ar      1 <0>        -0.0582
     19 C14        -1.1592   -4.4128   -0.0118 C.ar      1 <0>         0.0484
     20 N4         -0.6255   -3.1671   -0.0073 N.2       1 <0>        -0.4560
     21 H3         -0.9615    1.8838    0.0259 H         1 <0>         0.1317
     22 H4          1.1368    3.1638    0.0082 H         1 <0>         0.1334
     23 H5          3.2926    2.0190   -0.0197 H         1 <0>         0.1299
     24 H6         -0.9242   -0.5594    0.0083 H         1 <0>         0.1423
     25 H7          0.4761   -7.3926   -0.0312 H         1 <0>         0.1260
     26 H8         -1.8443   -8.2024   -0.0176 H         1 <0>         0.1333
     27 H9         -3.7175   -6.6104   -0.0007 H         1 <0>         0.1329
     28 H10        -3.3023   -4.2047    0.0033 H         1 <0>         0.1333
@<TRIPOS>BOND
     1    1    6 ar
     2    1    2 ar
     3    1   21 1
     4    2    3 ar
     5    2   22 1
     6    3    4 ar
     7    3   23 1
     8    4    9 1
     9    4    5 ar
    10    5    6 ar
    11    5    7 1
    12    6   24 1
    13    7    8 2
    14    7   11 1
    15    8    9 1
    16    9   10 1
    17   11   20 2
    18   11   12 1
    19   12   13 1
    20   12   14 1
    21   14   19 ar
    22   14   15 ar
    23   15   16 ar
    24   15   25 1
    25   16   17 ar
    26   16   26 1
    27   17   18 ar
    28   17   27 1
    29   18   19 ar
    30   18   28 1
    31   19   20 1
@<TRIPOS>MOLECULE
ZINC13798298
   25    27     0     0     0
SMALL
USER_CHARGES
1-phenylbenzimidazole-5-thiol
@<TRIPOS>ATOM
      1 C1         -3.4051    3.7844    0.0398 C.ar      1 <0>        -0.1277
      2 C2         -3.2974    2.7611   -0.8840 C.ar      1 <0>        -0.1027
      3 C3         -2.1756    1.9555   -0.8968 C.ar      1 <0>        -0.1266
      4 C4         -1.1555    2.1738    0.0196 C.ar      1 <0>         0.1474
      5 C5         -1.2691    3.1985    0.9497 C.ar      1 <0>        -0.1212
      6 C6         -2.3908    4.0043    0.9537 C.ar      1 <0>        -0.1012
      7 N1         -0.0164    1.3580    0.0095 N.pl3     1 <0>        -0.4559
      8 C7          0.0021   -0.0041    0.0020 C.2       1 <0>         0.2441
      9 N2          1.2300   -0.4344   -0.0120 N.2       1 <0>        -0.4915
     10 C8          2.0856    0.6206   -0.0145 C.ar      1 <0>         0.0672
     11 C9          1.3005    1.7861   -0.0008 C.ar      1 <0>         0.0058
     12 C10         1.9077    3.0338    0.0006 C.ar      1 <0>        -0.1070
     13 C11         3.2822    3.1296   -0.0125 C.ar      1 <0>        -0.1039
     14 C12         4.0689    1.9790   -0.0261 C.ar      1 <0>         0.1273
     15 C13         3.4782    0.7283   -0.0272 C.ar      1 <0>        -0.1076
     16 H1         -4.2830    4.4134    0.0473 H         1 <0>         0.1253
     17 H2         -4.0912    2.5918   -1.5965 H         1 <0>         0.1285
     18 H3         -2.0917    1.1569   -1.6190 H         1 <0>         0.1288
     19 H4         -0.4793    3.3679    1.6665 H         1 <0>         0.1300
     20 H5         -2.4780    4.8040    1.6742 H         1 <0>         0.1289
     21 H6         -0.8746   -0.6348    0.0064 H         1 <0>         0.2046
     22 H7          1.3036    3.9289    0.0119 H         1 <0>         0.1087
     23 H8          3.7527    4.1018   -0.0117 H         1 <0>         0.1235
     24 H9          4.0909   -0.1610   -0.0382 H         1 <0>         0.1208
     25 S1          5.8253    2.1186   -0.0427 S.3       1 <0>        -0.9455
@<TRIPOS>BOND
     1    1    6 ar
     2    1    2 ar
     3    1   16 1
     4    2    3 ar
     5    2   17 1
     6    3    4 ar
     7    3   18 1
     8    4    5 ar
     9    4    7 1
    10    5    6 ar
    11    5   19 1
    12    6   20 1
    13    7   11 1
    14    7    8 1
    15    8    9 2
    16    8   21 1
    17    9   10 1
    18   10   15 ar
    19   10   11 ar
    20   11   12 ar
    21   12   13 ar
    22   12   22 1
    23   13   14 ar
    24   13   23 1
    25   14   15 ar
    26   14   25 1
    27   15   24 1
@<TRIPOS>MOLECULE
ZINC02581100
   34    36     0     0     0
SMALL
USER_CHARGES

@<TRIPOS>ATOM
      1 C1         -0.0184    1.5028    0.0103 C.3       1 <0>        -0.1219
      2 C2          0.0021   -0.0041    0.0020 C.ar      1 <0>        -0.0612
      3 C3          0.0055   -0.6683   -1.1865 C.ar      1 <0>        -0.0832
      4 C4          0.0245   -2.0728   -1.2000 C.ar      1 <0>         0.0744
      5 C5          0.0399   -2.7785    0.0300 C.ar      1 <0>         0.0898
      6 C6          0.0359   -2.0578    1.2372 C.ar      1 <0>        -0.0864
      7 C7          0.0230   -0.6970    1.2107 C.ar      1 <0>        -0.0584
      8 C8          0.0253    0.0712    2.5072 C.3       1 <0>        -0.1220
      9 N1          0.0586   -4.1152    0.0265 N.ar      1 <0>        -0.4203
     10 C9          0.0624   -4.7662   -1.1242 C.ar      1 <0>         0.1446
     11 C10         0.0474   -4.0614   -2.3428 C.ar      1 <0>         0.0874
     12 N2          0.0286   -2.7505   -2.3550 N.ar      1 <0>        -0.4186
     13 C11         0.0830   -6.2476   -1.1313 C.ar      1 <0>        -0.0453
     14 C12        -0.0126   -6.9533    0.0679 C.ar      1 <0>        -0.0659
     15 C13         0.0071   -8.3325    0.0605 C.ar      1 <0>        -0.1341
     16 C14         0.1221   -9.0208   -1.1384 C.ar      1 <0>         0.0992
     17 C15         0.2180   -8.3214   -2.3394 C.ar      1 <0>         0.0802
     18 C16         0.1924   -6.9389   -2.3378 C.ar      1 <0>        -0.1070
     19 O1          0.3315   -8.9982   -3.5135 O.3       1 <0>        -0.4843
     20 O2          0.1416  -10.3798   -1.1413 O.3       1 <0>        -0.4866
     21 H1          1.0042    1.8801    0.0026 H         1 <0>         0.0786
     22 H2         -0.5455    1.8639   -0.8728 H         1 <0>         0.0729
     23 H3         -0.5286    1.8543    0.9071 H         1 <0>         0.0759
     24 H4         -0.0068   -0.1174   -2.1153 H         1 <0>         0.1416
     25 H5          0.0471   -2.5817    2.1815 H         1 <0>         0.1416
     26 H6         -1.0017    0.2428    2.8297 H         1 <0>         0.0787
     27 H7          0.5542   -0.5023    3.2684 H         1 <0>         0.0730
     28 H8          0.5251    1.0288    2.3612 H         1 <0>         0.0761
     29 H9          0.0511   -4.6054   -3.2758 H         1 <0>         0.1756
     30 H10        -0.1019   -6.4197    1.0026 H         1 <0>         0.1434
     31 H11        -0.0666   -8.8775    0.9899 H         1 <0>         0.1403
     32 H12         0.2618   -6.3954   -3.2684 H         1 <0>         0.1411
     33 H13        -0.5156   -9.2068   -3.9307 H         1 <0>         0.3897
     34 H14        -0.7326  -10.7855   -1.2194 H         1 <0>         0.3915
@<TRIPOS>BOND
     1    1    2 1
     2    1   21 1
     3    1   22 1
     4    1   23 1
     5    2    7 ar
     6    2    3 ar
     7    3    4 ar
     8    3   24 1
     9    4   12 ar
    10    4    5 ar
    11    5    6 ar
    12    5    9 ar
    13    6    7 ar
    14    6   25 1
    15    7    8 1
    16    8   26 1
    17    8   27 1
    18    8   28 1
    19    9   10 ar
    20   10   11 ar
    21   10   13 1
    22   11   12 ar
    23   11   29 1
    24   13   18 ar
    25   13   14 ar
    26   14   15 ar
    27   14   30 1
    28   15   16 ar
    29   15   31 1
    30   16   17 ar
    31   16   20 1
    32   17   18 ar
    33   17   19 1
    34   18   32 1
    35   19   33 1
    36   20   34 1
@<TRIPOS>MOLECULE
ZINC02581100
   34    36     0     0     0
SMALL
USER_CHARGES

@<TRIPOS>ATOM
      1 C1         -0.0184    1.5028    0.0103 C.3       1 <0>        -0.1122
      2 C2          0.0021   -0.0041    0.0020 C.ar      1 <0>        -0.1058
      3 C3          0.0057   -0.6825   -1.1986 C.ar      1 <0>        -0.1076
      4 C4          0.0250   -2.0739   -1.2084 C.ar      1 <0>         0.0707
      5 C5          0.0407   -2.7767    0.0067 C.ar      1 <0>         0.1890
      6 C6          0.0364   -2.0791    1.2088 C.ar      1 <0>        -0.1624
      7 C7          0.0229   -0.6995    1.2020 C.ar      1 <0>        -0.0499
      8 C8          0.0245    0.0561    2.5059 C.3       1 <0>        -0.1193
      9 N1          0.0599   -4.1616   -0.0051 N.pl3     1 <0>        -0.6682
     10 C9          0.0633   -4.8244   -1.2084 C.2       1 <0>         0.0019
     11 C10         0.0478   -4.1010   -2.4114 C.2       1 <0>         0.1634
     12 N2          0.0284   -2.7667   -2.4043 N.pl3     1 <0>        -0.6125
     13 C11         0.0827   -6.2354   -1.2352 C.2       1 <0>         0.0744
     14 C12         0.0928   -6.9571   -0.0312 C.2       1 <0>        -0.2660
     15 C13         0.1119   -8.3402   -0.0597 C.2       1 <0>         0.2920
     16 O1          0.1212   -9.0353    1.0775 O.2       1 <0>        -0.4696
     17 C14         0.1215   -9.0398   -1.3589 C.2       1 <0>         0.3562
     18 O2          0.1379  -10.2587   -1.3982 O.2       1 <0>        -0.3853
     19 C15         0.1110   -8.2908   -2.5579 C.2       1 <0>        -0.1794
     20 C16         0.0863   -6.9387   -2.5162 C.2       1 <0>        -0.0537
     21 H1          1.0042    1.8801    0.0026 H         1 <0>         0.0698
     22 H2         -0.5455    1.8639   -0.8728 H         1 <0>         0.0650
     23 H3         -0.5286    1.8543    0.9071 H         1 <0>         0.0701
     24 H4         -0.0068   -0.1350   -2.1294 H         1 <0>         0.1307
     25 H5          0.0481   -2.6157    2.1460 H         1 <0>         0.1326
     26 H6         -1.0027    0.2240    2.8298 H         1 <0>         0.0744
     27 H7          0.5535   -0.5244    3.2616 H         1 <0>         0.0687
     28 H8          0.5237    1.0154    2.3693 H         1 <0>         0.0722
     29 H9          0.0712   -4.6585    0.8279 H         1 <0>         0.4163
     30 H10         0.0513   -4.6301   -3.3529 H         1 <0>         0.1782
     31 H11         0.0175   -2.2802   -3.2434 H         1 <0>         0.4223
     32 H12         0.0861   -6.4346    0.9139 H         1 <0>         0.1383
     33 H13         0.1183   -8.7998   -3.5104 H         1 <0>         0.1583
     34 H14         0.0740   -6.3745   -3.4370 H         1 <0>         0.1473
@<TRIPOS>BOND
     1    1    2 1
     2    1   21 1
     3    1   22 1
     4    1   23 1
     5    2    7 ar
     6    2    3 ar
     7    3    4 ar
     8    3   24 1
     9    4   12 1
    10    4    5 ar
    11    5    6 ar
    12    5    9 1
    13    6    7 ar
    14    6   25 1
    15    7    8 1
    16    8   26 1
    17    8   27 1
    18    8   28 1
    19    9   10 1
    20    9   29 1
    21   10   11 2
    22   10   13 1
    23   11   12 1
    24   11   30 1
    25   12   31 1
    26   13   20 1
    27   13   14 2
    28   14   15 1
    29   14   32 1
    30   15   16 2
    31   15   17 1
    32   17   18 2
    33   17   19 1
    34   19   20 2
    35   19   33 1
    36   20   34 1
@<TRIPOS>MOLECULE
ZINC02581100
   35    37     0     0     0
SMALL
USER_CHARGES
4-(6,7-dimethyl-1,4-dihydroquinoxalin-2-yl)-1,2-benzoquinone
@<TRIPOS>ATOM
      1 C1          2.4620    3.9299   -0.0003 C.3       1 <0>        -0.1381
      2 C2          1.1603    3.1705    0.0081 C.ar      1 <0>         0.0237
      3 C3         -0.0344    3.8590    0.0237 C.ar      1 <0>        -0.1741
      4 C4         -1.2374    3.1596    0.0314 C.ar      1 <0>         0.2424
      5 C5         -1.2246    1.7559    0.0174 C.ar      1 <0>        -0.0381
      6 C6         -0.0126    1.0758    0.0080 C.ar      1 <0>        -0.0485
      7 C7          1.1718    1.7835    0.0004 C.ar      1 <0>        -0.1056
      8 C8          2.4855    1.0452   -0.0156 C.3       1 <0>        -0.1224
      9 N1         -2.4231    1.0617    0.0188 N.pl3     1 <0>        -0.4554
     10 C9         -3.6058    1.7605    0.0278 C.2       1 <0>         0.3184
     11 C10        -3.5947    3.1643    0.0354 C.3       1 <0>         0.1084
     12 N2         -2.4421    3.8369    0.0466 N.pl3     1 <0>        -0.7208
     13 C11        -4.8344    1.0658    0.0288 C.2       1 <0>        -0.0489
     14 C12        -4.8434   -0.3379    0.0207 C.2       1 <0>        -0.0683
     15 C13        -6.0488   -1.0170    0.0222 C.2       1 <0>         0.2735
     16 O1         -6.0689   -2.3496    0.0141 O.2       1 <0>        -0.3530
     17 C14        -7.3120   -0.2543    0.0324 C.2       1 <0>         0.3477
     18 O2         -8.3815   -0.8405    0.0342 O.2       1 <0>        -0.3367
     19 C15        -7.2769    1.1590    0.0405 C.2       1 <0>        -0.1395
     20 C16        -6.0913    1.8109    0.0445 C.2       1 <0>        -0.0733
     21 H1          2.2562    5.0104    0.0076 H         1 <0>         0.0798
     22 H2          3.0313    3.6717   -0.9054 H         1 <0>         0.0913
     23 H3          3.0486    3.6618    0.8908 H         1 <0>         0.0914
     24 H4         -0.0363    4.9390    0.0295 H         1 <0>         0.1532
     25 H5          0.0021   -0.0041    0.0020 H         1 <0>         0.1481
     26 H6          2.2970   -0.0385   -0.0198 H         1 <0>         0.0729
     27 H7          3.0673    1.3127    0.8788 H         1 <0>         0.0825
     28 H8          3.0510    1.3225   -0.9174 H         1 <0>         0.0825
     29 H9         -2.4342   -0.0382    0.0128 H         1 <0>         0.4745
     30 H10        -4.1044    3.5399   -0.8641 H         1 <0>         0.1180
     31 H11        -2.4473    4.9367    0.0680 H         1 <0>         0.4708
     32 H12        -3.8943   -0.8940    0.0132 H         1 <0>         0.1651
     33 H13        -8.2178    1.7287    0.0435 H         1 <0>         0.1848
     34 H14        -6.0683    2.9106    0.0597 H         1 <0>         0.1744
     35 H15        -4.1163    3.5303    0.9321 H         1 <0>         0.1192
@<TRIPOS>BOND
     1    1    2 1
     2    1   21 1
     3    1   22 1
     4    1   23 1
     5    2    7 ar
     6    2    3 ar
     7    3    4 ar
     8    3   24 1
     9    4   12 1
    10    4    5 ar
    11    5    6 ar
    12    5    9 1
    13    6    7 ar
    14    6   25 1
    15    7    8 1
    16    8   26 1
    17    8   27 1
    18    8   28 1
    19    9   10 2
    20    9   29 1
    21   10   11 1
    22   10   13 1
    23   11   12 1
    24   11   30 1
    25   11   35 1
    26   12   31 1
    27   13   20 1
    28   13   14 2
    29   14   15 1
    30   14   32 1
    31   15   16 2
    32   15   17 1
    33   17   18 2
    34   17   19 1
    35   19   20 2
    36   19   33 1
    37   20   34 1
@<TRIPOS>MOLECULE
ZINC00405539
   25    27     0     0     0
SMALL
USER_CHARGES
5-chloro-1-phenyl-benzimidazole
@<TRIPOS>ATOM
      1 C1          0.0021   -0.0041    0.0020 C.ar      1 <0>        -0.1122
      2 C2         -0.0167    1.3786    0.0096 C.ar      1 <0>        -0.0997
      3 C3          1.1691    2.0868    0.0021 C.ar      1 <0>        -0.1165
      4 C4          2.3808    1.4090   -0.0135 C.ar      1 <0>         0.1198
      5 C5          2.3963    0.0206   -0.0207 C.ar      1 <0>        -0.1165
      6 C6          1.2072   -0.6820   -0.0126 C.ar      1 <0>        -0.0994
      7 N1          3.5854    2.1246   -0.0212 N.pl3     1 <0>        -0.4455
      8 C7          4.6484    1.9266    0.8080 C.2       1 <0>         0.2759
      9 N2          5.5994    2.7677    0.5237 N.2       1 <0>        -0.4840
     10 C8          5.2138    3.5637   -0.5069 C.ar      1 <0>         0.0586
     11 C9          3.9194    3.1596   -0.8757 C.ar      1 <0>         0.0518
     12 C10         3.2598    3.8069   -1.9105 C.ar      1 <0>        -0.0929
     13 C11         3.8821    4.8376   -2.5823 C.ar      1 <0>        -0.0911
     14 C12         5.1630    5.2376   -2.2259 C.ar      1 <0>        -0.0405
     15 C13         5.8305    4.6102   -1.1973 C.ar      1 <0>        -0.0526
     16 Cl1         5.9294    6.5379   -3.0836 Cl        1 <0>        -0.0595
     17 H1         -0.9264   -0.5556    0.0079 H         1 <0>         0.1323
     18 H2         -0.9595    1.9053    0.0169 H         1 <0>         0.1347
     19 H3          1.1538    3.1667    0.0080 H         1 <0>         0.1300
     20 H4          3.3373   -0.5094   -0.0328 H         1 <0>         0.1322
     21 H5          1.2187   -1.7619   -0.0182 H         1 <0>         0.1354
     22 H6          4.6945    1.1806    1.5876 H         1 <0>         0.2193
     23 H7          2.2631    3.5010   -2.1921 H         1 <0>         0.1332
     24 H8          3.3696    5.3375   -3.3910 H         1 <0>         0.1437
     25 H9          6.8270    4.9258   -0.9256 H         1 <0>         0.1437
@<TRIPOS>BOND
     1    1    6 ar
     2    1    2 ar
     3    1   17 1
     4    2    3 ar
     5    2   18 1
     6    3    4 ar
     7    3   19 1
     8    4    5 ar
     9    4    7 1
    10    5    6 ar
    11    5   20 1
    12    6   21 1
    13    7   11 1
    14    7    8 1
    15    8    9 2
    16    8   22 1
    17    9   10 1
    18   10   15 ar
    19   10   11 ar
    20   11   12 ar
    21   12   13 ar
    22   12   23 1
    23   13   14 ar
    24   13   24 1
    25   14   15 ar
    26   14   16 1
    27   15   25 1
@<TRIPOS>MOLECULE
ZINC06400013
   24    26     0     0     0
SMALL
USER_CHARGES
1-phenylimidazo[4,5-c]pyridine
@<TRIPOS>ATOM
      1 C1          0.0021   -0.0041    0.0020 C.ar      1 <0>        -0.1110
      2 C2         -0.0167    1.3786    0.0096 C.ar      1 <0>        -0.0996
      3 C3          1.1691    2.0868    0.0021 C.ar      1 <0>        -0.1153
      4 C4          2.3808    1.4090   -0.0137 C.ar      1 <0>         0.1171
      5 C5          2.3963    0.0207   -0.0208 C.ar      1 <0>        -0.1154
      6 C6          1.2072   -0.6819   -0.0127 C.ar      1 <0>        -0.0994
      7 N1          3.5855    2.1247   -0.0223 N.pl3     1 <0>        -0.4419
      8 C7          4.6501    1.9262    0.8071 C.2       1 <0>         0.2710
      9 N2          5.6015    2.7674    0.5223 N.2       1 <0>        -0.4712
     10 C8          5.2150    3.5622   -0.5069 C.ar      1 <0>        -0.0074
     11 C9          3.9168    3.1547   -0.8732 C.ar      1 <0>         0.0805
     12 C10         3.2837    3.8117   -1.9214 C.ar      1 <0>        -0.1587
     13 C11         3.9498    4.8333   -2.5643 C.ar      1 <0>         0.1010
     14 N3          5.1695    5.1925   -2.2008 N.ar      1 <0>        -0.4835
     15 C12         5.8105    4.6093   -1.2095 C.ar      1 <0>         0.1776
     16 H1         -0.9264   -0.5556    0.0080 H         1 <0>         0.1330
     17 H2         -0.9595    1.9053    0.0170 H         1 <0>         0.1353
     18 H3          1.1538    3.1666    0.0077 H         1 <0>         0.1295
     19 H4          3.3373   -0.5093   -0.0330 H         1 <0>         0.1325
     20 H5          1.2187   -1.7619   -0.0183 H         1 <0>         0.1360
     21 H6          4.6968    1.1797    1.5862 H         1 <0>         0.2210
     22 H7          2.2875    3.5273   -2.2268 H         1 <0>         0.1345
     23 H8          3.4665    5.3499   -3.3803 H         1 <0>         0.1656
     24 H9          6.8067    4.9345   -0.9481 H         1 <0>         0.1685
@<TRIPOS>BOND
     1    1    6 ar
     2    1    2 ar
     3    1   16 1
     4    2    3 ar
     5    2   17 1
     6    3    4 ar
     7    3   18 1
     8    4    5 ar
     9    4    7 1
    10    5    6 ar
    11    5   19 1
    12    6   20 1
    13    7   11 1
    14    7    8 1
    15    8    9 2
    16    8   21 1
    17    9   10 1
    18   10   15 ar
    19   10   11 ar
    20   11   12 ar
    21   12   13 ar
    22   12   22 1
    23   13   14 ar
    24   13   23 1
    25   14   15 ar
    26   15   24 1
@<TRIPOS>MOLECULE
ZINC03952380
   72    74     0     0     0
SMALL
USER_CHARGES
1-[3-(2,6-dichlorophenyl)-8-(4-diethylaminobutylamino)-5,7,9-triazabicyclo[4.4.0]deca-2,4,7,9,11-pentaen-4-yl]-3-tert-butyl-urea
@<TRIPOS>ATOM
      1 C1         -4.4663    6.7451   -2.1992 C.3       1 <0>        -0.1869
      2 C2         -3.7440    7.5917   -1.1493 C.3       1 <0>        -0.0140
      3 C3         -5.7495    7.7763    0.1948 C.3       1 <0>        -0.0122
      4 C4         -5.8211    9.3045    0.1743 C.3       1 <0>        -0.1886
      5 C5         -4.2126    5.9411    0.5591 C.3       1 <0>        -0.0109
      6 C6         -2.7345    5.6035    0.7639 C.3       1 <0>        -0.1438
      7 C7         -2.5983    4.1344    1.1690 C.3       1 <0>        -0.1329
      8 C8         -1.1201    3.7968    1.3738 C.3       1 <0>         0.1393
      9 N1         -0.9897    2.3901    1.7617 N.pl3     1 <0>        -0.6988
     10 C9          0.2606    1.8528    2.0025 C.ar      1 <0>         0.5908
     11 N2          1.3286    2.6364    1.8690 N.ar      1 <0>        -0.5736
     12 C10         2.5462    2.1791    2.0797 C.ar      1 <0>         0.2660
     13 C11         2.7015    0.8330    2.4529 C.ar      1 <0>        -0.2909
     14 C12         3.9658    0.2710    2.6947 C.ar      1 <0>         0.0475
     15 C13         4.0241   -1.0651    3.0577 C.ar      1 <0>        -0.1607
     16 C14         2.8285   -1.8061    3.1708 C.ar      1 <0>         0.4876
     17 N3          1.6541   -1.2563    2.9386 N.ar      1 <0>        -0.4748
     18 C15         1.5415    0.0257    2.5863 C.ar      1 <0>         0.4312
     19 N4          0.3471    0.5830    2.3502 N.ar      1 <0>        -0.5595
     20 N5          2.8912   -3.1435    3.5349 N.am      1 <0>        -0.6592
     21 C16         1.7585   -3.8651    3.6472 C.2       1 <0>         0.6931
     22 O1          0.6818   -3.3443    3.4295 O.2       1 <0>        -0.5048
     23 N6          1.8195   -5.1642    4.0010 N.am      1 <0>        -0.7340
     24 C17         0.5883   -5.9487    4.1231 C.3       1 <0>         0.1879
     25 C18        -0.1412   -5.9656    2.7783 C.3       1 <0>        -0.1657
     26 C19         0.9349   -7.3813    4.5333 C.3       1 <0>        -0.1564
     27 C20        -0.3148   -5.3184    5.1852 C.3       1 <0>        -0.1657
     28 C21         5.3318   -1.7107    3.3246 C.ar      1 <0>        -0.0437
     29 C22         6.0299   -2.3328    2.2896 C.ar      1 <0>        -0.0133
     30 C23         7.2503   -2.9280    2.5437 C.ar      1 <0>        -0.1036
     31 C24         7.7753   -2.9171    3.8233 C.ar      1 <0>        -0.0815
     32 C25         7.0852   -2.3068    4.8551 C.ar      1 <0>        -0.1036
     33 C26         5.8664   -1.7036    4.6130 C.ar      1 <0>        -0.0132
     34 Cl1         5.0016   -0.9387    5.9094 Cl        1 <0>        -0.0433
     35 Cl2         5.3693   -2.3538    0.6844 Cl        1 <0>        -0.0434
     36 H1         -4.0065    6.9055   -3.1744 H         1 <0>         0.1057
     37 H2         -4.3908    5.6913   -1.9309 H         1 <0>         0.0804
     38 H3         -5.5162    7.0352   -2.2404 H         1 <0>         0.0800
     39 H4         -3.8394    8.6470   -1.4052 H         1 <0>         0.1289
     40 H5         -2.6893    7.3178   -1.1245 H         1 <0>         0.1296
     41 H6         -6.2651    7.3767   -0.6785 H         1 <0>         0.1321
     42 H7         -6.2262    7.4024    1.1009 H         1 <0>         0.1285
     43 H8         -6.8645    9.6196    0.1898 H         1 <0>         0.1058
     44 H9         -5.3079    9.7041    1.0489 H         1 <0>         0.0802
     45 H10        -5.3421    9.6786   -0.7305 H         1 <0>         0.0792
     46 H11        -4.6244    5.3079   -0.2268 H         1 <0>         0.1339
     47 H12        -4.7569    5.7683    1.4875 H         1 <0>         0.1302
     48 H13        -2.3227    6.2368    1.5498 H         1 <0>         0.0912
     49 H14        -2.1902    5.7764   -0.1645 H         1 <0>         0.0908
     50 H15        -3.0100    3.5012    0.3831 H         1 <0>         0.0823
     51 H16        -3.1425    3.9616    2.0974 H         1 <0>         0.0829
     52 H17        -0.7083    4.4301    2.1597 H         1 <0>         0.0712
     53 H18        -0.5759    3.9697    0.4454 H         1 <0>         0.0709
     54 H19        -1.7808    1.8359    1.8494 H         1 <0>         0.4172
     55 H20         3.4054    2.8240    1.9687 H         1 <0>         0.1807
     56 H21         4.8648    0.8621    2.6010 H         1 <0>         0.1525
     57 H22         3.7503   -3.5590    3.7086 H         1 <0>         0.4130
     58 H23         2.6786   -5.5798    4.1747 H         1 <0>         0.3948
     59 H24         0.5022   -6.4147    2.0216 H         1 <0>         0.0532
     60 H25        -1.0573   -6.5493    2.8692 H         1 <0>         0.0646
     61 H26        -0.3882   -4.9450    2.4860 H         1 <0>         0.0802
     62 H27         1.4546   -7.3693    5.4914 H         1 <0>         0.0630
     63 H28         0.0188   -7.9650    4.6242 H         1 <0>         0.0775
     64 H29         1.5783   -7.8304    3.7766 H         1 <0>         0.0630
     65 H30        -0.5618   -4.2978    4.8930 H         1 <0>         0.0802
     66 H31        -1.2309   -5.9021    5.2761 H         1 <0>         0.0646
     67 H32         0.2049   -5.3063    6.1433 H         1 <0>         0.0532
     68 H33         7.7940   -3.4061    1.7423 H         1 <0>         0.1465
     69 H34         8.7278   -3.3874    4.0178 H         1 <0>         0.1484
     70 H35         7.5004   -2.3017    5.8521 H         1 <0>         0.1466
     71 N7         -4.3291    7.3675    0.1894 N.4       1 <0>        -0.3960
     72 H36        -3.8167    7.9330    0.8763 H         1 <0>         0.4282
@<TRIPOS>BOND
     1    1    2 1
     2    1   36 1
     3    1   37 1
     4    1   38 1
     5    2   39 1
     6    2   40 1
     7    2   71 1
     8    3    4 1
     9    3   41 1
    10    3   42 1
    11    3   71 1
    12    4   43 1
    13    4   44 1
    14    4   45 1
    15    5    6 1
    16    5   46 1
    17    5   47 1
    18    5   71 1
    19    6    7 1
    20    6   48 1
    21    6   49 1
    22    7    8 1
    23    7   50 1
    24    7   51 1
    25    8    9 1
    26    8   52 1
    27    8   53 1
    28    9   10 1
    29    9   54 1
    30   10   19 ar
    31   10   11 ar
    32   11   12 ar
    33   12   13 ar
    34   12   55 1
    35   13   18 ar
    36   13   14 ar
    37   14   15 ar
    38   14   56 1
    39   15   16 ar
    40   15   28 1
    41   16   17 ar
    42   16   20 1
    43   17   18 ar
    44   18   19 ar
    45   20   21 am
    46   20   57 1
    47   21   22 2
    48   21   23 am
    49   23   24 1
    50   23   58 1
    51   24   25 1
    52   24   26 1
    53   24   27 1
    54   25   59 1
    55   25   60 1
    56   25   61 1
    57   26   62 1
    58   26   63 1
    59   26   64 1
    60   27   65 1
    61   27   66 1
    62   27   67 1
    63   28   33 ar
    64   28   29 ar
    65   29   30 ar
    66   29   35 1
    67   30   31 ar
    68   30   68 1
    69   31   32 ar
    70   31   69 1
    71   32   33 ar
    72   32   70 1
    73   33   34 1
    74   71   72 1
@<TRIPOS>MOLECULE
ZINC01486219
   63    66     0     0     0
SMALL
USER_CHARGES
3-(2,6-dichlorophenyl)-8-[4-(2-diethylaminoethoxy)phenyl]amino-5-methyl-5,7,9-triazabicyclo[4.4.0]deca-2,7,9,11-tetraen-4-one
@<TRIPOS>ATOM
      1 C1          4.3966   -4.7837   -2.5468 C.3       1 <0>        -0.1870
      2 C2          2.8964   -4.6021   -2.7861 C.3       1 <0>        -0.0162
      3 C3          2.4461   -6.8910   -2.1372 C.3       1 <0>        -0.0118
      4 C4          1.8425   -7.2999   -3.4823 C.3       1 <0>        -0.1890
      5 C5          2.4154   -5.1324   -0.4731 C.3       1 <0>        -0.0017
      6 C6          1.8626   -3.7372   -0.1755 C.3       1 <0>         0.0258
      7 O1          0.4386   -3.7538   -0.2937 O.3       1 <0>        -0.3284
      8 C7         -0.2140   -2.5840   -0.0593 C.ar      1 <0>         0.0962
      9 C8         -1.5967   -2.5300   -0.1569 C.ar      1 <0>        -0.1190
     10 C9         -2.2601   -1.3423    0.0800 C.ar      1 <0>        -0.0693
     11 C10        -1.5427   -0.2019    0.4166 C.ar      1 <0>         0.1456
     12 C11        -0.1586   -0.2569    0.5145 C.ar      1 <0>        -0.1051
     13 C12         0.5033   -1.4453    0.2768 C.ar      1 <0>        -0.1797
     14 N1         -2.2146    1.0029    0.6565 N.pl3     1 <0>        -0.6299
     15 C13        -3.4618    0.9918    1.2505 C.ar      1 <0>         0.6044
     16 N2         -3.9572   -0.1650    1.6772 N.ar      1 <0>        -0.5742
     17 C14        -5.1437   -0.2299    2.2512 C.ar      1 <0>         0.2632
     18 C15        -5.8809    0.9543    2.4052 C.ar      1 <0>        -0.2686
     19 C16        -7.1573    0.9487    3.0126 C.2       1 <0>         0.0223
     20 C17        -7.8369    2.1304    3.1401 C.2       1 <0>        -0.1517
     21 C18        -7.2276    3.3671    2.6461 C.2       1 <0>         0.5544
     22 O2         -7.8250    4.4230    2.7559 O.2       1 <0>        -0.4939
     23 N3         -6.0096    3.3430    2.0714 N.am      1 <0>        -0.5055
     24 C19        -5.3213    2.1634    1.9394 C.ar      1 <0>         0.4667
     25 N4         -4.1173    2.1350    1.3785 N.ar      1 <0>        -0.5922
     26 C20        -5.4137    4.5888    1.5828 C.3       1 <0>         0.0688
     27 C21        -9.1768    2.1577    3.7717 C.ar      1 <0>        -0.0161
     28 C22       -10.3226    1.9980    2.9915 C.ar      1 <0>        -0.0058
     29 C23       -11.5685    2.0201    3.5872 C.ar      1 <0>        -0.1054
     30 C24       -11.6824    2.2097    4.9527 C.ar      1 <0>        -0.0846
     31 C25       -10.5507    2.3740    5.7310 C.ar      1 <0>        -0.1053
     32 C26        -9.2987    2.3491    5.1486 C.ar      1 <0>        -0.0060
     33 Cl1        -7.8797    2.5560    6.1271 Cl        1 <0>        -0.0505
     34 Cl2       -10.1822    1.7665    1.2768 Cl        1 <0>        -0.0510
     35 H1          4.9531   -4.1230   -3.2115 H         1 <0>         0.1068
     36 H2          4.6315   -4.5389   -1.5110 H         1 <0>         0.0793
     37 H3          4.6739   -5.8185   -2.7475 H         1 <0>         0.0822
     38 H4          2.6589   -4.8621   -3.8177 H         1 <0>         0.1316
     39 H5          2.6219   -3.5637   -2.6008 H         1 <0>         0.1265
     40 H6          3.5263   -7.0339   -2.1651 H         1 <0>         0.1326
     41 H7          2.0186   -7.5058   -1.3452 H         1 <0>         0.1298
     42 H8          2.0860   -8.3423   -3.6879 H         1 <0>         0.1065
     43 H9          0.7598   -7.1800   -3.4463 H         1 <0>         0.0812
     44 H10         2.2519   -6.6689   -4.2712 H         1 <0>         0.0791
     45 H11         3.4910   -5.1423   -0.2968 H         1 <0>         0.1506
     46 H12         1.9336   -5.8608    0.1791 H         1 <0>         0.1410
     47 H13         2.2779   -3.0226   -0.8861 H         1 <0>         0.0853
     48 H14         2.1397   -3.4450    0.8374 H         1 <0>         0.1080
     49 H15        -2.1544   -3.4170   -0.4187 H         1 <0>         0.1368
     50 H16        -3.3362   -1.2993   -0.0007 H         1 <0>         0.1474
     51 H17         0.4000    0.6295    0.7766 H         1 <0>         0.1342
     52 H18         1.5798   -1.4882    0.3529 H         1 <0>         0.1308
     53 H19        -1.8044    1.8453    0.4058 H         1 <0>         0.4284
     54 H20        -5.5388   -1.1742    2.5955 H         1 <0>         0.1893
     55 H21        -7.5900    0.0261    3.3703 H         1 <0>         0.1521
     56 H22        -5.7018    4.7463    0.5434 H         1 <0>         0.0759
     57 H23        -5.7679    5.4230    2.1883 H         1 <0>         0.0941
     58 H24        -4.3278    4.5242    1.6530 H         1 <0>         0.0949
     59 H25       -12.4560    1.8924    2.9851 H         1 <0>         0.1450
     60 H26       -12.6591    2.2300    5.4131 H         1 <0>         0.1471
     61 H27       -10.6465    2.5224    6.7965 H         1 <0>         0.1451
     62 N5          2.1179   -5.4728   -1.8803 N.4       1 <0>        -0.3969
     63 H28         1.1169   -5.3253   -2.0547 H         1 <0>         0.4358
@<TRIPOS>BOND
     1    1    2 1
     2    1   35 1
     3    1   36 1
     4    1   37 1
     5    2   38 1
     6    2   39 1
     7    2   62 1
     8    3    4 1
     9    3   40 1
    10    3   41 1
    11    3   62 1
    12    4   42 1
    13    4   43 1
    14    4   44 1
    15    5    6 1
    16    5   45 1
    17    5   46 1
    18    5   62 1
    19    6    7 1
    20    6   47 1
    21    6   48 1
    22    7    8 1
    23    8   13 ar
    24    8    9 ar
    25    9   10 ar
    26    9   49 1
    27   10   11 ar
    28   10   50 1
    29   11   12 ar
    30   11   14 1
    31   12   13 ar
    32   12   51 1
    33   13   52 1
    34   14   15 1
    35   14   53 1
    36   15   25 ar
    37   15   16 ar
    38   16   17 ar
    39   17   18 ar
    40   17   54 1
    41   18   24 ar
    42   18   19 1
    43   19   20 2
    44   19   55 1
    45   20   21 1
    46   20   27 1
    47   21   22 2
    48   21   23 am
    49   23   24 1
    50   23   26 1
    51   24   25 ar
    52   26   56 1
    53   26   57 1
    54   26   58 1
    55   27   32 ar
    56   27   28 ar
    57   28   29 ar
    58   28   34 1
    59   29   30 ar
    60   29   59 1
    61   30   31 ar
    62   30   60 1
    63   31   32 ar
    64   31   61 1
    65   32   33 1
    66   62   63 1
@<TRIPOS>MOLECULE
ZINC00015335
   33    34     0     0     0
SMALL
USER_CHARGES

@<TRIPOS>ATOM
      1 C1          0.0433    1.4332    0.0191 C.ar      1 <0>        -0.1305
      2 C2          1.2025    2.0145    0.4994 C.ar      1 <0>        -0.1015
      3 C3          2.3978    1.3252    0.4411 C.ar      1 <0>        -0.1420
      4 C4          2.4348    0.0466   -0.1003 C.ar      1 <0>         0.1382
      5 C5          1.2686   -0.5345   -0.5814 C.ar      1 <0>        -0.1176
      6 C6          0.0766    0.1604   -0.5205 C.ar      1 <0>        -0.1021
      7 N1          3.6435   -0.6539   -0.1613 N.am      1 <0>        -0.6674
      8 C7          3.6579   -1.9898    0.0167 C.2       1 <0>         0.5770
      9 O1          2.6117   -2.5987    0.1374 O.2       1 <0>        -0.5071
     10 C8          4.9387   -2.7115    0.0650 C.2       1 <0>        -0.1349
     11 C9          4.9535   -4.0774    0.2469 C.2       1 <0>         0.0853
     12 C10         6.2247   -4.7752    0.4503 C.ar      1 <0>        -0.1044
     13 C11         6.3704   -6.1069    0.0358 C.ar      1 <0>        -0.0663
     14 C12         7.5666   -6.7597    0.2286 C.ar      1 <0>        -0.1354
     15 C13         8.6315   -6.1031    0.8336 C.ar      1 <0>         0.1114
     16 C14         8.4951   -4.7782    1.2496 C.ar      1 <0>         0.0807
     17 C15         7.3024   -4.1124    1.0551 C.ar      1 <0>        -0.1026
     18 O2          9.5405   -4.1408    1.8416 O.3       1 <0>        -0.4834
     19 O3          9.8084   -6.7532    1.0211 O.3       1 <0>        -0.4848
     20 C16         6.1703   -1.9948   -0.0771 C.1       1 <0>         0.2433
     21 N2          7.1473   -1.4262   -0.1899 N.1       1 <0>        -0.3991
     22 H1         -0.8909    1.9727    0.0696 H         1 <0>         0.1247
     23 H2          1.1731    3.0087    0.9202 H         1 <0>         0.1275
     24 H3          3.3029    1.7800    0.8157 H         1 <0>         0.1250
     25 H4          1.2940   -1.5283   -1.0032 H         1 <0>         0.1410
     26 H5         -0.8306   -0.2909   -0.8944 H         1 <0>         0.1277
     27 H6          4.4716   -0.1783   -0.3316 H         1 <0>         0.4107
     28 H7          4.0275   -4.6331    0.2396 H         1 <0>         0.1720
     29 H8          5.5444   -6.6201   -0.4341 H         1 <0>         0.1455
     30 H9          7.6779   -7.7853   -0.0910 H         1 <0>         0.1445
     31 H10         7.1975   -3.0853    1.3720 H         1 <0>         0.1386
     32 H11        10.1218   -3.6794    1.2218 H         1 <0>         0.3915
     33 H12        10.4283   -6.6648    0.2842 H         1 <0>         0.3946
@<TRIPOS>BOND
     1    1    6 ar
     2    1    2 ar
     3    1   22 1
     4    2    3 ar
     5    2   23 1
     6    3    4 ar
     7    3   24 1
     8    4    5 ar
     9    4    7 1
    10    5    6 ar
    11    5   25 1
    12    6   26 1
    13    7    8 am
    14    7   27 1
    15    8    9 2
    16    8   10 1
    17   10   11 2
    18   10   20 1
    19   11   12 1
    20   11   28 1
    21   12   17 ar
    22   12   13 ar
    23   13   14 ar
    24   13   29 1
    25   14   15 ar
    26   14   30 1
    27   15   16 ar
    28   15   19 1
    29   16   17 ar
    30   16   18 1
    31   17   31 1
    32   18   32 1
    33   19   33 1
    34   20   21 3
@<TRIPOS>MOLECULE
ZINC01690194
   25    26     0     0     0
SMALL
USER_CHARGES

@<TRIPOS>ATOM
      1 C1          0.0486    1.3613   -0.4811 C.ar      1 <0>        -0.1256
      2 C2          1.2445    2.0640   -0.4675 C.ar      1 <0>        -0.0996
      3 C3          2.4457    1.4031   -0.3301 C.ar      1 <0>        -0.1164
      4 C4          2.4658    0.0177   -0.2034 C.ar      1 <0>         0.0761
      5 C5          1.2545   -0.6909   -0.2174 C.ar      1 <0>        -0.0687
      6 C6          0.0482   -0.0113   -0.3568 C.ar      1 <0>        -0.0786
      7 C7          1.6177   -2.1142   -0.0650 C.2       1 <0>        -0.2164
      8 C8          2.9960   -2.1511    0.0273 C.2       1 <0>         0.1301
      9 N1          3.4871   -0.8993   -0.0544 N.pl3     1 <0>        -0.5639
     10 H1          4.4295   -0.6731   -0.0143 H         1 <0>         0.4245
     11 C9          0.7341   -3.2158   -0.0219 C.2       1 <0>         0.1413
     12 C10         1.1688   -4.4325    0.4744 C.2       1 <0>        -0.1963
     13 C11         2.4609   -4.5373    1.0827 C.1       1 <0>         0.2615
     14 N2          3.4860   -4.6204    1.5652 N.1       1 <0>        -0.4320
     15 C12         0.3050   -5.6158    0.3773 C.2       1 <0>         0.5855
     16 O1         -0.7931   -5.5268   -0.1395 O.2       1 <0>        -0.5398
     17 N3          0.7283   -6.8006    0.8606 N.am      1 <0>        -0.8521
     18 H2         -0.8861    1.8923   -0.5850 H         1 <0>         0.1305
     19 H3          1.2340    3.1395   -0.5660 H         1 <0>         0.1312
     20 H4          3.3710    1.9600   -0.3212 H         1 <0>         0.1250
     21 H5         -0.8839   -0.5568   -0.3672 H         1 <0>         0.1314
     22 H6          3.5886   -3.0461    0.1466 H         1 <0>         0.1834
     23 H7         -0.2805   -3.1085   -0.3762 H         1 <0>         0.1612
     24 H8          1.6035   -6.8715    1.2726 H         1 <0>         0.3994
     25 H9          0.1576   -7.5823    0.7965 H         1 <0>         0.4083
@<TRIPOS>BOND
     1    1    6 ar
     2    1    2 ar
     3    1   18 1
     4    2    3 ar
     5    2   19 1
     6    3    4 ar
     7    3   20 1
     8    4    9 1
     9    4    5 ar
    10    5    6 ar
    11    5    7 1
    12    6   21 1
    13    7    8 2
    14    7   11 1
    15    8    9 1
    16    8   22 1
    17    9   10 1
    18   11   12 2
    19   11   23 1
    20   12   13 1
    21   12   15 1
    22   13   14 3
    23   15   16 2
    24   15   17 am
    25   17   24 1
    26   17   25 1
@<TRIPOS>MOLECULE
ZINC13281486
   23    24     0     0     0
SMALL
USER_CHARGES
2-(4-quinolylmethylene)propanedinitrile
@<TRIPOS>ATOM
      1 C1         -5.1438    3.8780   -0.2521 C.ar      1 <0>        -0.0983
      2 C2         -6.2744    3.0693   -0.3401 C.ar      1 <0>        -0.1030
      3 C3         -6.1684    1.7122   -0.3544 C.ar      1 <0>        -0.0826
      4 C4         -4.9001    1.1111   -0.2616 C.ar      1 <0>         0.1222
      5 C5         -3.7545    1.9392   -0.1669 C.ar      1 <0>        -0.0726
      6 C6         -3.8978    3.3295   -0.1663 C.ar      1 <0>        -0.1081
      7 C7         -2.4380    1.3017   -0.0763 C.ar      1 <0>        -0.0459
      8 C8         -2.4059   -0.0954   -0.0790 C.ar      1 <0>        -0.1332
      9 C9         -3.5964   -0.8048   -0.1709 C.ar      1 <0>         0.1348
     10 N1         -4.7637   -0.2172   -0.2562 N.ar      1 <0>        -0.4560
     11 C10        -1.2094    2.0946    0.0192 C.2       1 <0>         0.0516
     12 C11        -0.1426    1.6185    0.7270 C.2       1 <0>         0.0246
     13 C12        -0.2706    0.4148    1.4920 C.1       1 <0>         0.2450
     14 N2         -0.3722   -0.5402    2.0989 N.1       1 <0>        -0.3763
     15 C13         1.1055    2.3200    0.6994 C.1       1 <0>         0.2506
     16 N3          2.0956    2.8765    0.6775 N.1       1 <0>        -0.3755
     17 H1         -5.2549    4.9523   -0.2520 H         1 <0>         0.1337
     18 H2         -7.2505    3.5266   -0.4070 H         1 <0>         0.1348
     19 H3         -7.0553    1.0997   -0.4232 H         1 <0>         0.1403
     20 H4         -3.0276    3.9656   -0.0981 H         1 <0>         0.1345
     21 H5         -1.4637   -0.6189   -0.0107 H         1 <0>         0.1437
     22 H6         -3.5580   -1.8841   -0.1723 H         1 <0>         0.1661
     23 H7         -1.1474    3.0554   -0.4702 H         1 <0>         0.1695
@<TRIPOS>BOND
     1    1    6 ar
     2    1    2 ar
     3    1   17 1
     4    2    3 ar
     5    2   18 1
     6    3    4 ar
     7    3   19 1
     8    4   10 ar
     9    4    5 ar
    10    5    6 ar
    11    5    7 ar
    12    6   20 1
    13    7    8 ar
    14    7   11 1
    15    8    9 ar
    16    8   21 1
    17    9   10 ar
    18    9   22 1
    19   11   12 2
    20   11   23 1
    21   12   13 1
    22   12   15 1
    23   13   14 3
    24   15   16 3
@<TRIPOS>MOLECULE
ZINC03056377
   25    26     0     0     0
SMALL
USER_CHARGES
(E)-2-cyano-3-(1H-indol-3-yl)prop-2-enethioamide
@<TRIPOS>ATOM
      1 C1         -3.0277    3.6901    0.5384 C.ar      1 <0>        -0.1232
      2 C2         -3.4023    2.3547    0.5144 C.ar      1 <0>        -0.0978
      3 C3         -2.4592    1.3640    0.3485 C.ar      1 <0>        -0.1161
      4 C4         -1.1172    1.7002    0.1989 C.ar      1 <0>         0.0764
      5 C5         -0.7402    3.0516    0.2281 C.ar      1 <0>        -0.0659
      6 C6         -1.7031    4.0426    0.3960 C.ar      1 <0>        -0.0768
      7 C7          0.7257    3.0681    0.0513 C.2       1 <0>        -0.2192
      8 C8          1.1148    1.7476   -0.0640 C.2       1 <0>         0.1410
      9 N1          0.0272    0.9475    0.0265 N.pl3     1 <0>        -0.5630
     10 H1          0.0483   -0.0208   -0.0266 H         1 <0>         0.4259
     11 C9          1.5628    4.2064    0.0093 C.2       1 <0>         0.1745
     12 C10         2.8421    4.1057   -0.5087 C.2       1 <0>        -0.1815
     13 C11         3.2657    2.8919   -1.1395 C.1       1 <0>         0.2576
     14 N2          3.6017    1.9291   -1.6400 N.1       1 <0>        -0.4235
     15 C12         3.7642    5.2423   -0.4116 C.2       1 <0>         0.4209
     16 S1          3.2577    6.6934    0.3426 S.2       1 <0>        -0.5723
     17 N3          5.0101    5.1443   -0.9161 N.pl3     1 <0>        -0.7700
     18 H2         -3.7772    4.4566    0.6689 H         1 <0>         0.1320
     19 H3         -4.4431    2.0890    0.6265 H         1 <0>         0.1321
     20 H4         -2.7617    0.3274    0.3305 H         1 <0>         0.1257
     21 H5         -1.4135    5.0829    0.4143 H         1 <0>         0.1347
     22 H6          2.1299    1.4066   -0.2047 H         1 <0>         0.1840
     23 H7          1.2039    5.1546    0.3815 H         1 <0>         0.1787
     24 H8          5.2971    4.3222   -1.3434 H         1 <0>         0.3998
     25 H9          5.6199    5.8960   -0.8518 H         1 <0>         0.4259
@<TRIPOS>BOND
     1    1    6 ar
     2    1    2 ar
     3    1   18 1
     4    2    3 ar
     5    2   19 1
     6    3    4 ar
     7    3   20 1
     8    4    9 1
     9    4    5 ar
    10    5    6 ar
    11    5    7 1
    12    6   21 1
    13    7    8 2
    14    7   11 1
    15    8    9 1
    16    8   22 1
    17    9   10 1
    18   11   12 2
    19   11   23 1
    20   12   13 1
    21   12   15 1
    22   13   14 3
    23   15   16 2
    24   15   17 1
    25   17   24 1
    26   17   25 1
@<TRIPOS>MOLECULE
ZINC02581408
   34    36     0     0     0
SMALL
USER_CHARGES

@<TRIPOS>ATOM
      1 C1         -0.0173    1.4248    0.0099 C.3       1 <0>         0.0231
      2 O1          0.0021   -0.0041    0.0020 O.3       1 <0>        -0.3098
      3 C2         -1.1995   -0.6370    0.0101 C.ar      1 <0>         0.1987
      4 C3         -2.3594    0.1067    0.0194 C.ar      1 <0>        -0.2430
      5 C4         -3.6035   -0.5422    0.0273 C.ar      1 <0>         0.2040
      6 C5         -3.6426   -1.9600    0.0255 C.ar      1 <0>        -0.1509
      7 C6         -4.8865   -2.6090    0.0335 C.ar      1 <0>         0.0002
      8 C7         -6.0321   -1.8243    0.0428 C.ar      1 <0>        -0.1405
      9 C8         -5.9125   -0.4262    0.0440 C.ar      1 <0>         0.1721
     10 N1         -4.7424    0.1610    0.0369 N.ar      1 <0>        -0.4826
     11 C9         -7.3721   -2.4593    0.0509 C.ar      1 <0>         0.0117
     12 C10        -7.5075   -3.8508    0.0552 C.ar      1 <0>        -0.1700
     13 C11        -8.7729   -4.4000    0.0627 C.ar      1 <0>         0.1070
     14 N2         -9.8450   -3.6310    0.0654 N.ar      1 <0>        -0.4881
     15 C12        -9.7612   -2.3142    0.0615 C.ar      1 <0>         0.1068
     16 C13        -8.5347   -1.6827    0.0603 C.ar      1 <0>        -0.1694
     17 C14        -2.4379   -2.6937    0.0163 C.ar      1 <0>         0.1984
     18 C15        -1.2428   -2.0327    0.0030 C.ar      1 <0>        -0.2459
     19 O2         -2.4663   -4.0508    0.0150 O.3       1 <0>        -0.3057
     20 C16        -1.2069   -4.7261    0.0055 C.3       1 <0>         0.0219
     21 H1          1.0053    1.8021    0.0021 H         1 <0>         0.1053
     22 H2         -0.5445    1.7859   -0.8732 H         1 <0>         0.0619
     23 H3         -0.5275    1.7763    0.9067 H         1 <0>         0.0619
     24 H4         -2.3111    1.1856    0.0210 H         1 <0>         0.1453
     25 H5         -4.9511   -3.6871    0.0320 H         1 <0>         0.1483
     26 H6         -6.8066    0.1795    0.0512 H         1 <0>         0.1648
     27 H7         -6.6343   -4.4864    0.0523 H         1 <0>         0.1368
     28 H8         -8.8876   -5.4739    0.0660 H         1 <0>         0.1588
     29 H9        -10.6649   -1.7229    0.0636 H         1 <0>         0.1596
     30 H10        -8.4735   -0.6044    0.0622 H         1 <0>         0.1390
     31 H11        -0.3212   -2.5957   -0.0085 H         1 <0>         0.1457
     32 H12        -0.6501   -4.4439   -0.8881 H         1 <0>         0.0632
     33 H13        -0.6377   -4.4459    0.8919 H         1 <0>         0.0633
     34 H14        -1.3723   -5.8034    0.0054 H         1 <0>         0.1081
@<TRIPOS>BOND
     1    1    2 1
     2    1   21 1
     3    1   22 1
     4    1   23 1
     5    2    3 1
     6    3   18 ar
     7    3    4 ar
     8    4    5 ar
     9    4   24 1
    10    5   10 ar
    11    5    6 ar
    12    6    7 ar
    13    6   17 ar
    14    7    8 ar
    15    7   25 1
    16    8    9 ar
    17    8   11 1
    18    9   10 ar
    19    9   26 1
    20   11   16 ar
    21   11   12 ar
    22   12   13 ar
    23   12   27 1
    24   13   14 ar
    25   13   28 1
    26   14   15 ar
    27   15   16 ar
    28   15   29 1
    29   16   30 1
    30   17   18 ar
    31   17   19 1
    32   18   31 1
    33   19   20 1
    34   20   32 1
    35   20   33 1
    36   20   34 1
@<TRIPOS>MOLECULE
ZINC03927328
   35    37     0     0     0
SMALL
USER_CHARGES

@<TRIPOS>ATOM
      1 C1          0.3902    1.2513    1.1637 C.ar      1 <0>        -0.1240
      2 C2          1.4918    1.9897    0.7571 C.ar      1 <0>        -0.0998
      3 C3          2.5237    1.3900    0.0685 C.ar      1 <0>        -0.1149
      4 C4          2.4662    0.0310   -0.2243 C.ar      1 <0>         0.0751
      5 C5          1.3509   -0.7138    0.1885 C.ar      1 <0>        -0.0676
      6 C6          0.3152   -0.0960    0.8829 C.ar      1 <0>        -0.0797
      7 C7          1.5960   -2.0960   -0.2705 C.2       1 <0>        -0.2206
      8 C8          2.8203   -2.0754   -0.9136 C.2       1 <0>         0.1381
      9 N1          3.3243   -0.8271   -0.8830 N.pl3     1 <0>        -0.5617
     10 H1          4.1743   -0.5662   -1.2707 H         1 <0>         0.4254
     11 C9          0.7516   -3.2127   -0.0889 C.2       1 <0>         0.1442
     12 C10         1.2524   -4.4943   -0.2546 C.2       1 <0>        -0.2141
     13 C11         2.6588   -4.6959   -0.4339 C.1       1 <0>         0.2682
     14 N2          3.7744   -4.8558   -0.5761 N.1       1 <0>        -0.4310
     15 C12         0.3418   -5.6443   -0.2463 C.2       1 <0>         0.4604
     16 O1         -0.8626   -5.4670   -0.2283 O.2       1 <0>        -0.4477
     17 C13         0.8858   -7.0168   -0.2599 C.ar      1 <0>        -0.1510
     18 C14         2.1213   -7.2863    0.3347 C.ar      1 <0>        -0.0709
     19 C15         2.6276   -8.5676    0.3212 C.ar      1 <0>        -0.1363
     20 C16         1.9128   -9.5936   -0.2824 C.ar      1 <0>         0.1107
     21 C17         0.6793   -9.3318   -0.8772 C.ar      1 <0>         0.0728
     22 C18         0.1636   -8.0505   -0.8625 C.ar      1 <0>        -0.0736
     23 O2         -0.0184  -10.3389   -1.4675 O.3       1 <0>        -0.4838
     24 O3          2.4165  -10.8547   -0.2939 O.3       1 <0>        -0.4858
     25 H2         -0.4097    1.7330    1.7063 H         1 <0>         0.1308
     26 H3          1.5410    3.0448    0.9821 H         1 <0>         0.1317
     27 H4          3.3765    1.9744   -0.2440 H         1 <0>         0.1255
     28 H5         -0.5430   -0.6695    1.2005 H         1 <0>         0.1310
     29 H6          3.2985   -2.9294   -1.3702 H         1 <0>         0.1850
     30 H7         -0.2845   -3.0682    0.1792 H         1 <0>         0.1596
     31 H8          2.6796   -6.4900    0.8046 H         1 <0>         0.1341
     32 H9          3.5828   -8.7744    0.7809 H         1 <0>         0.1404
     33 H10        -0.7935   -7.8470   -1.3195 H         1 <0>         0.1459
     34 H11        -0.6255  -10.7987   -0.8717 H         1 <0>         0.3903
     35 H12         2.1572  -11.3888    0.4695 H         1 <0>         0.3933
@<TRIPOS>BOND
     1    1    6 ar
     2    1    2 ar
     3    1   25 1
     4    2    3 ar
     5    2   26 1
     6    3    4 ar
     7    3   27 1
     8    4    9 1
     9    4    5 ar
    10    5    6 ar
    11    5    7 1
    12    6   28 1
    13    7    8 2
    14    7   11 1
    15    8    9 1
    16    8   29 1
    17    9   10 1
    18   11   12 2
    19   11   30 1
    20   12   13 1
    21   12   15 1
    22   13   14 3
    23   15   16 2
    24   15   17 1
    25   17   22 ar
    26   17   18 ar
    27   18   19 ar
    28   18   31 1
    29   19   20 ar
    30   19   32 1
    31   20   21 ar
    32   20   24 1
    33   21   22 ar
    34   21   23 1
    35   22   33 1
    36   23   34 1
    37   24   35 1
@<TRIPOS>MOLECULE
ZINC03927328
   34    36     0     0     0
SMALL
USER_CHARGES

@<TRIPOS>ATOM
      1 C1          0.3902    1.2513    1.1637 C.ar      1 <0>        -0.1338
      2 C2          1.4918    1.9897    0.7571 C.ar      1 <0>        -0.1039
      3 C3          2.5237    1.3900    0.0685 C.ar      1 <0>        -0.1205
      4 C4          2.4662    0.0310   -0.2243 C.ar      1 <0>         0.0784
      5 C5          1.3509   -0.7138    0.1885 C.ar      1 <0>        -0.0712
      6 C6          0.3152   -0.0960    0.8829 C.ar      1 <0>        -0.0751
      7 C7          1.5960   -2.0960   -0.2705 C.2       1 <0>        -0.1995
      8 C8          2.8203   -2.0754   -0.9136 C.2       1 <0>         0.1165
      9 N1          3.3243   -0.8271   -0.8830 N.pl3     1 <0>        -0.5690
     10 H1          4.1743   -0.5662   -1.2707 H         1 <0>         0.4215
     11 C9          0.7516   -3.2127   -0.0889 C.2       1 <0>         0.0952
     12 C10         1.2524   -4.4943   -0.2546 C.2       1 <0>        -0.1694
     13 C11         2.6588   -4.6959   -0.4339 C.1       1 <0>         0.2760
     14 N2          3.7744   -4.8558   -0.5761 N.1       1 <0>        -0.4373
     15 C12         0.3418   -5.6443   -0.2463 C.2       1 <0>         0.4639
     16 O1         -0.8626   -5.4670   -0.2283 O.2       1 <0>        -0.4873
     17 C13         0.8858   -7.0168   -0.2599 C.ar      1 <0>        -0.3023
     18 C14         2.1213   -7.2863    0.3347 C.ar      1 <0>        -0.0291
     19 C15         2.6276   -8.5676    0.3212 C.ar      1 <0>        -0.2640
     20 C16         1.9128   -9.5936   -0.2824 C.ar      1 <0>         0.2794
     21 C17         0.6793   -9.3318   -0.8772 C.ar      1 <0>        -0.0652
     22 C18         0.1636   -8.0505   -0.8625 C.ar      1 <0>        -0.0313
     23 O2         -0.0184  -10.3389   -1.4675 O.3       1 <0>        -0.4892
     24 O3          2.4165  -10.8547   -0.2939 O.3       1 <0>        -0.6965
     25 H2         -0.4097    1.7330    1.7063 H         1 <0>         0.1267
     26 H3          1.5410    3.0448    0.9821 H         1 <0>         0.1269
     27 H4          3.3765    1.9744   -0.2440 H         1 <0>         0.1215
     28 H5         -0.5430   -0.6695    1.2005 H         1 <0>         0.1299
     29 H6          3.2985   -2.9294   -1.3702 H         1 <0>         0.1850
     30 H7         -0.2845   -3.0682    0.1792 H         1 <0>         0.1550
     31 H8          2.6796   -6.4900    0.8046 H         1 <0>         0.0982
     32 H9          3.5828   -8.7744    0.7809 H         1 <0>         0.1035
     33 H10        -0.7935   -7.8470   -1.3195 H         1 <0>         0.1100
     34 H11        -0.6255  -10.7987   -0.8717 H         1 <0>         0.3570
@<TRIPOS>BOND
     1    1    6 ar
     2    1    2 ar
     3    1   25 1
     4    2    3 ar
     5    2   26 1
     6    3    4 ar
     7    3   27 1
     8    4    9 1
     9    4    5 ar
    10    5    6 ar
    11    5    7 1
    12    6   28 1
    13    7    8 2
    14    7   11 1
    15    8    9 1
    16    8   29 1
    17    9   10 1
    18   11   12 2
    19   11   30 1
    20   12   13 1
    21   12   15 1
    22   13   14 3
    23   15   16 2
    24   15   17 1
    25   17   22 ar
    26   17   18 ar
    27   18   19 ar
    28   18   31 1
    29   19   20 ar
    30   19   32 1
    31   20   21 ar
    32   20   24 1
    33   21   22 ar
    34   21   23 1
    35   22   33 1
    36   23   34 1
@<TRIPOS>MOLECULE
ZINC00007037
   32    35     0     0     0
SMALL
USER_CHARGES
phenylBLAH
@<TRIPOS>ATOM
      1 C1          1.1335   -4.9697   -0.0343 C.ar      1 <0>        -0.1015
      2 C2         -0.0490   -4.2572   -0.1234 C.ar      1 <0>        -0.1221
      3 C3         -0.0285   -2.8775   -0.1173 C.ar      1 <0>        -0.0950
      4 C4          1.1873   -2.2015   -0.0206 C.ar      1 <0>        -0.0576
      5 C5          2.3762   -2.9251    0.0636 C.ar      1 <0>        -0.0741
      6 C6          2.3427   -4.3046    0.0623 C.ar      1 <0>        -0.1251
      7 C7          1.2161   -0.7197   -0.0134 C.ar      1 <0>         0.1558
      8 C8          0.0021   -0.0041    0.0020 C.ar      1 <0>         0.0967
      9 N1         -0.0157    1.3043    0.0092 N.ar      1 <0>        -0.4183
     10 C9          1.1418    1.9876    0.0018 C.ar      1 <0>         0.0568
     11 C10         1.1460    3.3809    0.0088 C.ar      1 <0>        -0.0540
     12 C11         2.3592    4.0671    0.0004 C.ar      1 <0>        -0.0403
     13 C12         2.3985    5.4778    0.0066 C.ar      1 <0>        -0.1033
     14 C13         3.5975    6.1146   -0.0024 C.ar      1 <0>        -0.1070
     15 C14         4.8020    5.4105   -0.0172 C.ar      1 <0>        -0.1052
     16 C15         4.8355    4.0534   -0.0243 C.ar      1 <0>        -0.1051
     17 C16         3.6253    3.3268   -0.0156 C.ar      1 <0>        -0.0358
     18 C17         3.6219    1.9335   -0.0226 C.ar      1 <0>        -0.0600
     19 C18         2.4077    1.2467   -0.0142 C.ar      1 <0>         0.0751
     20 N2          2.3774   -0.0945   -0.0211 N.ar      1 <0>        -0.4229
     21 H1          1.1125   -6.0495   -0.0399 H         1 <0>         0.1265
     22 H2         -0.9900   -4.7819   -0.1983 H         1 <0>         0.1298
     23 H3         -0.9522   -2.3223   -0.1868 H         1 <0>         0.1298
     24 H4          3.3212   -2.4069    0.1342 H         1 <0>         0.1347
     25 H5          3.2626   -4.8661    0.1319 H         1 <0>         0.1280
     26 H6         -0.9320   -0.5462    0.0076 H         1 <0>         0.1756
     27 H7          0.2140    3.9264    0.0207 H         1 <0>         0.1466
     28 H8          1.4808    6.0471    0.0188 H         1 <0>         0.1348
     29 H9          3.6195    7.1943    0.0024 H         1 <0>         0.1281
     30 H10         5.7320    5.9595   -0.0232 H         1 <0>         0.1281
     31 H11         5.7819    3.5330   -0.0365 H         1 <0>         0.1347
     32 H12         4.5541    1.3882   -0.0340 H         1 <0>         0.1463
@<TRIPOS>BOND
     1    1    6 ar
     2    1    2 ar
     3    1   21 1
     4    2    3 ar
     5    2   22 1
     6    3    4 ar
     7    3   23 1
     8    4    5 ar
     9    4    7 1
    10    5    6 ar
    11    5   24 1
    12    6   25 1
    13    7   20 ar
    14    7    8 ar
    15    8    9 ar
    16    8   26 1
    17    9   10 ar
    18   10   19 ar
    19   10   11 ar
    20   11   12 ar
    21   11   27 1
    22   12   17 ar
    23   12   13 ar
    24   13   14 ar
    25   13   28 1
    26   14   15 ar
    27   14   29 1
    28   15   16 ar
    29   15   30 1
    30   16   17 ar
    31   16   31 1
    32   17   18 ar
    33   18   19 ar
    34   18   32 1
    35   19   20 ar
@<TRIPOS>MOLECULE
ZINC00055213
   26    28     0     0     0
SMALL
USER_CHARGES
2-phenylquinoxaline
@<TRIPOS>ATOM
      1 C1          4.8911   -0.3191   -0.0449 C.ar      1 <0>        -0.1015
      2 C2          4.8880    1.0643   -0.0384 C.ar      1 <0>        -0.1249
      3 C3          3.6930    1.7542   -0.0238 C.ar      1 <0>        -0.0747
      4 C4          2.4873    1.0544   -0.0160 C.ar      1 <0>        -0.0570
      5 C5          2.4967   -0.3397   -0.0178 C.ar      1 <0>        -0.0952
      6 C6          3.6978   -1.0188   -0.0378 C.ar      1 <0>        -0.1219
      7 C7          1.2001    1.7899    0.0002 C.ar      1 <0>         0.1485
      8 C8         -0.0126    1.0758    0.0080 C.ar      1 <0>         0.0878
      9 N1         -1.1603    1.7102    0.0169 N.ar      1 <0>        -0.4194
     10 C9         -1.1818    3.0488    0.0297 C.ar      1 <0>         0.0704
     11 C10        -2.3982    3.7522    0.0446 C.ar      1 <0>        -0.0811
     12 C11        -2.3913    5.1133    0.0509 C.ar      1 <0>        -0.0992
     13 C12        -1.1927    5.8247    0.0429 C.ar      1 <0>        -0.0949
     14 C13         0.0046    5.1783    0.0284 C.ar      1 <0>        -0.0856
     15 C14         0.0379    3.7722    0.0215 C.ar      1 <0>         0.0886
     16 N2          1.1995    3.1115    0.0069 N.ar      1 <0>        -0.4236
     17 H1          5.8288   -0.8548   -0.0560 H         1 <0>         0.1268
     18 H2          5.8227    1.6053   -0.0444 H         1 <0>         0.1283
     19 H3          3.6918    2.8342   -0.0187 H         1 <0>         0.1348
     20 H4          1.5657   -0.8870   -0.0073 H         1 <0>         0.1295
     21 H5          3.7063   -2.0988   -0.0436 H         1 <0>         0.1299
     22 H6          0.0021   -0.0041    0.0020 H         1 <0>         0.1765
     23 H7         -3.3350    3.2148    0.0514 H         1 <0>         0.1411
     24 H8         -3.3285    5.6500    0.0628 H         1 <0>         0.1379
     25 H9         -1.2146    6.9044    0.0478 H         1 <0>         0.1380
     26 H10         0.9255    5.7425    0.0220 H         1 <0>         0.1409
@<TRIPOS>BOND
     1    1    6 ar
     2    1    2 ar
     3    1   17 1
     4    2    3 ar
     5    2   18 1
     6    3    4 ar
     7    3   19 1
     8    4    5 ar
     9    4    7 1
    10    5    6 ar
    11    5   20 1
    12    6   21 1
    13    7   16 ar
    14    7    8 ar
    15    8    9 ar
    16    8   22 1
    17    9   10 ar
    18   10   15 ar
    19   10   11 ar
    20   11   12 ar
    21   11   23 1
    22   12   13 ar
    23   12   24 1
    24   13   14 ar
    25   13   25 1
    26   14   15 ar
    27   14   26 1
    28   15   16 ar
@<TRIPOS>MOLECULE
ZINC05612175
   33    35     0     0     0
SMALL
USER_CHARGES
6,7-dimethyl-3-phenyl-1H-quinoxalin-2-one
@<TRIPOS>ATOM
      1 C1         -1.2979   -0.7645    0.1368 C.3       1 <0>        -0.1262
      2 C2          0.0003    0.0006    0.1235 C.ar      1 <0>        -0.0221
      3 C3         -0.0167    1.3743    0.0107 C.ar      1 <0>        -0.1585
      4 C4          1.1802    2.0831   -0.0018 C.ar      1 <0>         0.1465
      5 C5          2.4014    1.3895    0.1011 C.ar      1 <0>         0.0280
      6 C6          2.3904   -0.0097    0.2155 C.ar      1 <0>        -0.0322
      7 C7          1.2041   -0.6836    0.2255 C.ar      1 <0>        -0.1078
      8 C8          1.2004   -2.1856    0.3481 C.3       1 <0>        -0.1174
      9 N1          3.5710    2.0544    0.0916 N.2       1 <0>        -0.3965
     10 C9          3.6043    3.3610   -0.0152 C.2       1 <0>         0.1526
     11 C10         2.3479    4.1249   -0.1252 C.2       1 <0>         0.5060
     12 O1          2.3701    5.3378   -0.2243 O.2       1 <0>        -0.5041
     13 N2          1.1719    3.4602   -0.1151 N.am      1 <0>        -0.6195
     14 H1          0.3335    3.9427   -0.1866 H         1 <0>         0.4212
     15 C11         4.9036    4.0693   -0.0237 C.ar      1 <0>        -0.0516
     16 C12         5.0410    5.2728   -0.7167 C.ar      1 <0>        -0.0745
     17 C13         6.2534    5.9312   -0.7160 C.ar      1 <0>        -0.1274
     18 C14         7.3348    5.3948   -0.0397 C.ar      1 <0>        -0.0993
     19 C15         7.2067    4.1991    0.6446 C.ar      1 <0>        -0.1299
     20 C16         5.9982    3.5337    0.6564 C.ar      1 <0>        -0.0724
     21 H2         -1.5721   -1.0326   -0.8835 H         1 <0>         0.0812
     22 H3         -1.1797   -1.6705    0.7312 H         1 <0>         0.0799
     23 H4         -2.0810   -0.1438    0.5723 H         1 <0>         0.0722
     24 H5         -0.9571    1.8988   -0.0723 H         1 <0>         0.1377
     25 H6          3.3207   -0.5524    0.2958 H         1 <0>         0.1447
     26 H7          1.2387   -2.6313   -0.6459 H         1 <0>         0.0749
     27 H8          2.0692   -2.5054    0.9234 H         1 <0>         0.0706
     28 H9          0.2906   -2.5065    0.8554 H         1 <0>         0.0744
     29 H10         4.1989    5.6902   -1.2487 H         1 <0>         0.1370
     30 H11         6.3600    6.8647   -1.2485 H         1 <0>         0.1281
     31 H12         8.2829    5.9120   -0.0456 H         1 <0>         0.1257
     32 H13         8.0545    3.7858    1.1708 H         1 <0>         0.1281
     33 H14         5.8994    2.6006    1.1912 H         1 <0>         0.1309
@<TRIPOS>BOND
     1    1    2 1
     2    1   21 1
     3    1   22 1
     4    1   23 1
     5    2    7 ar
     6    2    3 ar
     7    3    4 ar
     8    3   24 1
     9    4   13 1
    10    4    5 ar
    11    5    6 ar
    12    5    9 1
    13    6    7 ar
    14    6   25 1
    15    7    8 1
    16    8   26 1
    17    8   27 1
    18    8   28 1
    19    9   10 2
    20   10   11 1
    21   10   15 1
    22   11   12 2
    23   11   13 am
    24   13   14 1
    25   15   20 ar
    26   15   16 ar
    27   16   17 ar
    28   16   29 1
    29   17   18 ar
    30   17   30 1
    31   18   19 ar
    32   18   31 1
    33   19   20 ar
    34   19   32 1
    35   20   33 1
@<TRIPOS>MOLECULE
ZINC00008082
   34    36     0     0     0
SMALL
USER_CHARGES

@<TRIPOS>ATOM
      1 C1         -0.0173    1.4248    0.0099 C.3       1 <0>         0.0202
      2 O1          0.0021   -0.0041    0.0020 O.3       1 <0>        -0.2974
      3 C2         -1.2001   -0.6374    0.0101 C.ar      1 <0>         0.1422
      4 C3         -2.3493    0.0982    0.0194 C.ar      1 <0>        -0.1620
      5 C4         -3.5942   -0.5523    0.0278 C.ar      1 <0>         0.0865
      6 C5         -3.6397   -1.9712    0.0264 C.ar      1 <0>         0.1037
      7 C6         -2.4383   -2.7012    0.0167 C.ar      1 <0>        -0.1662
      8 C7         -1.2448   -2.0408    0.0030 C.ar      1 <0>         0.1459
      9 O2         -0.0855   -2.7494   -0.0123 O.3       1 <0>        -0.2972
     10 C8         -0.1960   -4.1741   -0.0189 C.3       1 <0>         0.0203
     11 N1         -4.8215   -2.5949    0.0339 N.ar      1 <0>        -0.4223
     12 C9         -5.9367   -1.8844    0.0425 C.ar      1 <0>         0.1433
     13 C10        -5.8871   -0.4795    0.0433 C.ar      1 <0>         0.0839
     14 N2         -4.7349    0.1481    0.0365 N.ar      1 <0>        -0.4191
     15 C11        -7.2489   -2.5745    0.0507 C.ar      1 <0>        -0.0541
     16 C12        -7.3085   -3.9630    0.1604 C.ar      1 <0>        -0.0759
     17 C13        -8.5328   -4.5999    0.1681 C.ar      1 <0>        -0.1248
     18 C14        -9.6993   -3.8632    0.0667 C.ar      1 <0>        -0.1029
     19 C15        -9.6462   -2.4852   -0.0423 C.ar      1 <0>        -0.1216
     20 C16        -8.4280   -1.8370   -0.0453 C.ar      1 <0>        -0.0961
     21 H1          1.0053    1.8021    0.0021 H         1 <0>         0.1078
     22 H2         -0.5445    1.7859   -0.8732 H         1 <0>         0.0613
     23 H3         -0.5275    1.7763    0.9067 H         1 <0>         0.0613
     24 H4         -2.3019    1.1771    0.0207 H         1 <0>         0.1554
     25 H5         -2.4603   -3.7810    0.0160 H         1 <0>         0.1552
     26 H6         -0.7275   -4.5014    0.8746 H         1 <0>         0.0612
     27 H7         -0.7452   -4.4918   -0.9052 H         1 <0>         0.0612
     28 H8          0.8005   -4.6157   -0.0312 H         1 <0>         0.1078
     29 H9         -6.8058    0.0884    0.0497 H         1 <0>         0.1758
     30 H10        -6.3984   -4.5392    0.2389 H         1 <0>         0.1342
     31 H11        -8.5803   -5.6755    0.2530 H         1 <0>         0.1276
     32 H12       -10.6551   -4.3659    0.0724 H         1 <0>         0.1262
     33 H13       -10.5602   -1.9152   -0.1215 H         1 <0>         0.1294
     34 H14        -8.3879   -0.7608   -0.1263 H         1 <0>         0.1293
@<TRIPOS>BOND
     1    1    2 1
     2    1   21 1
     3    1   22 1
     4    1   23 1
     5    2    3 1
     6    3    8 ar
     7    3    4 ar
     8    4    5 ar
     9    4   24 1
    10    5   14 ar
    11    5    6 ar
    12    6    7 ar
    13    6   11 ar
    14    7    8 ar
    15    7   25 1
    16    8    9 1
    17    9   10 1
    18   10   26 1
    19   10   27 1
    20   10   28 1
    21   11   12 ar
    22   12   13 ar
    23   12   15 1
    24   13   14 ar
    25   13   29 1
    26   15   20 ar
    27   15   16 ar
    28   16   17 ar
    29   16   30 1
    30   17   18 ar
    31   17   31 1
    32   18   19 ar
    33   18   32 1
    34   19   20 ar
    35   19   33 1
    36   20   34 1
@<TRIPOS>MOLECULE
ZINC00007489
   29    31     0     0     0
SMALL
USER_CHARGES
5-methoxy-1-phenyl-benzoimidazole
@<TRIPOS>ATOM
      1 C1          5.9692    3.4062   -0.0362 C.3       1 <0>         0.0268
      2 O1          5.4230    2.0857   -0.0380 O.3       1 <0>        -0.3147
      3 C2          4.0676    1.9783   -0.0261 C.ar      1 <0>         0.1222
      4 C3          3.2826    3.1280   -0.0125 C.ar      1 <0>        -0.1781
      5 C4          1.9079    3.0336    0.0001 C.ar      1 <0>        -0.0667
      6 C5          1.3000    1.7860   -0.0008 C.ar      1 <0>         0.0174
      7 C6          2.0852    0.6211   -0.0145 C.ar      1 <0>         0.0877
      8 C7          3.4784    0.7299   -0.0272 C.ar      1 <0>        -0.1058
      9 N1          1.2301   -0.4340   -0.0120 N.2       1 <0>        -0.4902
     10 C8          0.0021   -0.0041    0.0020 C.2       1 <0>         0.2769
     11 N2         -0.0164    1.3581    0.0095 N.pl3     1 <0>        -0.4467
     12 C9         -1.1555    2.1739    0.0196 C.ar      1 <0>         0.1243
     13 C10        -1.2691    3.1986    0.9496 C.ar      1 <0>        -0.1181
     14 C11        -2.3904    4.0050    0.9530 C.ar      1 <0>        -0.1002
     15 C12        -3.4047    3.7851    0.0392 C.ar      1 <0>        -0.1145
     16 C13        -3.2972    2.7615   -0.8843 C.ar      1 <0>        -0.0995
     17 C14        -2.1756    1.9556   -0.8967 C.ar      1 <0>        -0.1183
     18 H1          5.6251    3.9430   -0.9203 H         1 <0>         0.0559
     19 H2          5.6414    3.9337    0.8596 H         1 <0>         0.0559
     20 H3          7.0576    3.3493   -0.0465 H         1 <0>         0.1019
     21 H4          3.7539    4.0997   -0.0114 H         1 <0>         0.1384
     22 H5          1.3044    3.9292    0.0111 H         1 <0>         0.1269
     23 H6          4.0916   -0.1591   -0.0382 H         1 <0>         0.1405
     24 H7         -0.8745   -0.6349    0.0064 H         1 <0>         0.2172
     25 H8         -0.4794    3.3677    1.6667 H         1 <0>         0.1292
     26 H9         -2.4772    4.8053    1.6731 H         1 <0>         0.1336
     27 H10        -4.2824    4.4144    0.0465 H         1 <0>         0.1315
     28 H11        -4.0910    2.5922   -1.5968 H         1 <0>         0.1346
     29 H12        -2.0920    1.1567   -1.6187 H         1 <0>         0.1318
@<TRIPOS>BOND
     1    1    2 1
     2    1   18 1
     3    1   19 1
     4    1   20 1
     5    2    3 1
     6    3    8 ar
     7    3    4 ar
     8    4    5 ar
     9    4   21 1
    10    5    6 ar
    11    5   22 1
    12    6   11 1
    13    6    7 ar
    14    7    8 ar
    15    7    9 1
    16    8   23 1
    17    9   10 2
    18   10   11 1
    19   10   24 1
    20   11   12 1
    21   12   17 ar
    22   12   13 ar
    23   13   14 ar
    24   13   25 1
    25   14   15 ar
    26   14   26 1
    27   15   16 ar
    28   15   27 1
    29   16   17 ar
    30   16   28 1
    31   17   29 1
@<TRIPOS>MOLECULE
ZINC13763794
   45    47     0     0     0
SMALL
USER_CHARGES
3-(2-amino-6-phenyl-pyrido[6,5-d]pyrimidin-7-yl)-1-tert-butyl-urea
@<TRIPOS>ATOM
      1 C1         -1.0890    7.6771    1.3039 C.3       1 <0>        -0.1665
      2 C2         -0.3114    8.0808    0.0497 C.3       1 <0>         0.1876
      3 C3         -0.0831    9.5937    0.0561 C.3       1 <0>        -0.1554
      4 C4         -1.1123    7.6912   -1.1944 C.3       1 <0>        -0.1662
      5 N1          0.9814    7.3920    0.0338 N.am      1 <0>        -0.7356
      6 C5          1.0272    6.0450    0.0258 C.2       1 <0>         0.6893
      7 O1         -0.0043    5.4017    0.0317 O.2       1 <0>        -0.5040
      8 N2          2.2166    5.4112    0.0112 N.am      1 <0>        -0.6638
      9 C6          2.2638    4.0247    0.0029 C.ar      1 <0>         0.4702
     10 C7          3.5175    3.3772   -0.0124 C.ar      1 <0>        -0.1612
     11 C8          3.5690    1.9924   -0.0207 C.ar      1 <0>         0.0353
     12 C9          2.3538    1.2883   -0.0134 C.ar      1 <0>        -0.2947
     13 C10         2.3093   -0.1165   -0.0206 C.ar      1 <0>         0.2642
     14 N3          1.1320   -0.7081   -0.0126 N.ar      1 <0>        -0.5710
     15 C11         0.0021   -0.0041    0.0020 C.ar      1 <0>         0.5947
     16 N4         -0.0158    1.3153    0.0093 N.ar      1 <0>        -0.5639
     17 C12         1.1301    2.0077    0.0021 C.ar      1 <0>         0.4265
     18 N5          1.1371    3.3420    0.0091 N.ar      1 <0>        -0.4760
     19 N6         -1.2015   -0.6830    0.0094 N.pl3     1 <0>        -0.8109
     20 C13         4.7693    4.1719   -0.0190 C.ar      1 <0>        -0.0405
     21 C14         4.9387    5.2026   -0.9420 C.ar      1 <0>        -0.1268
     22 C15         6.1035    5.9427   -0.9397 C.ar      1 <0>        -0.1105
     23 C16         7.1066    5.6558   -0.0313 C.ar      1 <0>        -0.1154
     24 C17         6.9463    4.6304    0.8832 C.ar      1 <0>        -0.1109
     25 C18         5.7834    3.8873    0.8940 C.ar      1 <0>        -0.1033
     26 H1         -0.5185    7.9547    2.1902 H         1 <0>         0.0527
     27 H2         -2.0510    8.1896    1.3158 H         1 <0>         0.0642
     28 H3         -1.2517    6.5993    1.2994 H         1 <0>         0.0814
     29 H4          0.4709    9.8813   -0.8375 H         1 <0>         0.0624
     30 H5         -1.0450   10.1062    0.0679 H         1 <0>         0.0766
     31 H6          0.4874    9.8713    0.9424 H         1 <0>         0.0623
     32 H7         -1.2749    6.6134   -1.1990 H         1 <0>         0.0815
     33 H8         -2.0742    8.2037   -1.1826 H         1 <0>         0.0642
     34 H9         -0.5582    7.9788   -2.0880 H         1 <0>         0.0527
     35 H10         1.8045    7.9053    0.0290 H         1 <0>         0.3941
     36 H11         3.0396    5.9245    0.0064 H         1 <0>         0.4155
     37 H12         4.5146    1.4707   -0.0321 H         1 <0>         0.1527
     38 H13         3.2195   -0.6978   -0.0328 H         1 <0>         0.1809
     39 H14        -2.0366   -0.1897    0.0197 H         1 <0>         0.4185
     40 H15        -1.2112   -1.6530    0.0043 H         1 <0>         0.4170
     41 H16         4.1583    5.4243   -1.6548 H         1 <0>         0.1241
     42 H17         6.2343    6.7442   -1.6516 H         1 <0>         0.1276
     43 H18         8.0182    6.2349   -0.0359 H         1 <0>         0.1257
     44 H19         7.7329    4.4106    1.5899 H         1 <0>         0.1275
     45 H20         5.6592    3.0872    1.6087 H         1 <0>         0.1271
@<TRIPOS>BOND
     1    1    2 1
     2    1   26 1
     3    1   27 1
     4    1   28 1
     5    2    3 1
     6    2    4 1
     7    2    5 1
     8    3   29 1
     9    3   30 1
    10    3   31 1
    11    4   32 1
    12    4   33 1
    13    4   34 1
    14    5    6 am
    15    5   35 1
    16    6    7 2
    17    6    8 am
    18    8    9 1
    19    8   36 1
    20    9   18 ar
    21    9   10 ar
    22   10   11 ar
    23   10   20 1
    24   11   12 ar
    25   11   37 1
    26   12   17 ar
    27   12   13 ar
    28   13   14 ar
    29   13   38 1
    30   14   15 ar
    31   15   16 ar
    32   15   19 1
    33   16   17 ar
    34   17   18 ar
    35   19   39 1
    36   19   40 1
    37   20   25 ar
    38   20   21 ar
    39   21   22 ar
    40   21   41 1
    41   22   23 ar
    42   22   42 1
    43   23   24 ar
    44   23   43 1
    45   24   25 ar
    46   24   44 1
    47   25   45 1
@<TRIPOS>MOLECULE
ZINC00257983
   32    34     0     0     0
SMALL
USER_CHARGES

@<TRIPOS>ATOM
      1 C1         -0.0184    1.5028    0.0103 C.3       1 <0>        -0.1214
      2 C2          0.0021   -0.0041    0.0020 C.ar      1 <0>        -0.0628
      3 C3          0.0055   -0.6682   -1.1864 C.ar      1 <0>        -0.0828
      4 C4          0.0250   -2.0729   -1.2000 C.ar      1 <0>         0.0723
      5 C5          0.0409   -2.7786    0.0302 C.ar      1 <0>         0.0900
      6 C6          0.0367   -2.0577    1.2375 C.ar      1 <0>        -0.0870
      7 C7          0.0230   -0.6970    1.2108 C.ar      1 <0>        -0.0590
      8 C8          0.0243    0.0713    2.5073 C.3       1 <0>        -0.1216
      9 N1          0.0599   -4.1150    0.0266 N.ar      1 <0>        -0.4233
     10 C9          0.0638   -4.7658   -1.1236 C.ar      1 <0>         0.1461
     11 C10         0.0485   -4.0617   -2.3420 C.ar      1 <0>         0.0862
     12 N2          0.0298   -2.7505   -2.3547 N.ar      1 <0>        -0.4198
     13 C11         0.0850   -6.2482   -1.1304 C.ar      1 <0>        -0.0555
     14 C12        -0.0102   -6.9549    0.0675 C.ar      1 <0>        -0.0753
     15 C13         0.0101   -8.3347    0.0550 C.ar      1 <0>        -0.1248
     16 C14         0.1245   -9.0166   -1.1432 C.ar      1 <0>        -0.1023
     17 C15         0.2193   -8.3207   -2.3350 C.ar      1 <0>        -0.1218
     18 C16         0.1943   -6.9409   -2.3353 C.ar      1 <0>        -0.0958
     19 H1          1.0042    1.8801    0.0026 H         1 <0>         0.0781
     20 H2         -0.5455    1.8639   -0.8728 H         1 <0>         0.0726
     21 H3         -0.5286    1.8543    0.9071 H         1 <0>         0.0756
     22 H4         -0.0071   -0.1173   -2.1153 H         1 <0>         0.1410
     23 H5          0.0483   -2.5815    2.1819 H         1 <0>         0.1408
     24 H6         -1.0029    0.2422    2.8294 H         1 <0>         0.0784
     25 H7          0.5532   -0.5019    3.2687 H         1 <0>         0.0726
     26 H8          0.5235    1.0292    2.3615 H         1 <0>         0.0758
     27 H9          0.0526   -4.6060   -3.2748 H         1 <0>         0.1757
     28 H10        -0.0992   -6.4236    1.0036 H         1 <0>         0.1344
     29 H11        -0.0631   -8.8832    0.9825 H         1 <0>         0.1280
     30 H12         0.1403  -10.0965   -1.1481 H         1 <0>         0.1265
     31 H13         0.3084   -8.8584   -3.2674 H         1 <0>         0.1297
     32 H14         0.2634   -6.3988   -3.2668 H         1 <0>         0.1293
@<TRIPOS>BOND
     1    1    2 1
     2    1   19 1
     3    1   20 1
     4    1   21 1
     5    2    7 ar
     6    2    3 ar
     7    3    4 ar
     8    3   22 1
     9    4   12 ar
    10    4    5 ar
    11    5    6 ar
    12    5    9 ar
    13    6    7 ar
    14    6   23 1
    15    7    8 1
    16    8   24 1
    17    8   25 1
    18    8   26 1
    19    9   10 ar
    20   10   11 ar
    21   10   13 1
    22   11   12 ar
    23   11   27 1
    24   13   18 ar
    25   13   14 ar
    26   14   15 ar
    27   14   28 1
    28   15   16 ar
    29   15   29 1
    30   16   17 ar
    31   16   30 1
    32   17   18 ar
    33   17   31 1
    34   18   32 1
@<TRIPOS>MOLECULE
ZINC13798314
   33    35     0     0     0
SMALL
USER_CHARGES
5,6-dimethoxy-1-phenyl-benzimidazole
@<TRIPOS>ATOM
      1 C1         -0.0127    1.0858    0.0080 C.3       1 <0>         0.0235
      2 O1         -0.6816    1.5467    1.1837 O.3       1 <0>        -0.3024
      3 C2         -0.7875    2.8932    1.3463 C.ar      1 <0>         0.1060
      4 C3         -0.2547    3.7424    0.3990 C.ar      1 <0>        -0.1277
      5 C4         -0.3679    5.1260    0.5640 C.ar      1 <0>         0.0539
      6 C5         -1.0152    5.6384    1.7006 C.ar      1 <0>         0.0581
      7 C6         -1.5427    4.7740    2.6495 C.ar      1 <0>        -0.1733
      8 C7         -1.4298    3.4077    2.4740 C.ar      1 <0>         0.1324
      9 O2         -1.9464    2.5606    3.4044 O.3       1 <0>        -0.2980
     10 C8         -2.5907    3.1527    4.5342 C.3       1 <0>         0.0239
     11 N1         -0.9616    7.0163    1.5811 N.pl3     1 <0>        -0.4455
     12 C9         -0.3073    7.2955    0.4181 C.2       1 <0>         0.2648
     13 N2          0.0391    6.1909   -0.1753 N.2       1 <0>        -0.4833
     14 C10        -1.4832    7.9501    2.4863 C.ar      1 <0>         0.1249
     15 C11        -2.7941    7.8330    2.9285 C.ar      1 <0>        -0.1193
     16 C12        -3.3038    8.7520    3.8247 C.ar      1 <0>        -0.1002
     17 C13        -2.5133    9.7942    4.2732 C.ar      1 <0>        -0.1145
     18 C14        -1.2091    9.9167    3.8303 C.ar      1 <0>        -0.0993
     19 C15        -0.6919    8.9976    2.9384 C.ar      1 <0>        -0.1178
     20 H1          0.0021   -0.0041    0.0020 H         1 <0>         0.1030
     21 H2          1.0099    1.4631    0.0003 H         1 <0>         0.0572
     22 H3         -0.5399    1.4469   -0.8751 H         1 <0>         0.0573
     23 H4          0.2452    3.3396   -0.4695 H         1 <0>         0.1465
     24 H5         -2.0400    5.1680    3.5235 H         1 <0>         0.1374
     25 H6         -2.9565    2.3680    5.1964 H         1 <0>         0.1044
     26 H7         -1.8787    3.7790    5.0716 H         1 <0>         0.0557
     27 H8         -3.4284    3.7628    4.1963 H         1 <0>         0.0555
     28 H9         -0.1060    8.2885    0.0441 H         1 <0>         0.2163
     29 H10        -3.4133    7.0216    2.5753 H         1 <0>         0.1287
     30 H11        -4.3221    8.6592    4.1722 H         1 <0>         0.1335
     31 H12        -2.9152   10.5137    4.9712 H         1 <0>         0.1315
     32 H13        -0.5941   10.7318    4.1824 H         1 <0>         0.1347
     33 H14         0.3270    9.0934    2.5934 H         1 <0>         0.1321
@<TRIPOS>BOND
     1    1    2 1
     2    1   20 1
     3    1   21 1
     4    1   22 1
     5    2    3 1
     6    3    8 ar
     7    3    4 ar
     8    4    5 ar
     9    4   23 1
    10    5   13 1
    11    5    6 ar
    12    6    7 ar
    13    6   11 1
    14    7    8 ar
    15    7   24 1
    16    8    9 1
    17    9   10 1
    18   10   25 1
    19   10   26 1
    20   10   27 1
    21   11   12 1
    22   11   14 1
    23   12   13 2
    24   12   28 1
    25   14   19 ar
    26   14   15 ar
    27   15   16 ar
    28   15   29 1
    29   16   17 ar
    30   16   30 1
    31   17   18 ar
    32   17   31 1
    33   18   19 ar
    34   18   32 1
    35   19   33 1
@<TRIPOS>MOLECULE
ZINC13798289
   35    37     0     0     0
SMALL
USER_CHARGES
5-isopropoxy-1-phenyl-benzimidazole
@<TRIPOS>ATOM
      1 C1          6.5417    0.3870   -1.3432 C.3       1 <0>        -0.1820
      2 C2          6.1709    0.8720    0.0598 C.3       1 <0>         0.0755
      3 C3          7.4466    1.1226    0.8665 C.3       1 <0>        -0.1490
      4 O1          5.4230    2.0857   -0.0380 O.3       1 <0>        -0.3072
      5 C4          4.0837    1.9708   -0.2428 C.ar      1 <0>         0.1309
      6 C5          3.2824    3.1092   -0.2348 C.ar      1 <0>        -0.1234
      7 C6          1.9237    3.0071   -0.4405 C.ar      1 <0>        -0.0681
      8 C7          1.3484    1.7629   -0.6572 C.ar      1 <0>         0.0159
      9 C8          2.1502    0.6094   -0.6668 C.ar      1 <0>         0.0873
     10 C9          3.5269    0.7259   -0.4570 C.ar      1 <0>        -0.1672
     11 N1          1.3261   -0.4450   -0.8987 N.2       1 <0>        -0.4935
     12 C10         0.1014   -0.0249   -1.0288 C.2       1 <0>         0.2742
     13 N2          0.0544    1.3295   -0.8894 N.pl3     1 <0>        -0.4454
     14 C11        -1.0896    2.1343   -0.9718 C.ar      1 <0>         0.1242
     15 C12        -1.3627    3.0593    0.0270 C.ar      1 <0>        -0.1177
     16 C13        -2.4879    3.8556   -0.0601 C.ar      1 <0>        -0.1000
     17 C14        -3.3483    3.7239   -1.1346 C.ar      1 <0>        -0.1144
     18 C15        -3.0822    2.7993   -2.1278 C.ar      1 <0>        -0.0997
     19 C16        -1.9554    2.0045   -2.0494 C.ar      1 <0>        -0.1185
     20 H1          7.1121   -0.5388   -1.2686 H         1 <0>         0.0731
     21 H2          5.6329    0.2084   -1.9179 H         1 <0>         0.0637
     22 H3          7.1442    1.1458   -1.8425 H         1 <0>         0.0681
     23 H4          5.5684    0.1132    0.5591 H         1 <0>         0.0751
     24 H5          7.1824    1.4681    1.8659 H         1 <0>         0.0653
     25 H6          8.0170    0.1968    0.9411 H         1 <0>         0.0778
     26 H7          8.0491    1.8814    0.3671 H         1 <0>         0.0676
     27 H8          3.7284    4.0783   -0.0660 H         1 <0>         0.1414
     28 H9          1.3074    3.8939   -0.4328 H         1 <0>         0.1307
     29 H10         4.1527   -0.1543   -0.4626 H         1 <0>         0.1386
     30 H11        -0.7528   -0.6574   -1.2201 H         1 <0>         0.2160
     31 H12        -0.6937    3.1592    0.8689 H         1 <0>         0.1297
     32 H13        -2.6983    4.5786    0.7141 H         1 <0>         0.1338
     33 H14        -4.2297    4.3448   -1.1984 H         1 <0>         0.1314
     34 H15        -3.7561    2.6988   -2.9658 H         1 <0>         0.1344
     35 H16        -1.7478    1.2830   -2.8258 H         1 <0>         0.1313
@<TRIPOS>BOND
     1    1    2 1
     2    1   20 1
     3    1   21 1
     4    1   22 1
     5    2    3 1
     6    2    4 1
     7    2   23 1
     8    3   24 1
     9    3   25 1
    10    3   26 1
    11    4    5 1
    12    5   10 ar
    13    5    6 ar
    14    6    7 ar
    15    6   27 1
    16    7    8 ar
    17    7   28 1
    18    8   13 1
    19    8    9 ar
    20    9   10 ar
    21    9   11 1
    22   10   29 1
    23   11   12 2
    24   12   13 1
    25   12   30 1
    26   13   14 1
    27   14   19 ar
    28   14   15 ar
    29   15   16 ar
    30   15   31 1
    31   16   17 ar
    32   16   32 1
    33   17   18 ar
    34   17   33 1
    35   18   19 ar
    36   18   34 1
    37   19   35 1
@<TRIPOS>MOLECULE
ZINC00017525
   26    28     0     0     0
SMALL
USER_CHARGES
1-phenylbenzimidazol-5-ol
@<TRIPOS>ATOM
      1 C1         -3.4049    3.7848    0.0395 C.ar      1 <0>        -0.1134
      2 C2         -3.2972    2.7615   -0.8843 C.ar      1 <0>        -0.0997
      3 C3         -2.1756    1.9556   -0.8967 C.ar      1 <0>        -0.1175
      4 C4         -1.1555    2.1739    0.0196 C.ar      1 <0>         0.1220
      5 C5         -1.2691    3.1986    0.9496 C.ar      1 <0>        -0.1171
      6 C6         -2.3904    4.0050    0.9530 C.ar      1 <0>        -0.0999
      7 N1         -0.0164    1.3581    0.0095 N.pl3     1 <0>        -0.4469
      8 C7          0.0021   -0.0041    0.0020 C.2       1 <0>         0.2737
      9 N2          1.2301   -0.4342   -0.0120 N.2       1 <0>        -0.4879
     10 C8          2.0853    0.6208   -0.0145 C.ar      1 <0>         0.0636
     11 C9          1.3001    1.7861   -0.0008 C.ar      1 <0>         0.0414
     12 C10         1.9078    3.0332    0.0006 C.ar      1 <0>        -0.0903
     13 C11         3.2830    3.1275   -0.0120 C.ar      1 <0>        -0.1218
     14 C12         4.0676    1.9781   -0.0261 C.ar      1 <0>         0.1008
     15 C13         3.4782    0.7294   -0.0272 C.ar      1 <0>        -0.0913
     16 O1          5.4231    2.0854   -0.0385 O.3       1 <0>        -0.4941
     17 H1         -4.2829    4.4137    0.0472 H         1 <0>         0.1319
     18 H2         -4.0909    2.5924   -1.5970 H         1 <0>         0.1349
     19 H3         -2.0920    1.1567   -1.6187 H         1 <0>         0.1318
     20 H4         -0.4793    3.3680    1.6665 H         1 <0>         0.1298
     21 H5         -2.4774    4.8050    1.6733 H         1 <0>         0.1342
     22 H6         -0.8746   -0.6349    0.0070 H         1 <0>         0.2176
     23 H7          1.3044    3.9288    0.0119 H         1 <0>         0.1283
     24 H8          3.7544    4.0992   -0.0106 H         1 <0>         0.1392
     25 H9          4.0913   -0.1596   -0.0382 H         1 <0>         0.1388
     26 H10         5.8067    2.1212   -0.9254 H         1 <0>         0.3917
@<TRIPOS>BOND
     1    1    6 ar
     2    1    2 ar
     3    1   17 1
     4    2    3 ar
     5    2   18 1
     6    3    4 ar
     7    3   19 1
     8    4    5 ar
     9    4    7 1
    10    5    6 ar
    11    5   20 1
    12    6   21 1
    13    7   11 1
    14    7    8 1
    15    8    9 2
    16    8   22 1
    17    9   10 1
    18   10   15 ar
    19   10   11 ar
    20   11   12 ar
    21   12   13 ar
    22   12   23 1
    23   13   14 ar
    24   13   24 1
    25   14   15 ar
    26   14   16 1
    27   15   25 1
    28   16   26 1
