@<TRIPOS>MOLECULE
ZINC00001281
   29    30     0     0     0
SMALL
USER_CHARGES

@<TRIPOS>ATOM
      1 C1         -0.1806    1.0357    0.2000 C.ar      1 <0>        -0.1222
      2 C2          0.9245    1.8481    0.0217 C.ar      1 <0>        -0.1361
      3 C3          2.1862    1.2928   -0.0570 C.ar      1 <0>        -0.1180
      4 C4          2.3450   -0.0840    0.0433 C.ar      1 <0>         0.1573
      5 C5          1.2329   -0.8970    0.2224 C.ar      1 <0>        -0.0156
      6 C6         -0.0262   -0.3347    0.3002 C.ar      1 <0>        -0.1119
      7 C7          1.4001   -2.3907    0.3312 C.3       1 <0>        -0.1565
      8 C8          1.7182   -2.7580    1.7577 C.2       1 <0>         0.5052
      9 O1          1.8014   -1.8875    2.6073 O.co2     1 <0>        -0.6883
     10 O2          1.8923   -3.9257    2.0622 O.co2     1 <0>        -0.7010
     11 N1          3.6199   -0.6493   -0.0363 N.pl3     1 <0>        -0.6799
     12 C9          3.9705   -1.4310   -1.1417 C.ar      1 <0>         0.2371
     13 C10         3.3529   -1.2194   -2.3686 C.ar      1 <0>        -0.0923
     14 C11         3.7019   -1.9940   -3.4588 C.ar      1 <0>        -0.0712
     15 C12         4.6640   -2.9789   -3.3298 C.ar      1 <0>        -0.1540
     16 C13         5.2803   -3.1928   -2.1105 C.ar      1 <0>        -0.0674
     17 C14         4.9413   -2.4177   -1.0174 C.ar      1 <0>        -0.0897
     18 Cl1         5.7217   -2.6815    0.5107 Cl        1 <0>        -0.0512
     19 Cl2         2.1442    0.0160   -2.5315 Cl        1 <0>        -0.0473
     20 H1         -1.1659    1.4731    0.2657 H         1 <0>         0.1132
     21 H2          0.8003    2.9181   -0.0565 H         1 <0>         0.1137
     22 H3          3.0486    1.9277   -0.1966 H         1 <0>         0.1147
     23 H4         -0.8913   -0.9662    0.4394 H         1 <0>         0.1149
     24 H5          0.4765   -2.8828    0.0266 H         1 <0>         0.0630
     25 H6          2.2146   -2.7133   -0.3173 H         1 <0>         0.0663
     26 H7          4.2621   -0.4997    0.6751 H         1 <0>         0.4125
     27 H8          3.2224   -1.8301   -4.4125 H         1 <0>         0.1341
     28 H9          4.9344   -3.5828   -4.1833 H         1 <0>         0.1345
     29 H10         6.0307   -3.9634   -2.0133 H         1 <0>         0.1361
@<TRIPOS>BOND
     1    1    6 ar
     2    1    2 ar
     3    1   20 1
     4    2    3 ar
     5    2   21 1
     6    3    4 ar
     7    3   22 1
     8    4    5 ar
     9    4   11 1
    10    5    6 ar
    11    5    7 1
    12    6   23 1
    13    7    8 1
    14    7   24 1
    15    7   25 1
    16    8    9 2
    17    8   10 1
    18   11   12 1
    19   11   26 1
    20   12   17 ar
    21   12   13 ar
    22   13   14 ar
    23   13   19 1
    24   14   15 ar
    25   14   27 1
    26   15   16 ar
    27   15   28 1
    28   16   17 ar
    29   16   29 1
    30   17   18 1
@<TRIPOS>MOLECULE
ZINC22066293
   32    33     0     0     0
SMALL
USER_CHARGES
[4-[(E)-2-(3,5-dihydroxyphenyl)vinyl]phenyl] hydrogen sulfate
@<TRIPOS>ATOM
      1 C1         -3.7288   -2.1819    0.0332 C.ar      1 <0>        -0.0916
      2 C2         -4.9087   -2.8936    0.0362 C.ar      1 <0>        -0.1242
      3 C3         -4.8847   -4.2824    0.0286 C.ar      1 <0>         0.1343
      4 C4         -3.6725   -4.9604    0.0124 C.ar      1 <0>        -0.1154
      5 C5         -2.4874   -4.2573    0.0039 C.ar      1 <0>        -0.0875
      6 C6         -2.5065   -2.8597    0.0116 C.ar      1 <0>        -0.0828
      7 C7         -1.2420   -2.1033    0.0031 C.2       1 <0>        -0.0711
      8 C8         -1.2628   -0.7607    0.0105 C.2       1 <0>        -0.1370
      9 C9          0.0021   -0.0041    0.0020 C.ar      1 <0>         0.0386
     10 C10        -0.0169    1.3926    0.0097 C.ar      1 <0>        -0.1962
     11 C11         1.1741    2.0989    0.0021 C.ar      1 <0>         0.1971
     12 C12         2.3851    1.4215   -0.0126 C.ar      1 <0>        -0.2668
     13 C13         2.4091    0.0340   -0.0208 C.ar      1 <0>         0.1971
     14 C14         1.2236   -0.6813   -0.0133 C.ar      1 <0>        -0.2550
     15 O1          3.5983   -0.6237   -0.0356 O.3       1 <0>        -0.5120
     16 O2          1.1569    3.4578    0.0091 O.3       1 <0>        -0.5061
     17 O3         -6.0505   -4.9798    0.0373 O.3       1 <0>        -0.7163
     18 S1         -6.5671   -5.3046    1.4316 S.o2      1 <0>         2.7546
     19 O4         -7.6579   -6.1995    1.2624 O.2       1 <0>        -1.0530
     20 O5         -5.4306   -5.6293    2.2204 O.2       1 <0>        -1.0715
     21 O6         -7.1441   -4.0197    2.0084 O.3       1 <0>        -1.0891
     22 H1         -3.7484   -1.1021    0.0437 H         1 <0>         0.1328
     23 H2         -5.8536   -2.3707    0.0488 H         1 <0>         0.1418
     24 H3         -3.6588   -6.0403    0.0061 H         1 <0>         0.1342
     25 H4         -1.5454   -4.7853   -0.0083 H         1 <0>         0.1309
     26 H5         -0.2810   -2.6384   -0.0093 H         1 <0>         0.1249
     27 H6         -2.2238   -0.2256    0.0229 H         1 <0>         0.1311
     28 H7         -0.9589    1.9207    0.0170 H         1 <0>         0.1314
     29 H8          3.3119    1.9759   -0.0185 H         1 <0>         0.1286
     30 H9          1.2434   -1.7611   -0.0196 H         1 <0>         0.1306
     31 H10         3.6185   -1.7235   -0.0421 H         1 <0>         0.4353
     32 H11         2.1024    4.0198    0.0031 H         1 <0>         0.4325
@<TRIPOS>BOND
     1    1    6 ar
     2    1    2 ar
     3    1   22 1
     4    2    3 ar
     5    2   23 1
     6    3    4 ar
     7    3   17 1
     8    4    5 ar
     9    4   24 1
    10    5    6 ar
    11    5   25 1
    12    6    7 1
    13    7    8 2
    14    7   26 1
    15    8    9 1
    16    8   27 1
    17    9   14 ar
    18    9   10 ar
    19   10   11 ar
    20   10   28 1
    21   11   12 ar
    22   11   16 1
    23   12   13 ar
    24   12   29 1
    25   13   14 ar
    26   13   15 1
    27   14   30 1
    28   15   31 1
    29   16   32 1
    30   17   18 1
    31   18   19 2
    32   18   20 2
    33   18   21 1
@<TRIPOS>MOLECULE
ZINC35653092
   32    33     0     0     0
SMALL
USER_CHARGES

@<TRIPOS>ATOM
      1 C1         -0.0169    1.3936    0.0097 C.ar      1 <0>        -0.0945
      2 C2          1.1682    2.0965    0.0022 C.ar      1 <0>        -0.1440
      3 C3          2.3804    1.4185   -0.0131 C.ar      1 <0>         0.0972
      4 C4          2.4043    0.0297   -0.0212 C.ar      1 <0>        -0.1407
      5 C5          1.2244   -0.6820   -0.0142 C.ar      1 <0>        -0.0990
      6 C6          0.0021   -0.0041    0.0020 C.ar      1 <0>        -0.0543
      7 C7         -1.2624   -0.7604    0.0105 C.2       1 <0>        -0.1216
      8 C8         -1.2417   -2.1029    0.0031 C.2       1 <0>        -0.0825
      9 C9         -2.5067   -2.8595    0.0116 C.ar      1 <0>        -0.0389
     10 C10        -3.7284   -2.1820    0.0216 C.ar      1 <0>        -0.1411
     11 C11        -4.9138   -2.8972    0.0296 C.ar      1 <0>         0.1180
     12 C12        -4.8898   -4.2848    0.0277 C.ar      1 <0>        -0.1294
     13 C13        -3.6790   -4.9623    0.0183 C.ar      1 <0>         0.1364
     14 C14        -2.4878   -4.2560    0.0039 C.ar      1 <0>        -0.1179
     15 O1         -3.6619   -6.3212    0.0174 O.3       1 <0>        -0.7109
     16 S1         -3.6646   -6.9394   -1.3734 S.o2      1 <0>         2.7531
     17 O2         -4.0060   -8.3440   -1.2107 O.2       1 <0>        -1.0579
     18 O3         -4.6637   -6.2240   -2.1518 O.2       1 <0>        -1.0778
     19 O4         -2.3261   -6.7649   -1.9158 O.3       1 <0>        -1.0750
     20 O5         -6.1029   -2.2393    0.0398 O.3       1 <0>        -0.4963
     21 O6          3.5463    2.1158   -0.0204 O.3       1 <0>        -0.5007
     22 H1         -0.9588    1.9217    0.0260 H         1 <0>         0.1294
     23 H2          1.1546    3.1764    0.0077 H         1 <0>         0.1281
     24 H3          3.3492   -0.4932   -0.0334 H         1 <0>         0.1294
     25 H4          1.2440   -1.7618   -0.0209 H         1 <0>         0.1331
     26 H5         -2.2059   -0.2349    0.0227 H         1 <0>         0.1261
     27 H6         -0.2983   -2.6284   -0.0091 H         1 <0>         0.1281
     28 H7         -3.7481   -1.1022    0.0234 H         1 <0>         0.1351
     29 H8         -5.8166   -4.8392    0.0340 H         1 <0>         0.1425
     30 H9         -1.5459   -4.7841   -0.0083 H         1 <0>         0.1450
     31 H10        -6.4539   -2.0475   -0.8406 H         1 <0>         0.3925
     32 H11         3.8923    2.3129    0.8608 H         1 <0>         0.3885
@<TRIPOS>BOND
     1    1    6 ar
     2    1    2 ar
     3    1   22 1
     4    2    3 ar
     5    2   23 1
     6    3    4 ar
     7    3   21 1
     8    4    5 ar
     9    4   24 1
    10    5    6 ar
    11    5   25 1
    12    6    7 1
    13    7    8 2
    14    7   26 1
    15    8    9 1
    16    8   27 1
    17    9   14 ar
    18    9   10 ar
    19   10   11 ar
    20   10   28 1
    21   11   12 ar
    22   11   20 1
    23   12   13 ar
    24   12   29 1
    25   13   14 ar
    26   13   15 1
    27   14   30 1
    28   15   16 1
    29   16   17 2
    30   16   18 2
    31   16   19 1
    32   20   31 1
    33   21   32 1
@<TRIPOS>MOLECULE
ZINC02570895
   40    42     0     0     0
SMALL
USER_CHARGES

@<TRIPOS>ATOM
      1 C1          0.0405    1.5033    0.0105 C.3       1 <0>        -0.1224
      2 C2          0.0481   -0.0036    0.0022 C.ar      1 <0>        -0.0617
      3 C3         -0.4654   -0.6891   -1.0843 C.ar      1 <0>        -0.1180
      4 C4         -0.4609   -2.0687   -1.0981 C.ar      1 <0>        -0.0762
      5 C5          0.0630   -2.7726   -0.0133 C.ar      1 <0>        -0.0606
      6 C6          0.5793   -2.0754    1.0794 C.ar      1 <0>        -0.0985
      7 C7          0.5738   -0.6957    1.0787 C.ar      1 <0>        -0.1165
      8 C8          0.0704   -4.2518   -0.0214 C.2       1 <0>         0.1497
      9 C9          0.0778   -5.0559   -1.1264 C.2       1 <0>        -0.2047
     10 C10         0.0841   -6.3814   -0.6911 C.2       1 <0>        -0.0034
     11 N1          0.0806   -6.3920    0.6183 N.2       1 <0>        -0.2184
     12 N2          0.0772   -5.0674    1.0740 N.pl3     1 <0>        -0.3181
     13 C11         0.0780   -4.6538    2.4124 C.ar      1 <0>         0.1993
     14 C12        -0.7877   -3.6523    2.8316 C.ar      1 <0>        -0.1310
     15 C13        -0.7845   -3.2467    4.1518 C.ar      1 <0>        -0.0008
     16 C14         0.0799   -3.8365    5.0557 C.ar      1 <0>        -0.6729
     17 C15         0.9432   -4.8341    4.6414 C.ar      1 <0>         0.0013
     18 C16         0.9405   -5.2485    3.3238 C.ar      1 <0>        -0.1237
     19 S1          0.0817   -3.3155    6.7389 S.o2      1 <0>         2.7035
     20 O1          1.3615   -3.6412    7.2635 O.2       1 <0>        -0.9570
     21 O2         -0.4336   -1.9913    6.7547 O.2       1 <0>        -0.9571
     22 N3         -1.0144   -4.2595    7.5449 N.pl3     1 <0>        -1.2487
     23 C17         0.0927   -7.5984   -1.5799 C.3       1 <0>         0.5581
     24 F1          1.4144   -7.9678   -1.8518 F         1 <0>        -0.1637
     25 F2         -0.5625   -8.6523   -0.9339 F         1 <0>        -0.1639
     26 F3         -0.5656   -7.3049   -2.7789 F         1 <0>        -0.1610
     27 H1          0.9639    1.8738   -0.4347 H         1 <0>         0.0767
     28 H2         -0.8113    1.8655   -0.5652 H         1 <0>         0.0714
     29 H3         -0.0366    1.8607    1.0374 H         1 <0>         0.0715
     30 H4         -0.8709   -0.1431   -1.9232 H         1 <0>         0.1331
     31 H5         -0.8624   -2.6027   -1.9467 H         1 <0>         0.1336
     32 H6          0.9862   -2.6145    1.9221 H         1 <0>         0.1246
     33 H7          0.9772   -0.1548    1.9220 H         1 <0>         0.1315
     34 H8          0.0784   -4.7241   -2.1542 H         1 <0>         0.1732
     35 H9         -1.4626   -3.1908    2.1259 H         1 <0>         0.1459
     36 H10        -1.4576   -2.4679    4.4785 H         1 <0>         0.1580
     37 H11         1.6174   -5.2926    5.3496 H         1 <0>         0.1579
     38 H12         1.6117   -6.0309    3.0018 H         1 <0>         0.1479
     39 H13        -1.5085   -4.9443    7.0675 H         1 <0>         0.4179
     40 H14        -1.1624   -4.1277    8.4945 H         1 <0>         0.4235
@<TRIPOS>BOND
     1    1    2 1
     2    1   27 1
     3    1   28 1
     4    1   29 1
     5    2    7 ar
     6    2    3 ar
     7    3    4 ar
     8    3   30 1
     9    4    5 ar
    10    4   31 1
    11    5    6 ar
    12    5    8 1
    13    6    7 ar
    14    6   32 1
    15    7   33 1
    16    8   12 1
    17    8    9 2
    18    9   10 1
    19    9   34 1
    20   10   11 2
    21   10   23 1
    22   11   12 1
    23   12   13 1
    24   13   18 ar
    25   13   14 ar
    26   14   15 ar
    27   14   35 1
    28   15   16 ar
    29   15   36 1
    30   16   17 ar
    31   16   19 1
    32   17   18 ar
    33   17   37 1
    34   18   38 1
    35   19   20 2
    36   19   21 2
    37   19   22 1
    38   22   39 1
    39   22   40 1
    40   23   24 1
    41   23   25 1
    42   23   26 1
@<TRIPOS>MOLECULE
ZINC00119978
   35    37     0     0     0
SMALL
USER_CHARGES

@<TRIPOS>ATOM
      1 C1         -0.0167    1.3779    0.0096 C.ar      1 <0>        -0.0610
      2 C2          1.1696    2.0886    0.0021 C.ar      1 <0>        -0.1355
      3 C3          2.3802    1.4154   -0.0130 C.ar      1 <0>         0.0908
      4 C4          2.3990    0.0236   -0.0206 C.ar      1 <0>         0.0771
      5 C5          1.2071   -0.6822   -0.0130 C.ar      1 <0>        -0.1167
      6 C6          0.0021   -0.0041    0.0020 C.ar      1 <0>        -0.0830
      7 C7         -1.2936   -0.7736    0.0102 C.3       1 <0>         0.1458
      8 H1         -1.1201   -1.7884   -0.3479 H         1 <0>         0.0970
      9 C8         -1.8590   -0.8183    1.4356 C.3       1 <0>         0.0774
     10 H2         -1.1168   -1.2422    2.1121 H         1 <0>         0.0795
     11 C9         -3.1120   -1.6975    1.4281 C.3       1 <0>        -0.1008
     12 C10        -4.0118   -1.2895    0.2891 C.ar      1 <0>        -0.1920
     13 C11        -5.3448   -1.6839    0.3168 C.ar      1 <0>         0.1573
     14 C12        -6.1992   -1.3308   -0.7146 C.ar      1 <0>        -0.2027
     15 C13        -5.7231   -0.5806   -1.7796 C.ar      1 <0>         0.1581
     16 C14        -4.3960   -0.1855   -1.8071 C.ar      1 <0>        -0.1851
     17 C15        -3.5373   -0.5380   -0.7709 C.ar      1 <0>         0.1753
     18 O1         -2.2452   -0.1223   -0.8323 O.3       1 <0>        -0.2920
     19 O2         -6.5574   -0.2342   -2.7948 O.3       1 <0>        -0.4925
     20 O3         -5.8113   -2.4194    1.3600 O.3       1 <0>        -0.4918
     21 O4         -2.1991    0.5029    1.8606 O.3       1 <0>        -0.5471
     22 O5          3.5850   -0.6417   -0.0359 O.3       1 <0>        -0.4856
     23 O6          3.5476    2.1129   -0.0209 O.3       1 <0>        -0.4877
     24 H3         -0.9598    1.9038    0.0259 H         1 <0>         0.1392
     25 H4          1.1522    3.1684    0.0077 H         1 <0>         0.1364
     26 H5          1.2190   -1.7621   -0.0189 H         1 <0>         0.1353
     27 H6         -2.8221   -2.7410    1.3054 H         1 <0>         0.0902
     28 H7         -3.6445   -1.5781    2.3716 H         1 <0>         0.0880
     29 H8         -7.2339   -1.6393   -0.6898 H         1 <0>         0.1380
     30 H9         -4.0260    0.3985   -2.6368 H         1 <0>         0.1409
     31 H10        -7.0114    0.6089   -2.6604 H         1 <0>         0.3966
     32 H11        -6.1571   -1.8895    2.0913 H         1 <0>         0.3930
     33 H12        -2.5632    0.5468    2.7553 H         1 <0>         0.3808
     34 H13         3.9367   -0.8389    0.8430 H         1 <0>         0.3875
     35 H14         3.8938    2.3101    0.8602 H         1 <0>         0.3892
@<TRIPOS>BOND
     1    1    6 ar
     2    1    2 ar
     3    1   24 1
     4    2    3 ar
     5    2   25 1
     6    3    4 ar
     7    3   23 1
     8    4    5 ar
     9    4   22 1
    10    5    6 ar
    11    5   26 1
    12    6    7 1
    13    7    8 1
    14    7   18 1
    15    7    9 1
    16    9   10 1
    17    9   11 1
    18    9   21 1
    19   11   12 1
    20   11   27 1
    21   11   28 1
    22   12   17 ar
    23   12   13 ar
    24   13   14 ar
    25   13   20 1
    26   14   15 ar
    27   14   29 1
    28   15   16 ar
    29   15   19 1
    30   16   17 ar
    31   16   30 1
    32   17   18 1
    33   19   31 1
    34   20   32 1
    35   21   33 1
    36   22   34 1
    37   23   35 1
@<TRIPOS>MOLECULE
ZINC00105216
   30    31     0     0     0
SMALL
USER_CHARGES

@<TRIPOS>ATOM
      1 C1         -0.0187    1.5258    0.0104 C.3       1 <0>        -0.1185
      2 C2          0.0021   -0.0041    0.0020 C.3       1 <0>        -0.1364
      3 H1         -1.0205   -0.3814    0.0098 H         1 <0>         0.0713
      4 C3          0.7074   -0.4901   -1.2379 C.ar      1 <0>        -0.0233
      5 C4          2.0367   -0.1325   -1.4560 C.ar      1 <0>        -0.0492
      6 C5          2.7027   -0.5545   -2.5653 C.ar      1 <0>        -0.1340
      7 C6          2.0432   -1.3636   -3.5068 C.ar      1 <0>        -0.0210
      8 C7          2.6987   -1.8182   -4.6628 C.ar      1 <0>        -0.1462
      9 C8          2.0264   -2.6031   -5.5556 C.ar      1 <0>         0.1082
     10 C9          0.6925   -2.9604   -5.3345 C.ar      1 <0>        -0.2006
     11 C10         0.0299   -2.5361   -4.2254 C.ar      1 <0>        -0.0655
     12 C11         0.6914   -1.7275   -3.2846 C.ar      1 <0>        -0.0750
     13 C12         0.0385   -1.2762   -2.1250 C.ar      1 <0>        -0.1205
     14 O1          2.6617   -3.0423   -6.6736 O.3       1 <0>        -0.3228
     15 C13         1.9067   -3.8599   -7.5700 C.3       1 <0>         0.0296
     16 C14         0.7309   -0.5033    1.2229 C.2       1 <0>         0.5002
     17 O2          0.3210   -0.2204    2.3358 O.co2     1 <0>        -0.6976
     18 O3          1.7305   -1.1901    1.0978 O.co2     1 <0>        -0.6861
     19 H2          1.0039    1.9031    0.0027 H         1 <0>         0.0479
     20 H3         -0.5459    1.8868   -0.8726 H         1 <0>         0.0406
     21 H4         -0.5289    1.8773    0.9072 H         1 <0>         0.0604
     22 H5          2.5458    0.4890   -0.7342 H         1 <0>         0.1214
     23 H6          3.7325   -0.2690   -2.7216 H         1 <0>         0.1221
     24 H7          3.7285   -1.5483   -4.8448 H         1 <0>         0.1285
     25 H8          0.1814   -3.5818   -6.0549 H         1 <0>         0.1229
     26 H9         -1.0004   -2.8192   -4.0679 H         1 <0>         0.1257
     27 H10        -0.9902   -1.5485   -1.9405 H         1 <0>         0.1191
     28 H11         2.5306   -4.1410   -8.4184 H         1 <0>         0.0948
     29 H12         1.5744   -4.7583   -7.0499 H         1 <0>         0.0524
     30 H13         1.0391   -3.3040   -7.9254 H         1 <0>         0.0519
@<TRIPOS>BOND
     1    1    2 1
     2    1   19 1
     3    1   20 1
     4    1   21 1
     5    2    3 1
     6    2    4 1
     7    2   16 1
     8    4   13 ar
     9    4    5 ar
    10    5    6 ar
    11    5   22 1
    12    6    7 ar
    13    6   23 1
    14    7   12 ar
    15    7    8 ar
    16    8    9 ar
    17    8   24 1
    18    9   10 ar
    19    9   14 1
    20   10   11 ar
    21   10   25 1
    22   11   12 ar
    23   11   26 1
    24   12   13 ar
    25   13   27 1
    26   14   15 1
    27   15   28 1
    28   15   29 1
    29   15   30 1
    30   16   17 2
    31   16   18 1
@<TRIPOS>MOLECULE
ZINC07639070
   26    27     0     0     0
SMALL
USER_CHARGES
N-(4-fluorophenyl)-6-oxo-1H-pyridine-3-carboxamide
@<TRIPOS>ATOM
      1 C1          1.0902    1.9538   -0.6144 C.ar      1 <0>        -0.0905
      2 C2          2.2929    1.2752   -0.6346 C.ar      1 <0>        -0.1347
      3 C3          2.3955    0.0281   -0.0414 C.ar      1 <0>         0.0862
      4 C4          1.2931   -0.5408    0.5739 C.ar      1 <0>        -0.1344
      5 C5          0.0886    0.1346    0.5968 C.ar      1 <0>        -0.1139
      6 C6         -0.0165    1.3851    0.0022 C.ar      1 <0>         0.1328
      7 N1         -1.2377    2.0687    0.0192 N.am      1 <0>        -0.6680
      8 C7         -1.2566    3.4119    0.1283 C.2       1 <0>         0.5814
      9 O1         -0.2132    4.0369    0.1269 O.2       1 <0>        -0.5242
     10 C8         -2.5420    4.1237    0.2493 C.2       1 <0>        -0.2619
     11 C9         -3.7601    3.4015    0.2515 C.2       1 <0>        -0.0005
     12 C10        -4.9309    4.0836    0.3650 C.2       1 <0>        -0.2343
     13 C11        -4.9077    5.4865    0.4773 C.2       1 <0>         0.5160
     14 O2         -5.9552    6.1028    0.5793 O.2       1 <0>        -0.5316
     15 N2         -3.7388    6.1528    0.4735 N.am      1 <0>        -0.5969
     16 H1         -3.7402    7.1196    0.5521 H         1 <0>         0.4248
     17 C12        -2.5673    5.4985    0.3671 C.2       1 <0>         0.2251
     18 F1          3.5728   -0.6342   -0.0627 F         1 <0>        -0.1384
     19 H2          1.0105    2.9261   -1.0778 H         1 <0>         0.1502
     20 H3          3.1540    1.7173   -1.1137 H         1 <0>         0.1404
     21 H4          1.3754   -1.5132    1.0366 H         1 <0>         0.1410
     22 H5         -0.7708   -0.3094    1.0772 H         1 <0>         0.1373
     23 H6         -2.0705    1.5758   -0.0476 H         1 <0>         0.4123
     24 H7         -3.7591    2.3250    0.1648 H         1 <0>         0.1390
     25 H8         -5.8715    3.5529    0.3692 H         1 <0>         0.1583
     26 H9         -1.6409    6.0536    0.3705 H         1 <0>         0.1847
@<TRIPOS>BOND
     1    1    6 ar
     2    1    2 ar
     3    1   19 1
     4    2    3 ar
     5    2   20 1
     6    3    4 ar
     7    3   18 1
     8    4    5 ar
     9    4   21 1
    10    5    6 ar
    11    5   22 1
    12    6    7 1
    13    7    8 am
    14    7   23 1
    15    8    9 2
    16    8   10 1
    17   10   17 2
    18   10   11 1
    19   11   12 2
    20   11   24 1
    21   12   13 1
    22   12   25 1
    23   13   14 2
    24   13   15 am
    25   15   16 1
    26   15   17 1
    27   17   26 1
@<TRIPOS>MOLECULE
ZINC14429371
   26    27     0     0     0
SMALL
USER_CHARGES
N-(4-chlorophenyl)-6-oxo-1H-pyridine-3-carboxamide
@<TRIPOS>ATOM
      1 C1          1.0906    1.9535   -0.6144 C.ar      1 <0>        -0.1106
      2 C2          2.2929    1.2742   -0.6344 C.ar      1 <0>        -0.0909
      3 C3          2.3948    0.0279   -0.0415 C.ar      1 <0>        -0.0506
      4 C4          1.2932   -0.5406    0.5736 C.ar      1 <0>        -0.0908
      5 C5          0.0887    0.1346    0.5968 C.ar      1 <0>        -0.1334
      6 C6         -0.0165    1.3852    0.0021 C.ar      1 <0>         0.1552
      7 N1         -1.2370    2.0688    0.0191 N.am      1 <0>        -0.6822
      8 C7         -1.2556    3.4120    0.1283 C.2       1 <0>         0.5828
      9 O1         -0.2122    4.0367    0.1269 O.2       1 <0>        -0.5285
     10 C8         -2.5409    4.1241    0.2493 C.2       1 <0>        -0.2664
     11 C9         -3.7591    3.4022    0.2515 C.2       1 <0>         0.0006
     12 C10        -4.9298    4.0845    0.3649 C.2       1 <0>        -0.2383
     13 C11        -4.9063    5.4874    0.4772 C.2       1 <0>         0.5180
     14 O2         -5.9536    6.1039    0.5796 O.2       1 <0>        -0.5357
     15 N2         -3.7373    6.1534    0.4730 N.am      1 <0>        -0.6108
     16 H1         -3.7288    7.2502    0.5570 H         1 <0>         0.4536
     17 C12        -2.5659    5.4989    0.3671 C.2       1 <0>         0.2274
     18 Cl1         3.9074   -0.8235   -0.0688 Cl        1 <0>        -0.0691
     19 H2          1.0115    2.9259   -1.0776 H         1 <0>         0.1483
     20 H3          3.1542    1.7158   -1.1134 H         1 <0>         0.1371
     21 H4          1.3756   -1.5130    1.0362 H         1 <0>         0.1379
     22 H5         -0.7706   -0.3094    1.0773 H         1 <0>         0.1359
     23 H6         -2.1815    1.5100   -0.0567 H         1 <0>         0.4347
     24 H7         -3.7584    2.3257    0.1647 H         1 <0>         0.1373
     25 H8         -5.8705    3.5540    0.3691 H         1 <0>         0.1564
     26 H9         -1.6393    6.0538    0.3701 H         1 <0>         0.1821
@<TRIPOS>BOND
     1    1    6 ar
     2    1    2 ar
     3    1   19 1
     4    2    3 ar
     5    2   20 1
     6    3    4 ar
     7    3   18 1
     8    4    5 ar
     9    4   21 1
    10    5    6 ar
    11    5   22 1
    12    6    7 1
    13    7    8 am
    14    7   23 1
    15    8    9 2
    16    8   10 1
    17   10   17 2
    18   10   11 1
    19   11   12 2
    20   11   24 1
    21   12   13 1
    22   12   25 1
    23   13   14 2
    24   13   15 am
    25   15   16 1
    26   15   17 1
    27   17   26 1
@<TRIPOS>MOLECULE
ZINC00006787
   29    30     0     0     0
SMALL
USER_CHARGES

@<TRIPOS>ATOM
      1 C1         -0.0169    1.3936    0.0097 C.ar      1 <0>        -0.0880
      2 C2          1.1682    2.0965    0.0022 C.ar      1 <0>        -0.1444
      3 C3          2.3804    1.4185   -0.0131 C.ar      1 <0>         0.1088
      4 C4          2.4043    0.0297   -0.0212 C.ar      1 <0>        -0.1437
      5 C5          1.2244   -0.6820   -0.0142 C.ar      1 <0>        -0.0943
      6 C6          0.0021   -0.0041    0.0020 C.ar      1 <0>        -0.0701
      7 C7         -1.2624   -0.7604    0.0105 C.2       1 <0>        -0.0946
      8 C8         -1.2417   -2.1029    0.0031 C.2       1 <0>        -0.1125
      9 C9         -2.5067   -2.8595    0.0116 C.ar      1 <0>        -0.0208
     10 C10        -3.7282   -2.1821    0.0216 C.ar      1 <0>        -0.1505
     11 C11        -4.9138   -2.8974    0.0296 C.ar      1 <0>         0.1270
     12 C12        -4.8898   -4.2848    0.0277 C.ar      1 <0>        -0.1731
     13 C13        -3.6788   -4.9623    0.0183 C.ar      1 <0>         0.1263
     14 C14        -2.4878   -4.2561    0.0039 C.ar      1 <0>        -0.1438
     15 O1         -3.6617   -6.3213    0.0174 O.3       1 <0>        -0.4960
     16 O2         -6.1029   -2.2395    0.0398 O.3       1 <0>        -0.4960
     17 O3          3.5463    2.1158   -0.0204 O.3       1 <0>        -0.4996
     18 H1         -0.9588    1.9217    0.0260 H         1 <0>         0.1307
     19 H2          1.1546    3.1764    0.0077 H         1 <0>         0.1317
     20 H3          3.3492   -0.4932   -0.0334 H         1 <0>         0.1314
     21 H4          1.2440   -1.7618   -0.0209 H         1 <0>         0.1307
     22 H5         -2.2059   -0.2349    0.0227 H         1 <0>         0.1259
     23 H6         -0.2983   -2.6284   -0.0091 H         1 <0>         0.1276
     24 H7         -3.7479   -1.1023    0.0234 H         1 <0>         0.1351
     25 H8         -5.8166   -4.8392    0.0340 H         1 <0>         0.1362
     26 H9         -1.5459   -4.7843   -0.0083 H         1 <0>         0.1350
     27 H10        -3.6634   -6.7141   -0.8663 H         1 <0>         0.3942
     28 H11        -6.4539   -2.0477   -0.8406 H         1 <0>         0.3942
     29 H12         3.8923    2.3129    0.8608 H         1 <0>         0.3928
@<TRIPOS>BOND
     1    1    6 ar
     2    1    2 ar
     3    1   18 1
     4    2    3 ar
     5    2   19 1
     6    3    4 ar
     7    3   17 1
     8    4    5 ar
     9    4   20 1
    10    5    6 ar
    11    5   21 1
    12    6    7 1
    13    7    8 2
    14    7   22 1
    15    8    9 1
    16    8   23 1
    17    9   14 ar
    18    9   10 ar
    19   10   11 ar
    20   10   24 1
    21   11   12 ar
    22   11   16 1
    23   12   13 ar
    24   12   25 1
    25   13   14 ar
    26   13   15 1
    27   14   26 1
    28   15   27 1
    29   16   28 1
    30   17   29 1
@<TRIPOS>MOLECULE
ZINC00001536
   38    39     0     0     0
SMALL
USER_CHARGES

@<TRIPOS>ATOM
      1 C1         -0.0157    1.3058    0.0092 C.2       1 <0>        -0.1898
      2 C2          0.0021   -0.0041    0.0020 C.2       1 <0>        -0.1505
      3 C3         -1.2926   -0.7753    0.0102 C.3       1 <0>        -0.0556
      4 C4         -1.3183   -1.7262   -1.1586 C.ar      1 <0>        -0.0841
      5 C5         -1.8344   -1.3114   -2.3737 C.ar      1 <0>        -0.0961
      6 C6         -1.8626   -2.1763   -3.4511 C.ar      1 <0>        -0.1399
      7 C7         -1.3727   -3.4657   -3.3192 C.ar      1 <0>         0.1141
      8 C8         -0.8503   -3.8876   -2.0930 C.ar      1 <0>        -0.0690
      9 C9         -0.8219   -3.0060   -1.0148 C.ar      1 <0>        -0.0887
     10 C10        -0.3237   -5.2659   -1.9423 C.ar      1 <0>        -0.0550
     11 C11         0.9356   -5.4751   -1.3818 C.ar      1 <0>        -0.0938
     12 C12         1.4225   -6.7577   -1.2430 C.ar      1 <0>        -0.1452
     13 C13         0.6602   -7.8402   -1.6612 C.ar      1 <0>         0.1148
     14 C14        -0.5937   -7.6352   -2.2200 C.ar      1 <0>        -0.1056
     15 C15        -1.0890   -6.3550   -2.3554 C.ar      1 <0>        -0.0690
     16 C16        -1.4176   -8.8129   -2.6731 C.3       1 <0>        -0.0468
     17 C17        -0.9328   -9.2756   -4.0229 C.2       1 <0>        -0.1469
     18 C18        -0.5744  -10.5234   -4.1978 C.2       1 <0>        -0.1832
     19 O1          1.1430   -9.1030   -1.5236 O.3       1 <0>        -0.4926
     20 O2         -1.4004   -4.3171   -4.3776 O.3       1 <0>        -0.4925
     21 H1          0.9122    1.8585    0.0033 H         1 <0>         0.0989
     22 H2         -0.9582    1.8330    0.0166 H         1 <0>         0.0972
     23 H3          0.9446   -0.5313   -0.0098 H         1 <0>         0.1092
     24 H4         -1.3737   -1.3393    0.9394 H         1 <0>         0.0838
     25 H5         -2.1295   -0.0812   -0.0676 H         1 <0>         0.0788
     26 H6         -2.2171   -0.3071   -2.4804 H         1 <0>         0.1269
     27 H7         -2.2673   -1.8471   -4.3968 H         1 <0>         0.1312
     28 H8         -0.4159   -3.3249   -0.0662 H         1 <0>         0.1280
     29 H9          1.5293   -4.6334   -1.0570 H         1 <0>         0.1265
     30 H10         2.3980   -6.9204   -0.8089 H         1 <0>         0.1303
     31 H11        -2.0669   -6.1964   -2.7855 H         1 <0>         0.1308
     32 H12        -1.3172   -9.6251   -1.9531 H         1 <0>         0.0759
     33 H13        -2.4645   -8.5180   -2.7445 H         1 <0>         0.0805
     34 H14        -0.8808   -8.5784   -4.8461 H         1 <0>         0.1071
     35 H15        -0.6264  -11.2206   -3.3746 H         1 <0>         0.0957
     36 H16        -0.2270  -10.8550   -5.1652 H         1 <0>         0.0964
     37 H17         0.9169   -9.5209   -0.6813 H         1 <0>         0.3880
     38 H18        -0.6071   -4.2843   -4.9296 H         1 <0>         0.3900
@<TRIPOS>BOND
     1    1    2 2
     2    1   21 1
     3    1   22 1
     4    2    3 1
     5    2   23 1
     6    3    4 1
     7    3   24 1
     8    3   25 1
     9    4    9 ar
    10    4    5 ar
    11    5    6 ar
    12    5   26 1
    13    6    7 ar
    14    6   27 1
    15    7    8 ar
    16    7   20 1
    17    8    9 ar
    18    8   10 1
    19    9   28 1
    20   10   15 ar
    21   10   11 ar
    22   11   12 ar
    23   11   29 1
    24   12   13 ar
    25   12   30 1
    26   13   14 ar
    27   13   19 1
    28   14   15 ar
    29   14   16 1
    30   15   31 1
    31   16   17 1
    32   16   32 1
    33   16   33 1
    34   17   18 2
    35   17   34 1
    36   18   35 1
    37   18   36 1
    38   19   37 1
    39   20   38 1
@<TRIPOS>MOLECULE
ZINC38141759
   32    32     0     0     0
SMALL
USER_CHARGES

@<TRIPOS>ATOM
      1 C1         -0.0187    1.5258    0.0104 C.3       1 <0>        -0.1161
      2 C2          0.0021   -0.0041    0.0020 C.3       1 <0>        -0.1322
      3 H1          0.5123   -0.3556   -0.8948 H         1 <0>         0.0665
      4 C3          0.7309   -0.5033    1.2229 C.ar      1 <0>        -0.0395
      5 C4          0.2630   -0.1872    2.4847 C.ar      1 <0>        -0.1030
      6 C5          0.9315   -0.6452    3.6046 C.ar      1 <0>        -0.1208
      7 C6          2.0678   -1.4195    3.4627 C.ar      1 <0>        -0.1043
      8 C7          2.5353   -1.7363    2.2010 C.ar      1 <0>        -0.1200
      9 C8          1.8643   -1.2820    1.0811 C.ar      1 <0>        -0.1243
     10 C9          2.7973   -1.9179    4.6836 C.3       1 <0>        -0.0680
     11 C10         2.2317   -3.2785    5.0956 C.3       1 <0>        -0.0934
     12 C11         2.5261   -4.3059    4.0007 C.3       1 <0>        -0.1501
     13 C12         2.8845   -3.7270    6.4047 C.3       1 <0>        -0.1454
     14 C13        -1.4117   -0.5257    0.0127 C.2       1 <0>         0.5043
     15 O1         -1.7102   -1.4919   -0.6684 O.co2     1 <0>        -0.6985
     16 O2         -2.2571    0.0185    0.7025 O.co2     1 <0>        -0.6908
     17 H2          1.0039    1.9031    0.0027 H         1 <0>         0.0363
     18 H3         -0.5459    1.8868   -0.8726 H         1 <0>         0.0472
     19 H4         -0.5289    1.8773    0.9072 H         1 <0>         0.0598
     20 H5         -0.6248    0.4177    2.5955 H         1 <0>         0.1300
     21 H6          0.5663   -0.3977    4.5903 H         1 <0>         0.1130
     22 H7          3.4233   -2.3410    2.0902 H         1 <0>         0.1123
     23 H8          2.2274   -1.5326    0.0953 H         1 <0>         0.1149
     24 H9          3.8586   -2.0192    4.4567 H         1 <0>         0.0652
     25 H10         2.6665   -1.2077    5.5001 H         1 <0>         0.0657
     26 H11         1.1540   -3.1964    5.2365 H         1 <0>         0.0710
     27 H12         2.1232   -5.2752    4.2942 H         1 <0>         0.0494
     28 H13         2.0610   -3.9864    3.0682 H         1 <0>         0.0643
     29 H14         3.6038   -4.3880    3.8598 H         1 <0>         0.0501
     30 H15         2.6748   -2.9951    7.1847 H         1 <0>         0.0522
     31 H16         2.4816   -4.6963    6.6982 H         1 <0>         0.0523
     32 H17         3.9623   -3.8091    6.2637 H         1 <0>         0.0520
@<TRIPOS>BOND
     1    1    2 1
     2    1   17 1
     3    1   18 1
     4    1   19 1
     5    2    3 1
     6    2    4 1
     7    2   14 1
     8    4    9 ar
     9    4    5 ar
    10    5    6 ar
    11    5   20 1
    12    6    7 ar
    13    6   21 1
    14    7    8 ar
    15    7   10 1
    16    8    9 ar
    17    8   22 1
    18    9   23 1
    19   10   11 1
    20   10   24 1
    21   10   25 1
    22   11   12 1
    23   11   13 1
    24   11   26 1
    25   12   27 1
    26   12   28 1
    27   12   29 1
    28   13   30 1
    29   13   31 1
    30   13   32 1
    31   14   15 2
    32   14   16 1
@<TRIPOS>MOLECULE
ZINC12404515
   40    42     0     0     0
SMALL
USER_CHARGES

@<TRIPOS>ATOM
      1 C1         -0.0439    1.3635   -0.6440 C.3       1 <0>        -0.0874
      2 C2         -0.0025   -0.0397   -0.0960 C.2       1 <0>        -0.1309
      3 C3         -1.0756   -0.7895    0.2220 C.2       1 <0>        -0.0100
      4 C4         -0.6392   -2.0946    0.7226 C.ar      1 <0>        -0.0059
      5 C5         -1.3387   -3.2167    1.1780 C.ar      1 <0>        -0.1272
      6 C6         -0.6462   -4.3331    1.5994 C.ar      1 <0>         0.1014
      7 C7          0.7427   -4.3545    1.5760 C.ar      1 <0>        -0.1658
      8 C8          1.4511   -3.2580    1.1303 C.ar      1 <0>        -0.0710
      9 C9          0.7717   -2.1225    0.7012 C.ar      1 <0>        -0.0956
     10 C10         1.2127   -0.8159    0.1730 C.2       1 <0>        -0.0141
     11 C11         2.5125   -0.4047   -0.0252 C.2       1 <0>        -0.0858
     12 C12         3.6081   -1.3706    0.0692 C.ar      1 <0>        -0.0550
     13 C13         3.4905   -2.6298   -0.5385 C.ar      1 <0>        -0.0770
     14 C14         4.5151   -3.5269   -0.4481 C.ar      1 <0>        -0.1023
     15 C15         5.6770   -3.1939    0.2465 C.ar      1 <0>        -0.0838
     16 C16         5.7986   -1.9440    0.8520 C.ar      1 <0>        -0.1356
     17 C17         4.7817   -1.0381    0.7627 C.ar      1 <0>        -0.0863
     18 S1          6.9960   -4.3567    0.3601 S.3       1 <0>        -0.1220
     19 C18         8.2592   -3.4936    1.3348 C.3       1 <0>        -0.1438
     20 F1         -1.3249   -5.4153    2.0392 F         1 <0>        -0.1428
     21 C19        -2.5106   -0.3507    0.0836 C.3       1 <0>        -0.1489
     22 C20        -3.0571   -0.8291   -1.2368 C.2       1 <0>         0.4994
     23 O1         -2.3472   -1.4673   -1.9952 O.co2     1 <0>        -0.6840
     24 O2         -4.2093   -0.5780   -1.5467 O.co2     1 <0>        -0.7005
     25 H1          0.9730    1.7183   -0.8115 H         1 <0>         0.0583
     26 H2         -0.5907    1.3693   -1.5869 H         1 <0>         0.0728
     27 H3         -0.5440    2.0178    0.0700 H         1 <0>         0.0650
     28 H4         -2.4185   -3.2093    1.2002 H         1 <0>         0.1355
     29 H5          1.2713   -5.2353    1.9092 H         1 <0>         0.1331
     30 H6          2.5308   -3.2809    1.1149 H         1 <0>         0.1382
     31 H7          2.7230    0.6304   -0.2502 H         1 <0>         0.1360
     32 H8          2.5906   -2.8888   -1.0765 H         1 <0>         0.1358
     33 H9          4.4254   -4.4966   -0.9152 H         1 <0>         0.1302
     34 H10         6.7007   -1.6906    1.3890 H         1 <0>         0.1224
     35 H11         4.8786   -0.0685    1.2282 H         1 <0>         0.1283
     36 H12         8.5584   -2.5826    0.8165 H         1 <0>         0.0833
     37 H13         7.8517   -3.2380    2.3129 H         1 <0>         0.0835
     38 H14         9.1266   -4.1416    1.4606 H         1 <0>         0.1074
     39 H15        -3.1003   -0.7750    0.8961 H         1 <0>         0.0703
     40 H16        -2.5635    0.7372    0.1260 H         1 <0>         0.0748
@<TRIPOS>BOND
     1    1    2 1
     2    1   25 1
     3    1   26 1
     4    1   27 1
     5    2   10 1
     6    2    3 2
     7    3    4 1
     8    3   21 1
     9    4    9 ar
    10    4    5 ar
    11    5    6 ar
    12    5   28 1
    13    6    7 ar
    14    6   20 1
    15    7    8 ar
    16    7   29 1
    17    8    9 ar
    18    8   30 1
    19    9   10 1
    20   10   11 2
    21   11   12 1
    22   11   31 1
    23   12   17 ar
    24   12   13 ar
    25   13   14 ar
    26   13   32 1
    27   14   15 ar
    28   14   33 1
    29   15   16 ar
    30   15   18 1
    31   16   17 ar
    32   16   34 1
    33   17   35 1
    34   18   19 1
    35   19   36 1
    36   19   37 1
    37   19   38 1
    38   21   22 1
    39   21   39 1
    40   21   40 1
    41   22   23 2
    42   22   24 1
@<TRIPOS>MOLECULE
ZINC13650343
   26    26     0     0     0
SMALL
USER_CHARGES
2-methyl-1-(2,4,6-trihydroxyphenyl)propan-1-one
@<TRIPOS>ATOM
      1 C1         -4.1878   -0.1428   -1.0868 C.3       1 <0>        -0.1436
      2 C2         -3.2165    1.0239   -1.2773 C.3       1 <0>        -0.1265
      3 C3         -3.9937    2.2695   -1.7079 C.3       1 <0>        -0.1412
      4 C4         -2.5032    1.3008    0.0210 C.2       1 <0>         0.4212
      5 O1         -3.0405    1.0370    1.0769 O.2       1 <0>        -0.4314
      6 C5         -1.1645    1.8868    0.0086 C.ar      1 <0>        -0.2204
      7 C6         -0.0330    1.0650   -0.1522 C.ar      1 <0>         0.1725
      8 C7          1.2284    1.6293   -0.1682 C.ar      1 <0>        -0.1815
      9 C8          1.3821    3.0023   -0.0210 C.ar      1 <0>         0.1582
     10 C9          0.2718    3.8212    0.1441 C.ar      1 <0>        -0.1802
     11 C10        -0.9979    3.2759    0.1633 C.ar      1 <0>         0.1735
     12 O2         -2.0801    4.0771    0.3245 O.3       1 <0>        -0.4853
     13 O3          2.6246    3.5470   -0.0380 O.3       1 <0>        -0.4915
     14 O4         -0.1806   -0.2753   -0.2966 O.3       1 <0>        -0.4902
     15 H1         -4.9176    0.1137   -0.3188 H         1 <0>         0.0664
     16 H2         -4.7038   -0.3430   -2.0259 H         1 <0>         0.0666
     17 H3         -3.6341   -1.0301   -0.7801 H         1 <0>         0.0595
     18 H4         -2.5470    0.7886   -1.9819 H         1 <0>         0.0892
     19 H5         -4.5097    2.0693   -2.6469 H         1 <0>         0.0741
     20 H6         -4.7234    2.5259   -0.9399 H         1 <0>         0.0662
     21 H7         -3.3017    3.1007   -1.8436 H         1 <0>         0.0541
     22 H8          2.0975    1.0011   -0.2960 H         1 <0>         0.1463
     23 H9          0.4015    4.8873    0.2581 H         1 <0>         0.1465
     24 H10        -2.4502    4.4097   -0.5047 H         1 <0>         0.3955
     25 H11         2.9288    3.8051   -0.9189 H         1 <0>         0.3998
     26 H12        -0.1673   -0.7646    0.5374 H         1 <0>         0.4019
@<TRIPOS>BOND
     1    1    2 1
     2    1   15 1
     3    1   16 1
     4    1   17 1
     5    2    3 1
     6    2    4 1
     7    2   18 1
     8    3   19 1
     9    3   20 1
    10    3   21 1
    11    4    5 2
    12    4    6 1
    13    6   11 ar
    14    6    7 ar
    15    7    8 ar
    16    7   14 1
    17    8    9 ar
    18    8   22 1
    19    9   10 ar
    20    9   13 1
    21   10   11 ar
    22   10   23 1
    23   11   12 1
    24   12   24 1
    25   13   25 1
    26   14   26 1
@<TRIPOS>MOLECULE
ZINC00119985
   35    37     0     0     0
SMALL
USER_CHARGES

@<TRIPOS>ATOM
      1 C1         -0.0167    1.3779    0.0096 C.ar      1 <0>        -0.0867
      2 C2          1.1696    2.0886    0.0021 C.ar      1 <0>        -0.1323
      3 C3          2.3802    1.4154   -0.0130 C.ar      1 <0>         0.0885
      4 C4          2.3990    0.0236   -0.0206 C.ar      1 <0>         0.0807
      5 C5          1.2071   -0.6822   -0.0130 C.ar      1 <0>        -0.0990
      6 C6          0.0021   -0.0041    0.0020 C.ar      1 <0>        -0.0707
      7 C7         -1.2936   -0.7736    0.0102 C.3       1 <0>         0.1435
      8 H1         -1.1201   -1.7884   -0.3479 H         1 <0>         0.0926
      9 C8         -1.8590   -0.8183    1.4356 C.3       1 <0>         0.0823
     10 H2         -2.1191    0.1894    1.7595 H         1 <0>         0.0731
     11 C9         -3.1120   -1.6975    1.4281 C.3       1 <0>        -0.1021
     12 C10        -4.0118   -1.2895    0.2891 C.ar      1 <0>        -0.1942
     13 C11        -5.3448   -1.6839    0.3168 C.ar      1 <0>         0.1598
     14 C12        -6.1992   -1.3308   -0.7146 C.ar      1 <0>        -0.1989
     15 C13        -5.7231   -0.5806   -1.7796 C.ar      1 <0>         0.1590
     16 C14        -4.3960   -0.1855   -1.8071 C.ar      1 <0>        -0.1806
     17 C15        -3.5373   -0.5380   -0.7709 C.ar      1 <0>         0.1614
     18 O1         -2.2452   -0.1223   -0.8323 O.3       1 <0>        -0.2944
     19 O2         -6.5574   -0.2342   -2.7948 O.3       1 <0>        -0.4914
     20 O3         -5.8113   -2.4194    1.3600 O.3       1 <0>        -0.4904
     21 O4         -0.8856   -1.3731    2.3226 O.3       1 <0>        -0.5492
     22 O5          3.5850   -0.6417   -0.0359 O.3       1 <0>        -0.4860
     23 O6          3.5476    2.1129   -0.0209 O.3       1 <0>        -0.4876
     24 H3         -0.9598    1.9038    0.0259 H         1 <0>         0.1324
     25 H4          1.1522    3.1684    0.0077 H         1 <0>         0.1364
     26 H5          1.2190   -1.7621   -0.0189 H         1 <0>         0.1358
     27 H6         -2.8221   -2.7410    1.3054 H         1 <0>         0.0925
     28 H7         -3.6445   -1.5781    2.3716 H         1 <0>         0.0873
     29 H8         -7.2339   -1.6393   -0.6898 H         1 <0>         0.1400
     30 H9         -4.0260    0.3985   -2.6368 H         1 <0>         0.1432
     31 H10        -7.0114    0.6089   -2.6604 H         1 <0>         0.3973
     32 H11        -6.1571   -1.8895    2.0913 H         1 <0>         0.3941
     33 H12        -1.1790   -1.4304    3.2423 H         1 <0>         0.3861
     34 H13         3.9367   -0.8389    0.8430 H         1 <0>         0.3885
     35 H14         3.8938    2.3101    0.8602 H         1 <0>         0.3890
@<TRIPOS>BOND
     1    1    6 ar
     2    1    2 ar
     3    1   24 1
     4    2    3 ar
     5    2   25 1
     6    3    4 ar
     7    3   23 1
     8    4    5 ar
     9    4   22 1
    10    5    6 ar
    11    5   26 1
    12    6    7 1
    13    7    8 1
    14    7   18 1
    15    7    9 1
    16    9   10 1
    17    9   11 1
    18    9   21 1
    19   11   12 1
    20   11   27 1
    21   11   28 1
    22   12   17 ar
    23   12   13 ar
    24   13   14 ar
    25   13   20 1
    26   14   15 ar
    27   14   29 1
    28   15   16 ar
    29   15   19 1
    30   16   17 ar
    31   16   30 1
    32   17   18 1
    33   19   31 1
    34   20   32 1
    35   21   33 1
    36   22   34 1
    37   23   35 1
@<TRIPOS>MOLECULE
ZINC20374281
   32    33     0     0     0
SMALL
USER_CHARGES

@<TRIPOS>ATOM
      1 C1          1.1432    0.9569   -0.3422 C.3       1 <0>         0.0780
      2 N1          0.0551    0.0273   -0.0295 N.pl3     1 <0>        -0.9445
      3 C2         -0.0528   -0.5173    1.2557 C.ar      1 <0>         0.0804
      4 C3          0.1861   -1.8700    1.4589 C.ar      1 <0>        -0.0750
      5 C4          0.0793   -2.4073    2.7265 C.ar      1 <0>        -0.1817
      6 C5         -0.2666   -1.5947    3.7981 C.ar      1 <0>         0.2210
      7 C6         -0.5051   -0.2419    3.5950 C.ar      1 <0>        -0.1837
      8 C7         -0.3931    0.2964    2.3282 C.ar      1 <0>        -0.0606
      9 N2         -0.3754   -2.1395    5.0832 N.pl3     1 <0>        -0.8766
     10 S1         -1.0474   -0.3795   -1.1963 S.o2      1 <0>         2.6868
     11 O1         -2.1702   -0.9288   -0.5204 O.2       1 <0>        -0.9384
     12 O2         -1.1535    0.7414   -2.0632 O.2       1 <0>        -0.9477
     13 C8         -0.3428   -1.6857   -2.1461 C.ar      1 <0>        -0.6773
     14 C9          0.5404   -1.3971   -3.1696 C.ar      1 <0>        -0.0066
     15 C10         1.0934   -2.4212   -3.9150 C.ar      1 <0>        -0.1306
     16 C11         0.7629   -3.7355   -3.6366 C.ar      1 <0>         0.0177
     17 C12        -0.1212   -4.0238   -2.6121 C.ar      1 <0>        -0.1305
     18 C13        -0.6692   -2.9990   -1.8638 C.ar      1 <0>        -0.0080
     19 Cl1         1.4566   -5.0224   -4.5727 Cl        1 <0>        -0.0515
     20 H1          2.0059    0.3979   -0.7046 H         1 <0>         0.0604
     21 H2          0.8142    1.6560   -1.1111 H         1 <0>         0.0871
     22 H3          1.4192    1.5087    0.5564 H         1 <0>         0.0833
     23 H4          0.4551   -2.5020    0.6254 H         1 <0>         0.1218
     24 H5          0.2644   -3.4595    2.8844 H         1 <0>         0.1268
     25 H6         -0.7741    0.3901    4.4284 H         1 <0>         0.1273
     26 H7         -0.5747    1.3493    2.1709 H         1 <0>         0.1284
     27 H8         -0.2091   -3.0845    5.2250 H         1 <0>         0.3998
     28 H9         -0.6170   -1.5718    5.8317 H         1 <0>         0.4001
     29 H10         0.7981   -0.3710   -3.3871 H         1 <0>         0.1487
     30 H11         1.7832   -2.1956   -4.7148 H         1 <0>         0.1460
     31 H12        -0.3798   -5.0495   -2.3945 H         1 <0>         0.1462
     32 H13        -1.3556   -3.2242   -1.0610 H         1 <0>         0.1527
@<TRIPOS>BOND
     1    1    2 1
     2    1   20 1
     3    1   21 1
     4    1   22 1
     5    2    3 1
     6    2   10 1
     7    3    8 ar
     8    3    4 ar
     9    4    5 ar
    10    4   23 1
    11    5    6 ar
    12    5   24 1
    13    6    7 ar
    14    6    9 1
    15    7    8 ar
    16    7   25 1
    17    8   26 1
    18    9   27 1
    19    9   28 1
    20   10   11 2
    21   10   12 2
    22   10   13 1
    23   13   18 ar
    24   13   14 ar
    25   14   15 ar
    26   14   29 1
    27   15   16 ar
    28   15   30 1
    29   16   17 ar
    30   16   19 1
    31   17   18 ar
    32   17   31 1
    33   18   32 1
@<TRIPOS>MOLECULE
ZINC11757504
   32    33     0     0     0
SMALL
USER_CHARGES

@<TRIPOS>ATOM
      1 C1          1.1499    0.9514   -0.3475 C.3       1 <0>         0.0784
      2 N1          0.0576    0.0279   -0.0310 N.pl3     1 <0>        -0.9564
      3 C2         -0.0491   -0.5144    1.2525 C.ar      1 <0>         0.1532
      4 C3          0.1890   -1.8672    1.4582 C.ar      1 <0>        -0.1141
      5 C4          0.0834   -2.4004    2.7278 C.ar      1 <0>        -0.0928
      6 C5         -0.2597   -1.5883    3.7944 C.ar      1 <0>        -0.0346
      7 C6         -0.4975   -0.2401    3.5924 C.ar      1 <0>        -0.0950
      8 C7         -0.3877    0.2996    2.3259 C.ar      1 <0>        -0.1022
      9 Cl1        -0.3927   -2.2621    5.3888 Cl        1 <0>        -0.0637
     10 S1         -1.0508   -0.3733   -1.1941 S.o2      1 <0>         2.6892
     11 O1         -2.1733   -0.9186   -0.5145 O.2       1 <0>        -0.9462
     12 O2         -1.1554    0.7487   -2.0597 O.2       1 <0>        -0.9510
     13 C8         -0.3550   -1.6816   -2.1475 C.ar      1 <0>        -0.7351
     14 C9          0.5270   -1.3943   -3.1730 C.ar      1 <0>         0.0291
     15 C10         1.0742   -2.4173   -3.9222 C.ar      1 <0>        -0.2168
     16 C11         0.7376   -3.7362   -3.6446 C.ar      1 <0>         0.2706
     17 C12        -0.1488   -4.0212   -2.6137 C.ar      1 <0>        -0.2164
     18 C13        -0.6879   -2.9937   -1.8648 C.ar      1 <0>         0.0266
     19 N2          1.2888   -4.7732   -4.4007 N.pl3     1 <0>        -0.8648
     20 H1          2.0083    0.3874   -0.7123 H         1 <0>         0.0634
     21 H2          0.8223    1.6519   -1.1157 H         1 <0>         0.0900
     22 H3          1.4317    1.5021    0.5499 H         1 <0>         0.0826
     23 H4          0.4561   -2.5017    0.6260 H         1 <0>         0.1348
     24 H5          0.2684   -3.4523    2.8883 H         1 <0>         0.1406
     25 H6         -0.7651    0.3915    4.4266 H         1 <0>         0.1411
     26 H7         -0.5690    1.3527    2.1695 H         1 <0>         0.1391
     27 H8          0.7881   -0.3687   -3.3885 H         1 <0>         0.1372
     28 H9          1.7628   -2.1922   -4.7232 H         1 <0>         0.1316
     29 H10        -0.4129   -5.0455   -2.3956 H         1 <0>         0.1320
     30 H11        -1.3737   -3.2149   -1.0603 H         1 <0>         0.1413
     31 H12         1.9074   -4.5729   -5.1205 H         1 <0>         0.4041
     32 H13         1.0530   -5.6937   -4.2059 H         1 <0>         0.4042
@<TRIPOS>BOND
     1    1    2 1
     2    1   20 1
     3    1   21 1
     4    1   22 1
     5    2    3 1
     6    2   10 1
     7    3    8 ar
     8    3    4 ar
     9    4    5 ar
    10    4   23 1
    11    5    6 ar
    12    5   24 1
    13    6    7 ar
    14    6    9 1
    15    7    8 ar
    16    7   25 1
    17    8   26 1
    18   10   11 2
    19   10   12 2
    20   10   13 1
    21   13   18 ar
    22   13   14 ar
    23   14   15 ar
    24   14   27 1
    25   15   16 ar
    26   15   28 1
    27   16   17 ar
    28   16   19 1
    29   17   18 ar
    30   17   29 1
    31   18   30 1
    32   19   31 1
    33   19   32 1
@<TRIPOS>MOLECULE
ZINC00002028
   14    14     0     0     0
SMALL
USER_CHARGES

@<TRIPOS>ATOM
      1 C1         -0.0167    1.3775    0.0096 C.ar      1 <0>        -0.0860
      2 C2          1.1691    2.0869    0.0021 C.ar      1 <0>        -0.1556
      3 C3          2.3821    1.4130   -0.0131 C.ar      1 <0>         0.1220
      4 C4          2.4035    0.0268   -0.0207 C.ar      1 <0>        -0.1743
      5 C5          1.2125   -0.6826   -0.0131 C.ar      1 <0>         0.1220
      6 C6          0.0021   -0.0041    0.0020 C.ar      1 <0>        -0.1556
      7 O1          1.2303   -2.0415   -0.0210 O.3       1 <0>        -0.4973
      8 O2          3.5479    2.1112   -0.0209 O.3       1 <0>        -0.4972
      9 H1         -0.9596    1.9038    0.0259 H         1 <0>         0.1338
     10 H2          1.1518    3.1668    0.0077 H         1 <0>         0.1327
     11 H3          3.3465   -0.4995   -0.0328 H         1 <0>         0.1354
     12 H4         -0.9260   -0.5563    0.0079 H         1 <0>         0.1327
     13 H5          1.2440   -2.4398    0.8601 H         1 <0>         0.3937
     14 H6          3.8939    2.3088    0.8602 H         1 <0>         0.3937
@<TRIPOS>BOND
     1    1    6 ar
     2    1    2 ar
     3    1    9 1
     4    2    3 ar
     5    2   10 1
     6    3    4 ar
     7    3    8 1
     8    4    5 ar
     9    4   11 1
    10    5    6 ar
    11    5    7 1
    12    6   12 1
    13    7   13 1
    14    8   14 1
@<TRIPOS>MOLECULE
ZINC00000053
   20    20     0     0     0
SMALL
USER_CHARGES

@<TRIPOS>ATOM
      1 C1         -1.4238    1.4221    1.2577 C.3       1 <0>        -0.1370
      2 C2         -1.3441   -0.0813    1.1904 C.2       1 <0>         0.4790
      3 O1         -1.4532   -0.7378    2.1988 O.2       1 <0>        -0.5137
      4 O2         -1.1519   -0.6914    0.0093 O.3       1 <0>        -0.2785
      5 C3         -0.9822   -2.0375    0.0080 C.ar      1 <0>         0.1140
      6 C4          0.2935   -2.5790    0.0577 C.ar      1 <0>        -0.1438
      7 C5          0.4647   -3.9491    0.0557 C.ar      1 <0>        -0.1168
      8 C6         -0.6330   -4.7933    0.0047 C.ar      1 <0>        -0.1375
      9 C7         -1.9078   -4.2739   -0.0447 C.ar      1 <0>        -0.0755
     10 C8         -2.0966   -2.8882   -0.0379 C.ar      1 <0>        -0.1363
     11 C9         -3.4564   -2.3257   -0.0844 C.2       1 <0>         0.5228
     12 O3         -4.4256   -3.0711   -0.1243 O.co2     1 <0>        -0.6853
     13 O4         -3.6170   -1.1130   -0.0830 O.co2     1 <0>        -0.6764
     14 H1         -1.5815    1.7317    2.2908 H         1 <0>         0.0951
     15 H2         -0.4932    1.8522    0.8875 H         1 <0>         0.0914
     16 H3         -2.2544    1.7698    0.6434 H         1 <0>         0.1039
     17 H4          1.1543   -1.9280    0.0976 H         1 <0>         0.1207
     18 H5          1.4605   -4.3654    0.0938 H         1 <0>         0.1210
     19 H6         -0.4882   -5.8635    0.0032 H         1 <0>         0.1200
     20 H7         -2.7604   -4.9357   -0.0844 H         1 <0>         0.1328
@<TRIPOS>BOND
     1    1    2 1
     2    1   14 1
     3    1   15 1
     4    1   16 1
     5    2    3 2
     6    2    4 1
     7    4    5 1
     8    5   10 ar
     9    5    6 ar
    10    6    7 ar
    11    6   17 1
    12    7    8 ar
    13    7   18 1
    14    8    9 ar
    15    8   19 1
    16    9   10 ar
    17    9   20 1
    18   10   11 1
    19   11   12 2
    20   11   13 1
@<TRIPOS>MOLECULE
ZINC29038894
   34    35     0     0     0
SMALL
USER_CHARGES
1-(4-methylsulfonylphenyl)-3-phenyl-urea
@<TRIPOS>ATOM
      1 C1         -6.3663    4.1590   -4.1709 C.3       1 <0>        -0.6540
      2 S1         -6.4491    4.4252   -2.3785 S.o2      1 <0>         2.5026
      3 O1         -7.3497    3.4987   -1.7871 O.2       1 <0>        -0.9393
      4 O2         -6.5479    5.8140   -2.0940 O.2       1 <0>        -0.9380
      5 C2         -4.8611    3.9550   -1.7771 C.ar      1 <0>        -0.6810
      6 C3         -3.8501    4.8945   -1.6905 C.ar      1 <0>        -0.0007
      7 C4         -2.6045    4.5293   -1.2187 C.ar      1 <0>        -0.1466
      8 C5         -2.3678    3.2169   -0.8313 C.ar      1 <0>         0.2281
      9 C6         -3.3835    2.2745   -0.9249 C.ar      1 <0>        -0.1705
     10 C7         -4.6285    2.6473   -1.3922 C.ar      1 <0>        -0.0011
     11 N1         -1.1067    2.8435   -0.3533 N.am      1 <0>        -0.6974
     12 C8         -0.3647    3.7228    0.3486 C.2       1 <0>         0.7067
     13 O3         -0.8277    4.8066    0.6478 O.2       1 <0>        -0.5530
     14 N2          0.8906    3.4009    0.7189 N.am      1 <0>        -0.6920
     15 C9          1.6223    4.2674    1.5386 C.ar      1 <0>         0.1645
     16 C10         3.0006    4.3605    1.3976 C.ar      1 <0>        -0.1474
     17 C11         3.7194    5.2203    2.2050 C.ar      1 <0>        -0.0997
     18 C12         3.0691    5.9804    3.1597 C.ar      1 <0>        -0.1358
     19 C13         1.6973    5.8857    3.3064 C.ar      1 <0>        -0.0987
     20 C14         0.9723    5.0318    2.4986 C.ar      1 <0>        -0.1234
     21 H1         -5.6668    4.8813   -4.6169 H         1 <0>         0.1329
     22 H2         -7.3658    4.2981   -4.6088 H         1 <0>         0.1341
     23 H3         -6.0161    3.1362   -4.3739 H         1 <0>         0.1321
     24 H4         -4.0349    5.9150   -1.9919 H         1 <0>         0.1453
     25 H5         -1.8156    5.2637   -1.1506 H         1 <0>         0.1451
     26 H6         -3.2013    1.2521   -0.6283 H         1 <0>         0.1366
     27 H7         -5.4202    1.9160   -1.4606 H         1 <0>         0.1465
     28 H8         -0.7211    1.8324   -0.5504 H         1 <0>         0.4359
     29 H9          1.3400    2.4570    0.3768 H         1 <0>         0.4317
     30 H10         3.5096    3.7643    0.6547 H         1 <0>         0.1251
     31 H11         4.7909    5.2962    2.0931 H         1 <0>         0.1269
     32 H12         3.6338    6.6491    3.7924 H         1 <0>         0.1241
     33 H13         1.1924    6.4804    4.0533 H         1 <0>         0.1261
     34 H14        -0.0991    4.9583    2.6137 H         1 <0>         0.1342
@<TRIPOS>BOND
     1    1    2 1
     2    1   21 1
     3    1   22 1
     4    1   23 1
     5    2    3 2
     6    2    4 2
     7    2    5 1
     8    5   10 ar
     9    5    6 ar
    10    6    7 ar
    11    6   24 1
    12    7    8 ar
    13    7   25 1
    14    8    9 ar
    15    8   11 1
    16    9   10 ar
    17    9   26 1
    18   10   27 1
    19   11   12 am
    20   11   28 1
    21   12   13 2
    22   12   14 am
    23   14   15 1
    24   14   29 1
    25   15   20 ar
    26   15   16 ar
    27   16   17 ar
    28   16   30 1
    29   17   18 ar
    30   17   31 1
    31   18   19 ar
    32   18   32 1
    33   19   20 ar
    34   19   33 1
    35   20   34 1
@<TRIPOS>MOLECULE
ZINC01845036
   26    27     0     0     0
SMALL
USER_CHARGES
1-[3-(trifluoromethyl)phenyl]-4,5-dihydropyrazol-3-amine
@<TRIPOS>ATOM
      1 C1          1.1769    1.7819    0.0004 C.ar      1 <0>        -0.0722
      2 C2         -0.0126    1.0758    0.0080 C.ar      1 <0>        -0.1293
      3 C3         -1.2205    1.7491    0.0173 C.ar      1 <0>        -0.1395
      4 C4         -1.2433    3.1298    0.0298 C.ar      1 <0>        -0.1202
      5 C5         -0.0501    3.8429    0.0218 C.ar      1 <0>         0.2468
      6 C6          1.1623    3.1623    0.0070 C.ar      1 <0>        -0.1621
      7 N1         -0.0690    5.2369    0.0281 N.pl3     1 <0>        -0.4689
      8 C7          1.1160    6.1097    0.0204 C.3       1 <0>         0.0893
      9 C8          0.5165    7.5300    0.0318 C.3       1 <0>        -0.1304
     10 C9         -0.9769    7.2939    0.0451 C.2       1 <0>         0.3283
     11 N2         -1.2130    6.0324    0.0366 N.2       1 <0>        -0.3279
     12 N3         -1.9433    8.2881    0.0583 N.pl3     1 <0>        -0.8296
     13 C10        -2.5135    0.9751    0.0192 C.3       1 <0>         0.5086
     14 F1         -2.2361   -0.3961    0.0105 F         1 <0>        -0.1765
     15 F2         -3.2469    1.2952    1.1668 F         1 <0>        -0.1763
     16 F3         -3.2577    1.3076   -1.1177 F         1 <0>        -0.1762
     17 H1          2.1183    1.2526   -0.0111 H         1 <0>         0.1373
     18 H2          0.0021   -0.0041    0.0020 H         1 <0>         0.1367
     19 H3         -2.1870    3.6549    0.0409 H         1 <0>         0.1395
     20 H4          2.0914    3.7129    0.0004 H         1 <0>         0.1299
     21 H5          1.7223    5.9417    0.9105 H         1 <0>         0.0817
     22 H6          1.7067    5.9470   -0.8812 H         1 <0>         0.0816
     23 H7          0.8265    8.0687    0.9272 H         1 <0>         0.1030
     24 H8          0.8095    8.0760   -0.8649 H         1 <0>         0.1031
     25 H9         -1.6790    9.2214    0.0596 H         1 <0>         0.4138
     26 H10        -2.8836    8.0502    0.0663 H         1 <0>         0.4097
@<TRIPOS>BOND
     1    1    6 ar
     2    1    2 ar
     3    1   17 1
     4    2    3 ar
     5    2   18 1
     6    3    4 ar
     7    3   13 1
     8    4    5 ar
     9    4   19 1
    10    5    6 ar
    11    5    7 1
    12    6   20 1
    13    7   11 1
    14    7    8 1
    15    8    9 1
    16    8   21 1
    17    8   22 1
    18    9   10 1
    19    9   23 1
    20    9   24 1
    21   10   11 2
    22   10   12 1
    23   12   25 1
    24   12   26 1
    25   13   14 1
    26   13   15 1
    27   13   16 1
@<TRIPOS>MOLECULE
ZINC00001427
   32    33     0     0     0
SMALL
USER_CHARGES

@<TRIPOS>ATOM
      1 C1         -0.0167    1.3792    0.0096 C.ar      1 <0>        -0.1200
      2 C2          1.1686    2.0925    0.0021 C.ar      1 <0>        -0.1196
      3 C3          2.3774    1.4271   -0.0129 C.ar      1 <0>        -0.1091
      4 C4          2.4026    0.0331   -0.0206 C.ar      1 <0>        -0.0462
      5 C5          1.2048   -0.6804   -0.0130 C.ar      1 <0>        -0.1079
      6 C6          0.0021   -0.0041    0.0020 C.ar      1 <0>        -0.1188
      7 C7          3.6979   -0.6876   -0.0373 C.ar      1 <0>        -0.0261
      8 C8          4.8947    0.0304   -0.0395 C.ar      1 <0>        -0.1260
      9 C9          6.0939   -0.6339   -0.0545 C.ar      1 <0>        -0.0633
     10 C10         6.1173   -2.0337   -0.0675 C.ar      1 <0>        -0.1588
     11 C11         4.9154   -2.7517   -0.0653 C.ar      1 <0>        -0.0657
     12 C12         3.7187   -2.0831   -0.0449 C.ar      1 <0>        -0.1235
     13 C13         7.4017   -2.7483   -0.0841 C.2       1 <0>         0.3884
     14 O1          8.4422   -2.1253   -0.0864 O.2       1 <0>        -0.4572
     15 C14         7.4255   -4.2551   -0.0981 C.3       1 <0>        -0.1380
     16 C15         8.8758   -4.7421   -0.1138 C.3       1 <0>        -0.1742
     17 C16         8.8997   -6.2488   -0.1279 C.2       1 <0>         0.4906
     18 O2          7.8536   -6.8751   -0.1256 O.co2     1 <0>        -0.7010
     19 O3          9.9650   -6.8416   -0.1416 O.co2     1 <0>        -0.7030
     20 H1         -0.9603    1.9042    0.0260 H         1 <0>         0.1216
     21 H2          1.1478    3.1723    0.0077 H         1 <0>         0.1235
     22 H3          3.3021    1.9850   -0.0191 H         1 <0>         0.1263
     23 H4          1.2182   -1.7603   -0.0193 H         1 <0>         0.1282
     24 H5         -0.9264   -0.5557    0.0079 H         1 <0>         0.1243
     25 H6          4.8762    1.1102   -0.0298 H         1 <0>         0.1282
     26 H7          7.0197   -0.0779   -0.0565 H         1 <0>         0.1343
     27 H8          4.9310   -3.8316   -0.0757 H         1 <0>         0.1424
     28 H9          2.7914   -2.6366   -0.0387 H         1 <0>         0.1309
     29 H10         6.9244   -4.6347    0.7923 H         1 <0>         0.0978
     30 H11         6.9106   -4.6183   -0.9875 H         1 <0>         0.0979
     31 H12         9.3770   -4.3624   -1.0043 H         1 <0>         0.0620
     32 H13         9.3908   -4.3788    0.7756 H         1 <0>         0.0620
@<TRIPOS>BOND
     1    1    6 ar
     2    1    2 ar
     3    1   20 1
     4    2    3 ar
     5    2   21 1
     6    3    4 ar
     7    3   22 1
     8    4    5 ar
     9    4    7 1
    10    5    6 ar
    11    5   23 1
    12    6   24 1
    13    7   12 ar
    14    7    8 ar
    15    8    9 ar
    16    8   25 1
    17    9   10 ar
    18    9   26 1
    19   10   11 ar
    20   10   13 1
    21   11   12 ar
    22   11   27 1
    23   12   28 1
    24   13   14 2
    25   13   15 1
    26   15   16 1
    27   15   29 1
    28   15   30 1
    29   16   17 1
    30   16   31 1
    31   16   32 1
    32   17   18 2
    33   17   19 1
@<TRIPOS>MOLECULE
ZINC13441192
   52    54     0     0     0
SMALL
USER_CHARGES
2-[1-(4-chlorobenzoyl)-5-methoxy-2-methyl-indol-3-yl]-N-[(1S)-2-hydroxy-1-methyl-ethyl]acetamide
@<TRIPOS>ATOM
      1 C1         -1.1917   -3.5174   -0.0105 C.3       1 <0>        -0.1021
      2 C2         -0.4251   -2.2200   -0.0079 C.2       1 <0>         0.1169
      3 C3          0.9111   -2.1155   -0.0196 C.2       1 <0>        -0.1387
      4 C4          1.2335   -0.6844   -0.0124 C.ar      1 <0>        -0.0358
      5 C5          2.4278    0.0377   -0.0180 C.ar      1 <0>        -0.1099
      6 C6          2.3906    1.4188   -0.0075 C.ar      1 <0>         0.1115
      7 C7          1.1697    2.0871    0.0078 C.ar      1 <0>        -0.1756
      8 C8         -0.0148    1.3830    0.0138 C.ar      1 <0>        -0.0835
      9 C9          0.0028   -0.0062    0.0038 C.ar      1 <0>         0.0770
     10 N1         -0.9920   -0.9688    0.0062 N.am      1 <0>        -0.5050
     11 C10        -2.3159   -0.7166    0.0210 C.2       1 <0>         0.6027
     12 O1         -2.9060   -0.5062   -1.0203 O.2       1 <0>        -0.4284
     13 C11        -3.0493   -0.6961    1.3024 C.ar      1 <0>        -0.1658
     14 C12        -2.3586   -0.8381    2.5081 C.ar      1 <0>        -0.0419
     15 C13        -3.0484   -0.8123    3.7016 C.ar      1 <0>        -0.1205
     16 C14        -4.4250   -0.6575    3.7060 C.ar      1 <0>         0.0038
     17 C15        -5.1164   -0.5219    2.5133 C.ar      1 <0>        -0.1235
     18 C16        -4.4373   -0.5403    1.3135 C.ar      1 <0>        -0.0383
     19 Cl1        -5.2872   -0.6327    5.2125 Cl        1 <0>        -0.0525
     20 O2          3.5508    2.1277   -0.0124 O.3       1 <0>        -0.3169
     21 C17         3.4406    3.5524   -0.0009 C.3       1 <0>         0.0272
     22 C18         1.8975   -3.2547   -0.0373 C.3       1 <0>        -0.0662
     23 C19         2.2400   -3.6446    1.3776 C.2       1 <0>         0.5138
     24 O3          1.7330   -3.0554    2.3086 O.2       1 <0>        -0.5281
     25 N2          3.1097   -4.6480    1.6083 N.am      1 <0>        -0.7260
     26 C20         3.4426   -5.0271    2.9837 C.3       1 <0>         0.1447
     27 H1          3.4540   -4.1373    3.6131 H         1 <0>         0.0980
     28 C21         2.3950   -6.0104    3.5095 C.3       1 <0>        -0.1588
     29 C22         4.8219   -5.6886    3.0107 C.3       1 <0>         0.0662
     30 O4          4.7758   -6.9163    2.2808 O.3       1 <0>        -0.5705
     31 H2         -1.3670   -3.8379    1.0165 H         1 <0>         0.0859
     32 H3         -2.1475   -3.3737   -0.5144 H         1 <0>         0.0686
     33 H4         -0.6151   -4.2791   -0.5354 H         1 <0>         0.0917
     34 H5          3.3755   -0.4800   -0.0309 H         1 <0>         0.1321
     35 H6          1.1506    3.1669    0.0156 H         1 <0>         0.1352
     36 H7         -0.9568    1.9111    0.0218 H         1 <0>         0.1222
     37 H8         -1.2859   -0.9634    2.5056 H         1 <0>         0.1447
     38 H9         -2.5150   -0.9175    4.6347 H         1 <0>         0.1450
     39 H10        -6.1896   -0.4012    2.5233 H         1 <0>         0.1462
     40 H11        -4.9774   -0.4342    0.3843 H         1 <0>         0.1475
     41 H12         2.8926    3.8816   -0.8837 H         1 <0>         0.0552
     42 H13         2.9081    3.8684    0.8961 H         1 <0>         0.0551
     43 H14         4.4372    3.9939   -0.0064 H         1 <0>         0.1003
     44 H15         1.4576   -4.1082   -0.5530 H         1 <0>         0.1030
     45 H16         2.8032   -2.9431   -0.5576 H         1 <0>         0.1047
     46 H17         3.5151   -5.1192    0.8637 H         1 <0>         0.4044
     47 H18         2.3836   -6.9002    2.8800 H         1 <0>         0.0663
     48 H19         2.6427   -6.2924    4.5328 H         1 <0>         0.0619
     49 H20         1.4123   -5.5391    3.4903 H         1 <0>         0.0585
     50 H21         5.5536   -5.0219    2.5544 H         1 <0>         0.0534
     51 H22         5.1081   -5.8901    4.0430 H         1 <0>         0.0614
     52 H23         5.6179   -7.3910    2.2560 H         1 <0>         0.3834
@<TRIPOS>BOND
     1    1    2 1
     2    1   31 1
     3    1   32 1
     4    1   33 1
     5    2   10 1
     6    2    3 2
     7    3    4 1
     8    3   22 1
     9    4    9 ar
    10    4    5 ar
    11    5    6 ar
    12    5   34 1
    13    6    7 ar
    14    6   20 1
    15    7    8 ar
    16    7   35 1
    17    8    9 ar
    18    8   36 1
    19    9   10 1
    20   10   11 am
    21   11   12 2
    22   11   13 1
    23   13   18 ar
    24   13   14 ar
    25   14   15 ar
    26   14   37 1
    27   15   16 ar
    28   15   38 1
    29   16   17 ar
    30   16   19 1
    31   17   18 ar
    32   17   39 1
    33   18   40 1
    34   20   21 1
    35   21   41 1
    36   21   42 1
    37   21   43 1
    38   22   23 1
    39   22   44 1
    40   22   45 1
    41   23   24 2
    42   23   25 am
    43   25   26 1
    44   25   46 1
    45   26   27 1
    46   26   28 1
    47   26   29 1
    48   28   47 1
    49   28   48 1
    50   28   49 1
    51   29   30 1
    52   29   50 1
    53   29   51 1
    54   30   52 1
@<TRIPOS>MOLECULE
ZINC00000361
   30    31     0     0     0
SMALL
USER_CHARGES
(2S)-2-(4-phenylphenyl)propanoic acid
@<TRIPOS>ATOM
      1 C1         -1.4284    2.8250   -1.2251 C.3       1 <0>        -0.1189
      2 C2         -1.3295    1.9397    0.0189 C.3       1 <0>        -0.1086
      3 H1         -1.3915    2.5607    0.9126 H         1 <0>         0.0772
      4 C3         -2.4615    0.9450    0.0189 C.ar      1 <0>        -0.0255
      5 C4         -2.5915    0.0491   -1.0270 C.ar      1 <0>        -0.0825
      6 C5         -3.6236   -0.8673   -1.0297 C.ar      1 <0>        -0.1083
      7 C6         -4.5417   -0.8818    0.0183 C.ar      1 <0>        -0.0779
      8 C7         -4.4090    0.0264    1.0667 C.ar      1 <0>        -0.1102
      9 C8         -3.3701    0.9350    1.0618 C.ar      1 <0>        -0.1264
     10 C9         -5.6569   -1.8607    0.0178 C.ar      1 <0>        -0.0227
     11 C10        -6.5719   -1.8788    1.0685 C.ar      1 <0>        -0.1191
     12 C11        -7.6101   -2.7882    1.0605 C.ar      1 <0>        -0.1182
     13 C12        -7.7371   -3.6876    0.0173 C.ar      1 <0>        -0.1328
     14 C13        -6.8286   -3.6775   -1.0257 C.ar      1 <0>        -0.1174
     15 C14        -5.7896   -2.7690   -1.0305 C.ar      1 <0>        -0.1181
     16 C15        -0.0143    1.2041    0.0087 C.2       1 <0>         0.4690
     17 O1          0.0021   -0.0041    0.0020 O.co2     1 <0>        -0.6295
     18 H2         -2.3797    3.3571   -1.2177 H         1 <0>         0.0430
     19 H3         -0.6096    3.5445   -1.2251 H         1 <0>         0.0643
     20 H4         -1.3664    2.2040   -2.1188 H         1 <0>         0.0483
     21 H5         -1.8818    0.0640   -1.8408 H         1 <0>         0.1207
     22 H6         -3.7220   -1.5688   -1.8449 H         1 <0>         0.1182
     23 H7         -5.1176    0.0192    1.8817 H         1 <0>         0.1175
     24 H8         -3.2665    1.6396    1.8737 H         1 <0>         0.1181
     25 H9         -6.4713   -1.1797    1.8856 H         1 <0>         0.1241
     26 H10        -8.3223   -2.8004    1.8724 H         1 <0>         0.1198
     27 H11        -8.5483   -4.4005    0.0173 H         1 <0>         0.1178
     28 H12        -6.9322   -4.3822   -1.8375 H         1 <0>         0.1203
     29 H13        -5.0806   -2.7622   -1.8452 H         1 <0>         0.1253
     30 O2          1.1389    1.8910    0.0013 O.co2     1 <0>        -0.7674
@<TRIPOS>BOND
     1    1    2 1
     2    1   18 1
     3    1   19 1
     4    1   20 1
     5    2    3 1
     6    2    4 1
     7    2   16 1
     8    4    9 ar
     9    4    5 ar
    10    5    6 ar
    11    5   21 1
    12    6    7 ar
    13    6   22 1
    14    7    8 ar
    15    7   10 1
    16    8    9 ar
    17    8   23 1
    18    9   24 1
    19   10   15 ar
    20   10   11 ar
    21   11   12 ar
    22   11   25 1
    23   12   13 ar
    24   12   26 1
    25   13   14 ar
    26   13   27 1
    27   14   15 ar
    28   14   28 1
    29   15   29 1
    30   16   17 2
    31   16   30 1
@<TRIPOS>MOLECULE
ZINC02033979
   30    31     0     0     0
SMALL
USER_CHARGES
(2R)-2-(4-phenylphenyl)propanoic acid
@<TRIPOS>ATOM
      1 C1          1.8671    4.1095    1.2551 C.3       1 <0>        -0.1195
      2 C2          1.1434    3.5931    0.0100 C.3       1 <0>        -0.1089
      3 H1          0.0975    3.9339    0.0080 H         1 <0>         0.0776
      4 C3          1.1702    2.0863    0.0021 C.ar      1 <0>        -0.0262
      5 C4         -0.0166    1.3760    0.0096 C.ar      1 <0>        -0.1263
      6 C5          0.0021   -0.0041    0.0020 C.ar      1 <0>        -0.1104
      7 C6          1.2195   -0.6816   -0.0133 C.ar      1 <0>        -0.0778
      8 C7          2.4120    0.0390   -0.0209 C.ar      1 <0>        -0.1087
      9 C8          2.3816    1.4188   -0.0132 C.ar      1 <0>        -0.0820
     10 C9          1.2459   -2.1653   -0.0210 C.ar      1 <0>        -0.0226
     11 C10         0.0535   -2.8860   -0.0072 C.ar      1 <0>        -0.1192
     12 C11         0.0838   -4.2658   -0.0199 C.ar      1 <0>        -0.1182
     13 C12         1.2952   -4.9333   -0.0351 C.ar      1 <0>        -0.1329
     14 C13         2.4821   -4.2229   -0.0435 C.ar      1 <0>        -0.1173
     15 C14         2.4633   -2.8429   -0.0363 C.ar      1 <0>        -0.1181
     16 C15         1.8332    4.1142   -1.2244 C.2       1 <0>         0.4688
     17 O1          2.2988    3.3415   -2.0280 O.co2     1 <0>        -0.6295
     18 O2          1.9303    5.4370   -1.4310 O.co2     1 <0>        -0.7676
     19 H2          1.8475    5.2093    1.2609 H         1 <0>         0.0651
     20 H3          2.9105    3.7614    1.2435 H         1 <0>         0.0490
     21 H4          1.3636    3.7291    2.1561 H         1 <0>         0.0431
     22 H5         -0.9597    1.9022    0.0169 H         1 <0>         0.1181
     23 H6         -0.9252   -0.5577    0.0076 H         1 <0>         0.1175
     24 H7          3.3584   -0.4812   -0.0324 H         1 <0>         0.1181
     25 H8          3.3053    1.9784   -0.0190 H         1 <0>         0.1207
     26 H9         -0.8929   -2.3658    0.0092 H         1 <0>         0.1241
     27 H10        -0.8399   -4.8253   -0.0133 H         1 <0>         0.1198
     28 H11         1.3145   -6.0131   -0.0400 H         1 <0>         0.1178
     29 H12         3.4251   -4.7491   -0.0554 H         1 <0>         0.1203
     30 H13         3.3906   -2.2892   -0.0422 H         1 <0>         0.1253
@<TRIPOS>BOND
     1    1    2 1
     2    1   19 1
     3    1   20 1
     4    1   21 1
     5    2    3 1
     6    2    4 1
     7    2   16 1
     8    4    9 ar
     9    4    5 ar
    10    5    6 ar
    11    5   22 1
    12    6    7 ar
    13    6   23 1
    14    7    8 ar
    15    7   10 1
    16    8    9 ar
    17    8   24 1
    18    9   25 1
    19   10   15 ar
    20   10   11 ar
    21   11   12 ar
    22   11   26 1
    23   12   13 ar
    24   12   27 1
    25   13   14 ar
    26   13   28 1
    27   14   15 ar
    28   14   29 1
    29   15   30 1
    30   16   17 2
    31   16   18 1
@<TRIPOS>MOLECULE
ZINC00397937
   38    40     0     0     0
SMALL
USER_CHARGES
(3-benzoyl-2,4-dihydroxy-phenyl)-phenyl-methanone
@<TRIPOS>ATOM
      1 C1         -2.1085    3.6762   -4.0004 C.ar      1 <0>        -0.0840
      2 C2         -1.6583    2.5812   -4.7167 C.ar      1 <0>        -0.1328
      3 C3         -0.5673    1.8635   -4.2724 C.ar      1 <0>        -0.0594
      4 C4          0.0832    2.2444   -3.0970 C.ar      1 <0>        -0.1619
      5 C5         -0.3799    3.3469   -2.3760 C.ar      1 <0>        -0.0585
      6 C6         -1.4688    4.0588   -2.8345 C.ar      1 <0>        -0.1331
      7 C7          1.2531    1.4801   -2.6148 C.2       1 <0>         0.4539
      8 O1          1.7116    0.5791   -3.2909 O.2       1 <0>        -0.4356
      9 C8          1.8630    1.8095   -1.3164 C.ar      1 <0>        -0.1836
     10 C9          3.0741    2.5112   -1.2683 C.ar      1 <0>        -0.0362
     11 C10         3.6497    2.8224   -0.0581 C.ar      1 <0>        -0.1487
     12 C11         3.0378    2.4445    1.1311 C.ar      1 <0>         0.1747
     13 C12         1.8203    1.7449    1.1052 C.ar      1 <0>        -0.2069
     14 C13         1.2327    1.4209   -0.1257 C.ar      1 <0>         0.1912
     15 O2          0.0621    0.7424   -0.1644 O.3       1 <0>        -0.4840
     16 C14         1.1678    1.3492    2.3632 C.2       1 <0>         0.4580
     17 O3          1.4898    0.3150    2.9162 O.2       1 <0>        -0.4295
     18 C15         0.1206    2.2089    2.9549 C.ar      1 <0>        -0.1607
     19 C16        -0.1705    3.4510    2.3874 C.ar      1 <0>        -0.0677
     20 C17        -1.1527    4.2455    2.9411 C.ar      1 <0>        -0.1309
     21 C18        -1.8410    3.8191    4.0633 C.ar      1 <0>        -0.0849
     22 C19        -1.5536    2.5918    4.6341 C.ar      1 <0>        -0.1302
     23 C20        -0.5778    1.7848    4.0872 C.ar      1 <0>        -0.0589
     24 O4          3.6136    2.7562    2.3168 O.3       1 <0>        -0.4855
     25 H1         -2.9632    4.2346   -4.3527 H         1 <0>         0.1287
     26 H2         -2.1621    2.2879   -5.6259 H         1 <0>         0.1308
     27 H3         -0.2172    1.0089   -4.8322 H         1 <0>         0.1337
     28 H4          0.1157    3.6438   -1.4635 H         1 <0>         0.1265
     29 H5         -1.8258    4.9140   -2.2798 H         1 <0>         0.1296
     30 H6          3.5586    2.8100   -2.1861 H         1 <0>         0.1437
     31 H7          4.5835    3.3645   -0.0320 H         1 <0>         0.1485
     32 H8          0.1652   -0.2187   -0.1903 H         1 <0>         0.4035
     33 H9          0.3691    3.7869    1.5142 H         1 <0>         0.1256
     34 H10        -1.3820    5.2046    2.5005 H         1 <0>         0.1304
     35 H11        -2.6058    4.4473    4.4957 H         1 <0>         0.1294
     36 H12        -2.0948    2.2649    5.5097 H         1 <0>         0.1315
     37 H13        -0.3542    0.8273    4.5339 H         1 <0>         0.1341
     38 H14         3.2817    3.5738    2.7123 H         1 <0>         0.3994
@<TRIPOS>BOND
     1    1    6 ar
     2    1    2 ar
     3    1   25 1
     4    2    3 ar
     5    2   26 1
     6    3    4 ar
     7    3   27 1
     8    4    5 ar
     9    4    7 1
    10    5    6 ar
    11    5   28 1
    12    6   29 1
    13    7    8 2
    14    7    9 1
    15    9   14 ar
    16    9   10 ar
    17   10   11 ar
    18   10   30 1
    19   11   12 ar
    20   11   31 1
    21   12   13 ar
    22   12   24 1
    23   13   14 ar
    24   13   16 1
    25   14   15 1
    26   15   32 1
    27   16   17 2
    28   16   18 1
    29   18   23 ar
    30   18   19 ar
    31   19   20 ar
    32   19   33 1
    33   20   21 ar
    34   20   34 1
    35   21   22 ar
    36   21   35 1
    37   22   23 ar
    38   22   36 1
    39   23   37 1
    40   24   38 1
@<TRIPOS>MOLECULE
ZINC01532333
   35    37     0     0     0
SMALL
USER_CHARGES

@<TRIPOS>ATOM
      1 C1          0.5182    1.3282    0.5392 C.3       1 <0>        -0.6505
      2 S1          0.5973   -0.4799    0.4166 S.o2      1 <0>         2.4980
      3 O1          1.5493   -0.9919    1.3391 O.2       1 <0>        -0.9359
      4 O2         -0.7138   -1.0239    0.3518 O.2       1 <0>        -0.9361
      5 C2          1.2942   -0.7961   -1.1705 C.ar      1 <0>        -0.6580
      6 C3          0.4675   -0.9297   -2.2717 C.ar      1 <0>        -0.0199
      7 C4          1.0072   -1.1777   -3.5171 C.ar      1 <0>        -0.1275
      8 C5          2.3892   -1.2933   -3.6646 C.ar      1 <0>         0.0261
      9 C6          3.2175   -1.1572   -2.5508 C.ar      1 <0>        -0.1188
     10 C7          2.6662   -0.9041   -1.3114 C.ar      1 <0>        -0.0195
     11 C8          2.9751   -1.5601   -4.9989 C.2       1 <0>        -0.0892
     12 C9          2.5816   -2.6624   -5.7465 C.2       1 <0>        -0.0929
     13 C10         3.1406   -2.8711   -6.9618 C.2       1 <0>        -0.1803
     14 S2          4.2691   -1.4971   -7.1117 S.3       1 <0>         0.1458
     15 C11         3.9321   -0.7114   -5.5448 C.2       1 <0>        -0.0820
     16 C12         4.5182    0.5179   -4.9755 C.ar      1 <0>        -0.0313
     17 C13         5.9012    0.7121   -5.0010 C.ar      1 <0>        -0.0667
     18 C14         6.4431    1.8628   -4.4681 C.ar      1 <0>        -0.1497
     19 C15         5.6183    2.8252   -3.9075 C.ar      1 <0>         0.1155
     20 C16         4.2454    2.6381   -3.8793 C.ar      1 <0>        -0.1512
     21 C17         3.6916    1.4940   -4.4144 C.ar      1 <0>        -0.0560
     22 F1          6.1548    3.9502   -3.3861 F         1 <0>        -0.1334
     23 Br1         2.8085   -4.2683   -8.1920 Br        1 <0>         0.0481
     24 H1          1.5224    1.7427    0.4499 H         1 <0>         0.1318
     25 H2         -0.1090    1.7196   -0.2617 H         1 <0>         0.1318
     26 H3          0.0937    1.6088    1.5032 H         1 <0>         0.1340
     27 H4         -0.6026   -0.8399   -2.1563 H         1 <0>         0.1455
     28 H5          0.3608   -1.2825   -4.3759 H         1 <0>         0.1355
     29 H6          4.2884   -1.2457   -2.6588 H         1 <0>         0.1330
     30 H7          3.3068   -0.7945   -0.4489 H         1 <0>         0.1448
     31 H8          1.8385   -3.3456   -5.3626 H         1 <0>         0.1476
     32 H9          6.5450   -0.0376   -5.4369 H         1 <0>         0.1386
     33 H10         7.5122    2.0141   -4.4872 H         1 <0>         0.1440
     34 H11         3.6076    3.3915   -3.4412 H         1 <0>         0.1426
     35 H12         2.6213    1.3513   -4.3959 H         1 <0>         0.1361
@<TRIPOS>BOND
     1    1    2 1
     2    1   24 1
     3    1   25 1
     4    1   26 1
     5    2    3 2
     6    2    4 2
     7    2    5 1
     8    5   10 ar
     9    5    6 ar
    10    6    7 ar
    11    6   27 1
    12    7    8 ar
    13    7   28 1
    14    8    9 ar
    15    8   11 1
    16    9   10 ar
    17    9   29 1
    18   10   30 1
    19   11   15 2
    20   11   12 1
    21   12   13 2
    22   12   31 1
    23   13   14 1
    24   13   23 1
    25   14   15 1
    26   15   16 1
    27   16   21 ar
    28   16   17 ar
    29   17   18 ar
    30   17   32 1
    31   18   19 ar
    32   18   33 1
    33   19   20 ar
    34   19   22 1
    35   20   21 ar
    36   20   34 1
    37   21   35 1
@<TRIPOS>MOLECULE
ZINC38141758
   32    32     0     0     0
SMALL
USER_CHARGES

@<TRIPOS>ATOM
      1 C1         -0.0187    1.5258    0.0104 C.3       1 <0>        -0.1171
      2 C2          0.0021   -0.0041    0.0020 C.3       1 <0>        -0.1346
      3 H1          0.5123   -0.3556   -0.8948 H         1 <0>         0.0688
      4 C3         -1.4117   -0.5257    0.0127 C.ar      1 <0>        -0.0283
      5 C4         -2.2591   -0.2043    1.0565 C.ar      1 <0>        -0.0789
      6 C5         -3.5560   -0.6827    1.0663 C.ar      1 <0>        -0.1224
      7 C6         -4.0056   -1.4823    0.0321 C.ar      1 <0>        -0.1045
      8 C7         -3.1585   -1.8029   -1.0121 C.ar      1 <0>        -0.1215
      9 C8         -1.8629   -1.3209   -1.0241 C.ar      1 <0>        -0.1299
     10 C9         -5.4191   -2.0047    0.0433 C.3       1 <0>        -0.0688
     11 C10        -6.3366   -1.0086   -0.6687 C.3       1 <0>        -0.0917
     12 C11        -5.9482   -0.9236   -2.1461 C.3       1 <0>        -0.1490
     13 C12        -7.7883   -1.4770   -0.5491 C.3       1 <0>        -0.1463
     14 C13         0.7309   -0.5033    1.2229 C.2       1 <0>         0.5000
     15 O1          0.1557   -1.2165    2.0272 O.co2     1 <0>        -0.6863
     16 O2          1.8959   -0.1939    1.4064 O.co2     1 <0>        -0.6999
     17 H2          1.0039    1.9031    0.0027 H         1 <0>         0.0588
     18 H3         -0.5459    1.8868   -0.8726 H         1 <0>         0.0394
     19 H4         -0.5289    1.8773    0.9072 H         1 <0>         0.0469
     20 H5         -1.9079    0.4204    1.8645 H         1 <0>         0.1152
     21 H6         -4.2179   -0.4322    1.8822 H         1 <0>         0.1106
     22 H7         -3.5096   -2.4278   -1.8199 H         1 <0>         0.1100
     23 H8         -1.2022   -1.5684   -1.8418 H         1 <0>         0.1111
     24 H9         -5.4557   -2.9647   -0.4717 H         1 <0>         0.0650
     25 H10        -5.7512   -2.1322    1.0737 H         1 <0>         0.0658
     26 H11        -6.2328   -0.0260   -0.2086 H         1 <0>         0.0696
     27 H12        -6.6019   -0.2140   -2.6534 H         1 <0>         0.0477
     28 H13        -4.9140   -0.5899   -2.2313 H         1 <0>         0.0635
     29 H14        -6.0521   -1.9062   -2.6062 H         1 <0>         0.0505
     30 H15        -8.0650   -1.5376    0.5035 H         1 <0>         0.0526
     31 H16        -8.4419   -0.7674   -1.0563 H         1 <0>         0.0514
     32 H17        -7.8921   -2.4596   -1.0092 H         1 <0>         0.0524
@<TRIPOS>BOND
     1    1    2 1
     2    1   17 1
     3    1   18 1
     4    1   19 1
     5    2    3 1
     6    2    4 1
     7    2   14 1
     8    4    9 ar
     9    4    5 ar
    10    5    6 ar
    11    5   20 1
    12    6    7 ar
    13    6   21 1
    14    7    8 ar
    15    7   10 1
    16    8    9 ar
    17    8   22 1
    18    9   23 1
    19   10   11 1
    20   10   24 1
    21   10   25 1
    22   11   12 1
    23   11   13 1
    24   11   26 1
    25   12   27 1
    26   12   28 1
    27   12   29 1
    28   13   30 1
    29   13   31 1
    30   13   32 1
    31   14   15 2
    32   14   16 1
@<TRIPOS>MOLECULE
ZINC00000323
   30    31     0     0     0
SMALL
USER_CHARGES

@<TRIPOS>ATOM
      1 C1         -0.0187    1.5258    0.0104 C.3       1 <0>        -0.1172
      2 C2          0.0021   -0.0041    0.0020 C.3       1 <0>        -0.1347
      3 H1          0.5293   -0.3651    0.8851 H         1 <0>         0.0717
      4 C3         -1.4117   -0.5257    0.0127 C.ar      1 <0>        -0.0029
      5 C4         -2.2739   -0.2004   -1.0193 C.ar      1 <0>        -0.1133
      6 C5         -3.5699   -0.6745   -1.0160 C.ar      1 <0>        -0.0792
      7 C6         -4.0111   -1.4830    0.0296 C.ar      1 <0>        -0.1102
      8 C7         -3.1382   -1.8086    1.0683 C.ar      1 <0>         0.1050
      9 C8         -1.8402   -1.3319    1.0508 C.ar      1 <0>        -0.1571
     10 F1         -3.5585   -2.5916    2.0859 F         1 <0>        -0.1420
     11 C9         -5.4035   -1.9951    0.0386 C.ar      1 <0>        -0.0319
     12 C10        -6.4707   -1.1232   -0.1677 C.ar      1 <0>        -0.1071
     13 C11        -7.7639   -1.6051   -0.1582 C.ar      1 <0>        -0.1217
     14 C12        -8.0017   -2.9508    0.0555 C.ar      1 <0>        -0.1252
     15 C13        -6.9462   -3.8209    0.2608 C.ar      1 <0>        -0.1197
     16 C14        -5.6486   -3.3509    0.2476 C.ar      1 <0>        -0.1022
     17 C15         0.7074   -0.4901   -1.2379 C.2       1 <0>         0.5045
     18 O1          1.4615   -1.4461   -1.1751 O.co2     1 <0>        -0.6939
     19 O2          0.5241    0.0728   -2.3037 O.co2     1 <0>        -0.6870
     20 H2          1.0039    1.9031    0.0027 H         1 <0>         0.0509
     21 H3         -0.5459    1.8868   -0.8726 H         1 <0>         0.0620
     22 H4         -0.5289    1.8773    0.9072 H         1 <0>         0.0384
     23 H5         -1.9319    0.4266   -1.8295 H         1 <0>         0.1421
     24 H6         -4.2413   -0.4190   -1.8224 H         1 <0>         0.1287
     25 H7         -1.1615   -1.5863    1.8516 H         1 <0>         0.1327
     26 H8         -6.2861   -0.0722   -0.3342 H         1 <0>         0.1244
     27 H9         -8.5918   -0.9301   -0.3176 H         1 <0>         0.1216
     28 H10        -9.0153   -3.3236    0.0624 H         1 <0>         0.1193
     29 H11        -7.1375   -4.8706    0.4275 H         1 <0>         0.1216
     30 H12        -4.8249   -4.0319    0.4032 H         1 <0>         0.1224
@<TRIPOS>BOND
     1    1    2 1
     2    1   20 1
     3    1   21 1
     4    1   22 1
     5    2    3 1
     6    2    4 1
     7    2   17 1
     8    4    9 ar
     9    4    5 ar
    10    5    6 ar
    11    5   23 1
    12    6    7 ar
    13    6   24 1
    14    7    8 ar
    15    7   11 1
    16    8    9 ar
    17    8   10 1
    18    9   25 1
    19   11   16 ar
    20   11   12 ar
    21   12   13 ar
    22   12   26 1
    23   13   14 ar
    24   13   27 1
    25   14   15 ar
    26   14   28 1
    27   15   16 ar
    28   15   29 1
    29   16   30 1
    30   17   18 2
    31   17   19 1
@<TRIPOS>MOLECULE
ZINC00008667
   30    31     0     0     0
SMALL
USER_CHARGES

@<TRIPOS>ATOM
      1 C1         -0.0187    1.5258    0.0104 C.3       1 <0>        -0.1184
      2 C2          0.0021   -0.0041    0.0020 C.3       1 <0>        -0.1371
      3 H1          0.5293   -0.3651    0.8851 H         1 <0>         0.0739
      4 C3          0.7074   -0.4901   -1.2379 C.ar      1 <0>         0.0081
      5 C4          0.2191   -0.1492   -2.4867 C.ar      1 <0>        -0.0890
      6 C5          0.8599   -0.5907   -3.6263 C.ar      1 <0>        -0.0815
      7 C6          2.0018   -1.3819   -3.5188 C.ar      1 <0>        -0.1106
      8 C7          2.4909   -1.7233   -2.2573 C.ar      1 <0>         0.1030
      9 C8          1.8431   -1.2700   -1.1228 C.ar      1 <0>        -0.1621
     10 F1          3.5972   -2.4904   -2.1447 F         1 <0>        -0.1439
     11 C9          2.6946   -1.8598   -4.7406 C.ar      1 <0>        -0.0302
     12 C10         1.9703   -2.4751   -5.7597 C.ar      1 <0>        -0.1063
     13 C11         2.6199   -2.9178   -6.8941 C.ar      1 <0>        -0.1209
     14 C12         3.9873   -2.7517   -7.0205 C.ar      1 <0>        -0.1263
     15 C13         4.7112   -2.1416   -6.0120 C.ar      1 <0>        -0.1212
     16 C14         4.0711   -1.6899   -4.8757 C.ar      1 <0>        -0.1040
     17 C15        -1.4117   -0.5257    0.0127 C.2       1 <0>         0.5014
     18 O1         -1.8097   -1.2271   -0.9017 O.co2     1 <0>        -0.6850
     19 O2         -2.1576   -0.2463    0.9358 O.co2     1 <0>        -0.6947
     20 H2          1.0039    1.9031    0.0027 H         1 <0>         0.0416
     21 H3         -0.5459    1.8868   -0.8726 H         1 <0>         0.0493
     22 H4         -0.5289    1.8773    0.9072 H         1 <0>         0.0623
     23 H5         -0.6662    0.4638   -2.5699 H         1 <0>         0.1278
     24 H6          0.4768   -0.3237   -4.6001 H         1 <0>         0.1265
     25 H7          2.2224   -1.5294   -0.1454 H         1 <0>         0.1290
     26 H8          0.9027   -2.6057   -5.6619 H         1 <0>         0.1259
     27 H9          2.0597   -3.3952   -7.6844 H         1 <0>         0.1217
     28 H10         4.4917   -3.0999   -7.9097 H         1 <0>         0.1187
     29 H11         5.7787   -2.0147   -6.1157 H         1 <0>         0.1206
     30 H12         4.6365   -1.2093   -4.0910 H         1 <0>         0.1211
@<TRIPOS>BOND
     1    1    2 1
     2    1   20 1
     3    1   21 1
     4    1   22 1
     5    2    3 1
     6    2    4 1
     7    2   17 1
     8    4    9 ar
     9    4    5 ar
    10    5    6 ar
    11    5   23 1
    12    6    7 ar
    13    6   24 1
    14    7    8 ar
    15    7   11 1
    16    8    9 ar
    17    8   10 1
    18    9   25 1
    19   11   16 ar
    20   11   12 ar
    21   12   13 ar
    22   12   26 1
    23   13   14 ar
    24   13   27 1
    25   14   15 ar
    26   14   28 1
    27   15   16 ar
    28   15   29 1
    29   16   30 1
    30   17   18 2
    31   17   19 1
@<TRIPOS>MOLECULE
ZINC04617749
   32    33     0     0     0
SMALL
USER_CHARGES

@<TRIPOS>ATOM
      1 C1         -0.7791    1.7068   -0.4466 C.3       1 <0>        -0.6337
      2 S1         -0.2778   -0.0143   -0.1683 S.o2      1 <0>         2.5283
      3 O1          0.6369   -0.0883    0.9166 O.2       1 <0>        -1.0193
      4 O2         -1.4121   -0.8687   -0.2190 O.2       1 <0>        -1.0193
      5 N1          0.6157   -0.4184   -1.5027 N.2       1 <0>        -1.0578
      6 C2          1.1659   -1.7002   -1.6144 C.ar      1 <0>         0.3237
      7 C3          0.9592   -2.6357   -0.6111 C.ar      1 <0>        -0.2432
      8 C4          1.5037   -3.9011   -0.7237 C.ar      1 <0>        -0.0105
      9 C5          2.2547   -4.2380   -1.8347 C.ar      1 <0>        -0.1318
     10 C6          2.4650   -3.3110   -2.8388 C.ar      1 <0>        -0.1018
     11 C7          1.9180   -2.0423   -2.7364 C.ar      1 <0>         0.0637
     12 O3          2.1192   -1.1313   -3.7258 O.3       1 <0>        -0.2309
     13 C8          2.8575   -1.5106   -4.8016 C.ar      1 <0>         0.0910
     14 C9          2.2373   -2.0822   -5.9035 C.ar      1 <0>        -0.1293
     15 C10         2.9901   -2.4664   -6.9961 C.ar      1 <0>        -0.1080
     16 C11         4.3605   -2.2824   -6.9923 C.ar      1 <0>        -0.1260
     17 C12         4.9811   -1.7134   -5.8953 C.ar      1 <0>        -0.1080
     18 C13         4.2322   -1.3218   -4.8027 C.ar      1 <0>        -0.1293
     19 N2          2.8355   -5.5947   -1.9492 N.pl3     1 <0>         0.0667
     20 O4          2.6530   -6.4064   -1.0720 O.2       1 <0>        -0.2067
     21 O5          3.4925   -5.8911   -2.9199 O.3       1 <0>        -0.2076
     22 H1          0.1081    2.3326   -0.5424 H         1 <0>         0.1192
     23 H2         -1.3689    1.7700   -1.3611 H         1 <0>         0.1192
     24 H3         -1.3777    2.0517    0.3964 H         1 <0>         0.1072
     25 H4          0.3733   -2.3752    0.2580 H         1 <0>         0.1322
     26 H5          1.3424   -4.6285    0.0582 H         1 <0>         0.1369
     27 H6          3.0524   -3.5774   -3.7051 H         1 <0>         0.1405
     28 H7          1.1670   -2.2268   -5.9068 H         1 <0>         0.1298
     29 H8          2.5079   -2.9113   -7.8540 H         1 <0>         0.1258
     30 H9          4.9473   -2.5838   -7.8474 H         1 <0>         0.1232
     31 H10         6.0517   -1.5711   -5.8947 H         1 <0>         0.1259
     32 H11         4.7168   -0.8730   -3.9481 H         1 <0>         0.1298
@<TRIPOS>BOND
     1    1    2 1
     2    1   22 1
     3    1   23 1
     4    1   24 1
     5    2    3 2
     6    2    4 2
     7    2    5 1
     8    5    6 1
     9    6   11 ar
    10    6    7 ar
    11    7    8 ar
    12    7   25 1
    13    8    9 ar
    14    8   26 1
    15    9   10 ar
    16    9   19 1
    17   10   11 ar
    18   10   27 1
    19   11   12 1
    20   12   13 1
    21   13   18 ar
    22   13   14 ar
    23   14   15 ar
    24   14   28 1
    25   15   16 ar
    26   15   29 1
    27   16   17 ar
    28   16   30 1
    29   17   18 ar
    30   17   31 1
    31   18   32 1
    32   19   20 2
    33   19   21 1
@<TRIPOS>MOLECULE
ZINC04617749
   33    34     0     0     0
SMALL
USER_CHARGES

@<TRIPOS>ATOM
      1 C1         -0.0786    1.6136    0.1793 C.3       1 <0>        -0.6678
      2 S1          0.0331   -0.1910    0.0329 S.o2      1 <0>         2.6050
      3 O1          0.9079   -0.7093    1.0255 O.2       1 <0>        -0.9425
      4 O2         -1.2607   -0.7479   -0.1547 O.2       1 <0>        -0.9375
      5 N1          0.8183   -0.4538   -1.4012 N.pl3     1 <0>        -1.0459
      6 C2          2.1111    0.0464   -1.5930 C.ar      1 <0>         0.1861
      7 C3          3.0063    0.0848   -0.5339 C.ar      1 <0>        -0.1431
      8 C4          4.2826    0.5794   -0.7259 C.ar      1 <0>        -0.0495
      9 C5          4.6705    1.0365   -1.9718 C.ar      1 <0>        -0.0295
     10 C6          3.7839    1.0015   -3.0322 C.ar      1 <0>        -0.1125
     11 C7          2.5046    0.5020   -2.8497 C.ar      1 <0>         0.1046
     12 O3          1.6333    0.4616   -3.8930 O.3       1 <0>        -0.2413
     13 C8          2.0967    0.8002   -5.1246 C.ar      1 <0>         0.0653
     14 C9          3.0182   -0.0134   -5.7683 C.ar      1 <0>        -0.1369
     15 C10         3.4874    0.3329   -7.0206 C.ar      1 <0>        -0.0992
     16 C11         3.0400    1.4894   -7.6324 C.ar      1 <0>        -0.1094
     17 C12         2.1221    2.3022   -6.9929 C.ar      1 <0>        -0.1013
     18 C13         1.6451    1.9573   -5.7432 C.ar      1 <0>        -0.1147
     19 N2          6.0386    1.5655   -2.1708 N.pl3     1 <0>         0.0333
     20 O4          6.8151    1.5973   -1.2447 O.2       1 <0>        -0.1476
     21 O5          6.3796    1.9657   -3.2595 O.3       1 <0>        -0.1551
     22 H1          0.9243    2.0405    0.1846 H         1 <0>         0.1306
     23 H2         -0.6389    2.0128   -0.6661 H         1 <0>         0.1354
     24 H3         -0.5883    1.8720    1.1075 H         1 <0>         0.1408
     25 H4          2.7059   -0.2713    0.4404 H         1 <0>         0.1931
     26 H5          4.9786    0.6091    0.0995 H         1 <0>         0.1675
     27 H6          4.0900    1.3597   -4.0040 H         1 <0>         0.1655
     28 H7          3.3686   -0.9164   -5.2906 H         1 <0>         0.1308
     29 H8          4.2046   -0.2999   -7.5221 H         1 <0>         0.1346
     30 H9          3.4083    1.7586   -8.6113 H         1 <0>         0.1333
     31 H10         1.7745    3.2051   -7.4728 H         1 <0>         0.1360
     32 H11         0.9245    2.5899   -5.2462 H         1 <0>         0.1347
     33 H12         0.3821   -0.9545   -2.1083 H         1 <0>         0.4371
@<TRIPOS>BOND
     1    1    2 1
     2    1   22 1
     3    1   23 1
     4    1   24 1
     5    2    3 2
     6    2    4 2
     7    2    5 1
     8    5    6 1
     9    5   33 1
    10    6   11 ar
    11    6    7 ar
    12    7    8 ar
    13    7   25 1
    14    8    9 ar
    15    8   26 1
    16    9   10 ar
    17    9   19 1
    18   10   11 ar
    19   10   27 1
    20   11   12 1
    21   12   13 1
    22   13   18 ar
    23   13   14 ar
    24   14   15 ar
    25   14   28 1
    26   15   16 ar
    27   15   29 1
    28   16   17 ar
    29   16   30 1
    30   17   18 ar
    31   17   31 1
    32   18   32 1
    33   19   20 2
    34   19   21 1
@<TRIPOS>MOLECULE
ZINC00119988
   35    37     0     0     0
SMALL
USER_CHARGES

@<TRIPOS>ATOM
      1 C1         -0.0167    1.3779    0.0096 C.ar      1 <0>        -0.0628
      2 C2          1.1696    2.0886    0.0021 C.ar      1 <0>        -0.1339
      3 C3          2.3802    1.4154   -0.0130 C.ar      1 <0>         0.0896
      4 C4          2.3990    0.0236   -0.0206 C.ar      1 <0>         0.0776
      5 C5          1.2071   -0.6822   -0.0130 C.ar      1 <0>        -0.1181
      6 C6          0.0021   -0.0041    0.0020 C.ar      1 <0>        -0.0813
      7 C7         -1.2936   -0.7736    0.0102 C.3       1 <0>         0.1464
      8 H1         -1.1302   -1.7631    0.4371 H         1 <0>         0.0966
      9 C8         -1.8224   -0.9103   -1.4233 C.3       1 <0>         0.0774
     10 H2         -1.0636   -1.3761   -2.0520 H         1 <0>         0.0797
     11 C9         -3.0759   -1.7881   -1.3913 C.3       1 <0>        -0.1047
     12 C10        -4.0042   -1.3085   -0.3042 C.ar      1 <0>        -0.1922
     13 C11        -5.3364   -1.7051   -0.3406 C.ar      1 <0>         0.1583
     14 C12        -6.2168   -1.2864    0.6434 C.ar      1 <0>        -0.2033
     15 C13        -5.7673   -0.4690    1.6698 C.ar      1 <0>         0.1577
     16 C14        -4.4409   -0.0726    1.7062 C.ar      1 <0>        -0.1847
     17 C15        -3.5564   -0.4901    0.7171 C.ar      1 <0>         0.1751
     18 O1         -2.2659   -0.0703    0.7846 O.3       1 <0>        -0.2923
     19 O2         -6.6274   -0.0572    2.6380 O.3       1 <0>        -0.4921
     20 O3         -5.7767   -2.5064   -1.3460 O.3       1 <0>        -0.4921
     21 O4         -2.1505    0.3807   -1.9409 O.3       1 <0>        -0.5467
     22 O5          3.5850   -0.6417   -0.0359 O.3       1 <0>        -0.4863
     23 O6          3.5476    2.1129   -0.0209 O.3       1 <0>        -0.4879
     24 H3         -0.9598    1.9038    0.0259 H         1 <0>         0.1388
     25 H4          1.1522    3.1684    0.0077 H         1 <0>         0.1366
     26 H5          1.2190   -1.7621   -0.0189 H         1 <0>         0.1349
     27 H6         -3.5841   -1.7300   -2.3539 H         1 <0>         0.0950
     28 H7         -2.7902   -2.8214   -1.1946 H         1 <0>         0.0859
     29 H8         -7.2509   -1.5961    0.6116 H         1 <0>         0.1380
     30 H9         -4.0917    0.5638    2.5059 H         1 <0>         0.1406
     31 H10        -6.6766   -0.6517    3.3991 H         1 <0>         0.3961
     32 H11        -5.7049   -3.4517   -1.1556 H         1 <0>         0.3938
     33 H12        -2.4917    0.3667   -2.8456 H         1 <0>         0.3831
     34 H13         3.9367   -0.8389    0.8430 H         1 <0>         0.3881
     35 H14         3.8938    2.3101    0.8602 H         1 <0>         0.3893
@<TRIPOS>BOND
     1    1    6 ar
     2    1    2 ar
     3    1   24 1
     4    2    3 ar
     5    2   25 1
     6    3    4 ar
     7    3   23 1
     8    4    5 ar
     9    4   22 1
    10    5    6 ar
    11    5   26 1
    12    6    7 1
    13    7    8 1
    14    7   18 1
    15    7    9 1
    16    9   10 1
    17    9   11 1
    18    9   21 1
    19   11   12 1
    20   11   27 1
    21   11   28 1
    22   12   17 ar
    23   12   13 ar
    24   13   14 ar
    25   13   20 1
    26   14   15 ar
    27   14   29 1
    28   15   16 ar
    29   15   19 1
    30   16   17 ar
    31   16   30 1
    32   17   18 1
    33   19   31 1
    34   20   32 1
    35   21   33 1
    36   22   34 1
    37   23   35 1
@<TRIPOS>MOLECULE
ZINC00119988
   35    37     0     0     0
SMALL
USER_CHARGES

@<TRIPOS>ATOM
      1 C1         -0.0167    1.3809    0.0096 C.ar      1 <0>        -0.2034
      2 C2          1.1766    2.0878    0.0020 C.ar      1 <0>         0.1587
      3 C3          2.3823    1.4068   -0.0152 C.ar      1 <0>        -0.1833
      4 C4          2.4025    0.0159   -0.0241 C.ar      1 <0>         0.1747
      5 C5          1.2122   -0.6887   -0.0130 C.ar      1 <0>        -0.1921
      6 C6          0.0021   -0.0041    0.0020 C.ar      1 <0>         0.1579
      7 O1         -1.1671   -0.6966    0.0088 O.3       1 <0>        -0.4928
      8 C7          1.1916   -2.1964   -0.0108 C.3       1 <0>        -0.1012
      9 C8          2.5519   -2.7315   -0.4648 C.3       1 <0>         0.0660
     10 H1          2.6125   -3.8007   -0.2614 H         1 <0>         0.0829
     11 C9          3.6454   -1.9935    0.3180 C.3       1 <0>         0.1091
     12 H2          3.4637   -2.0957    1.3879 H         1 <0>         0.0966
     13 O2          3.6065   -0.6132   -0.0469 O.3       1 <0>        -0.2931
     14 C10         5.0145   -2.5810   -0.0306 C.3       1 <0>        -0.0576
     15 H3          5.1878   -2.4642   -1.1004 H         1 <0>         0.1250
     16 C11         6.0934   -1.8145    0.7342 C.3       1 <0>        -0.1579
     17 C12         7.3999   -2.5792    0.6040 C.2       1 <0>         0.3268
     18 O3          8.4121   -2.0692    0.1868 O.2       1 <0>        -0.3922
     19 C13         7.3376   -4.0204    1.0348 C.2       1 <0>         0.3440
     20 O4          8.2788   -4.5790    1.5616 O.2       1 <0>        -0.3988
     21 C14         6.0607   -4.7093    0.7765 C.2       1 <0>        -0.2091
     22 C15         5.0182   -4.0387    0.3064 C.2       1 <0>        -0.0650
     23 O5          2.7189   -2.4973   -1.8645 O.3       1 <0>        -0.5485
     24 O6          1.1626    3.4467    0.0110 O.3       1 <0>        -0.4928
     25 H4         -0.9585    1.9092    0.0260 H         1 <0>         0.1381
     26 H5          3.3110    1.9580   -0.0220 H         1 <0>         0.1415
     27 H6         -1.5134   -0.8923   -0.8726 H         1 <0>         0.3943
     28 H7          0.9786   -2.5547    0.9963 H         1 <0>         0.0908
     29 H8          0.4173   -2.5494   -0.6920 H         1 <0>         0.0885
     30 H9          6.2071   -0.8171    0.3095 H         1 <0>         0.1147
     31 H10         5.8152   -1.7380    1.7853 H         1 <0>         0.1120
     32 H11         5.9735   -5.7677    0.9729 H         1 <0>         0.1507
     33 H12         4.1010   -4.5881    0.1539 H         1 <0>         0.1343
     34 H13         2.0487   -2.9221   -2.4171 H         1 <0>         0.3838
     35 H14         1.1675    3.8342    0.8969 H         1 <0>         0.3974
@<TRIPOS>BOND
     1    1    6 ar
     2    1    2 ar
     3    1   25 1
     4    2    3 ar
     5    2   24 1
     6    3    4 ar
     7    3   26 1
     8    4   13 1
     9    4    5 ar
    10    5    6 ar
    11    5    8 1
    12    6    7 1
    13    7   27 1
    14    8    9 1
    15    8   28 1
    16    8   29 1
    17    9   10 1
    18    9   11 1
    19    9   23 1
    20   11   12 1
    21   11   13 1
    22   11   14 1
    23   14   15 1
    24   14   22 1
    25   14   16 1
    26   16   17 1
    27   16   30 1
    28   16   31 1
    29   17   18 2
    30   17   19 1
    31   19   20 2
    32   19   21 1
    33   21   22 2
    34   21   32 1
    35   22   33 1
    36   23   34 1
    37   24   35 1
@<TRIPOS>MOLECULE
ZINC00119988
   35    37     0     0     0
SMALL
USER_CHARGES

@<TRIPOS>ATOM
      1 C1         -0.0115    1.3874    0.0191 C.ar      1 <0>        -0.2033
      2 C2          1.1827    2.0928    0.0180 C.ar      1 <0>         0.1585
      3 C3          2.3876    1.4102   -0.0001 C.ar      1 <0>        -0.1836
      4 C4          2.4060    0.0194   -0.0163 C.ar      1 <0>         0.1747
      5 C5          1.2147   -0.6837   -0.0116 C.ar      1 <0>        -0.1914
      6 C6          0.0055    0.0025    0.0043 C.ar      1 <0>         0.1581
      7 O1         -1.1647   -0.6886    0.0048 O.3       1 <0>        -0.4928
      8 C7          1.1921   -2.1913   -0.0174 C.3       1 <0>        -0.1014
      9 C8          2.5527   -2.7259   -0.4711 C.3       1 <0>         0.0670
     10 H1          2.6114   -3.7962   -0.2733 H         1 <0>         0.0832
     11 C9          3.6454   -1.9935    0.3180 C.3       1 <0>         0.1093
     12 H2          3.4611   -2.1011    1.3869 H         1 <0>         0.0965
     13 O2          3.6091   -0.6112   -0.0397 O.3       1 <0>        -0.2948
     14 C10         5.0145   -2.5810   -0.0306 C.3       1 <0>        -0.0588
     15 H3          5.1593   -2.5253   -1.1095 H         1 <0>         0.1255
     16 C11         5.0503   -4.0471    0.4005 C.3       1 <0>        -0.1613
     17 C12         6.4876   -4.5317    0.3122 C.2       1 <0>         0.3305
     18 O3          6.8066   -5.5054   -0.3275 O.2       1 <0>        -0.3919
     19 C13         7.4842   -3.7066    1.0817 C.2       1 <0>         0.3458
     20 O4          8.4561   -4.2003    1.6175 O.2       1 <0>        -0.4006
     21 C14         7.2047   -2.2609    1.1425 C.2       1 <0>        -0.2224
     22 C15         6.0768   -1.7729    0.6451 C.2       1 <0>        -0.0536
     23 O5          2.7232   -2.4845   -1.8692 O.3       1 <0>        -0.5492
     24 O6          1.1705    3.4515    0.0340 O.3       1 <0>        -0.4928
     25 H4         -0.9527    1.9168    0.0361 H         1 <0>         0.1381
     26 H5          3.3171    1.9602   -0.0019 H         1 <0>         0.1412
     27 H6         -1.5093   -0.8792   -0.8784 H         1 <0>         0.3945
     28 H7          0.9763   -2.5547    0.9873 H         1 <0>         0.0909
     29 H8          0.4189   -2.5398   -0.7022 H         1 <0>         0.0886
     30 H9          4.6940   -4.1377    1.4266 H         1 <0>         0.1150
     31 H10         4.4205   -4.6409   -0.2620 H         1 <0>         0.1107
     32 H11         7.9233   -1.5947    1.5966 H         1 <0>         0.1490
     33 H12         5.9137   -0.7089    0.7331 H         1 <0>         0.1393
     34 H13         2.0536   -2.9055   -2.4256 H         1 <0>         0.3843
     35 H14         1.1740    3.8344    0.9220 H         1 <0>         0.3974
@<TRIPOS>BOND
     1    1    6 ar
     2    1    2 ar
     3    1   25 1
     4    2    3 ar
     5    2   24 1
     6    3    4 ar
     7    3   26 1
     8    4   13 1
     9    4    5 ar
    10    5    6 ar
    11    5    8 1
    12    6    7 1
    13    7   27 1
    14    8    9 1
    15    8   28 1
    16    8   29 1
    17    9   10 1
    18    9   11 1
    19    9   23 1
    20   11   12 1
    21   11   13 1
    22   11   14 1
    23   14   15 1
    24   14   22 1
    25   14   16 1
    26   16   17 1
    27   16   30 1
    28   16   31 1
    29   17   18 2
    30   17   19 1
    31   19   20 2
    32   19   21 1
    33   21   22 2
    34   21   32 1
    35   22   33 1
    36   23   34 1
    37   24   35 1
@<TRIPOS>MOLECULE
ZINC00601283
   40    42     0     0     0
SMALL
USER_CHARGES

@<TRIPOS>ATOM
      1 C1         -0.0182    1.5027    0.0102 C.3       1 <0>        -0.0883
      2 C2          0.0021   -0.0042    0.0020 C.2       1 <0>         0.0711
      3 C3          0.0074   -0.7679   -1.0995 C.2       1 <0>        -0.0782
      4 C4          0.0293   -2.1662   -0.6567 C.ar      1 <0>        -0.0368
      5 C5          0.0428   -3.3917   -1.3243 C.ar      1 <0>        -0.0938
      6 C6          0.0625   -4.5656   -0.5961 C.ar      1 <0>         0.0956
      7 C7          0.0688   -4.5275    0.7953 C.ar      1 <0>        -0.1804
      8 C8          0.0551   -3.3226    1.4635 C.ar      1 <0>        -0.0946
      9 C9          0.0357   -2.1316    0.7482 C.ar      1 <0>         0.0803
     10 N1          0.0240   -0.7990    1.1223 N.am      1 <0>        -0.5123
     11 C10         0.0297   -0.3494    2.3928 C.2       1 <0>         0.6115
     12 O1         -1.0174   -0.0751    2.9450 O.2       1 <0>        -0.4412
     13 C11         1.3084   -0.1902    3.1139 C.ar      1 <0>        -0.1622
     14 C12         2.5190   -0.3985    2.4491 C.ar      1 <0>        -0.0360
     15 C13         3.7097   -0.2483    3.1279 C.ar      1 <0>        -0.1193
     16 C14         3.7070    0.1084    4.4664 C.ar      1 <0>         0.0005
     17 C15         2.5096    0.3160    5.1314 C.ar      1 <0>        -0.1284
     18 C16         1.3125    0.1750    4.4621 C.ar      1 <0>        -0.0426
     19 Cl1         5.2103    0.2955    5.3141 Cl        1 <0>        -0.0622
     20 O2          0.0753   -5.7626   -1.2410 O.3       1 <0>        -0.3182
     21 C17         0.0954   -6.9375   -0.4278 C.3       1 <0>         0.0304
     22 C18        -0.0069   -0.2812   -2.5257 C.3       1 <0>        -0.1253
     23 C19         1.4090   -0.0991   -3.0085 C.2       1 <0>         0.4982
     24 O3          2.3431   -0.3421   -2.2636 O.co2     1 <0>        -0.6866
     25 O4          1.6204    0.2911   -4.1441 O.co2     1 <0>        -0.7049
     26 H1          1.0044    1.8799    0.0025 H         1 <0>         0.0804
     27 H2         -0.5453    1.8638   -0.8729 H         1 <0>         0.0881
     28 H3         -0.5284    1.8543    0.9070 H         1 <0>         0.0568
     29 H4          0.0376   -3.4222   -2.4038 H         1 <0>         0.1332
     30 H5          0.0842   -5.4504    1.3560 H         1 <0>         0.1288
     31 H6          0.0595   -3.3039    2.5434 H         1 <0>         0.1161
     32 H7          2.5224   -0.6770    1.4056 H         1 <0>         0.1519
     33 H8          4.6464   -0.4095    2.6151 H         1 <0>         0.1453
     34 H9          2.5140    0.5936    6.1751 H         1 <0>         0.1420
     35 H10         0.3798    0.3418    4.9804 H         1 <0>         0.1449
     36 H11         0.9887   -6.9318    0.1968 H         1 <0>         0.0516
     37 H12        -0.7911   -6.9558    0.2062 H         1 <0>         0.0506
     38 H13         0.1040   -7.8210   -1.0660 H         1 <0>         0.0947
     39 H14        -0.5139   -1.0132   -3.1543 H         1 <0>         0.0698
     40 H15        -0.5343    0.6712   -2.5793 H         1 <0>         0.0692
@<TRIPOS>BOND
     1    1    2 1
     2    1   26 1
     3    1   27 1
     4    1   28 1
     5    2   10 1
     6    2    3 2
     7    3    4 1
     8    3   22 1
     9    4    9 ar
    10    4    5 ar
    11    5    6 ar
    12    5   29 1
    13    6    7 ar
    14    6   20 1
    15    7    8 ar
    16    7   30 1
    17    8    9 ar
    18    8   31 1
    19    9   10 1
    20   10   11 am
    21   11   12 2
    22   11   13 1
    23   13   18 ar
    24   13   14 ar
    25   14   15 ar
    26   14   32 1
    27   15   16 ar
    28   15   33 1
    29   16   17 ar
    30   16   19 1
    31   17   18 ar
    32   17   34 1
    33   18   35 1
    34   20   21 1
    35   21   36 1
    36   21   37 1
    37   21   38 1
    38   22   23 1
    39   22   39 1
    40   22   40 1
    41   23   24 2
    42   23   25 1
@<TRIPOS>MOLECULE
ZINC13761818
   41    43     0     0     0
SMALL
USER_CHARGES

@<TRIPOS>ATOM
      1 C1          1.1568   -0.5872    0.5405 C.ar      1 <0>        -0.0934
      2 C2          2.3470    0.1105    0.5233 C.ar      1 <0>        -0.1058
      3 C3          2.3848    1.4070    0.0090 C.ar      1 <0>        -0.0458
      4 C4          1.2172    1.9895   -0.4851 C.ar      1 <0>        -0.0835
      5 C5          0.0334    1.2812   -0.4622 C.ar      1 <0>        -0.0949
      6 C6          0.0025   -0.0039    0.0491 C.ar      1 <0>        -0.0719
      7 C7         -1.2940   -0.7718    0.0710 C.3       1 <0>         0.1117
      8 O1         -1.9754   -0.5210    1.3017 O.3       1 <0>        -0.5666
      9 C8          3.6574    2.1609   -0.0121 C.2       1 <0>         0.1462
     10 C9          3.7937    3.5206   -0.0044 C.2       1 <0>        -0.2014
     11 C10         5.1574    3.8142   -0.0304 C.2       1 <0>        -0.0037
     12 N1          5.8274    2.6894   -0.0529 N.2       1 <0>        -0.2166
     13 N2          4.9143    1.6272   -0.0367 N.pl3     1 <0>        -0.3172
     14 C11         5.2330    0.2632   -0.0472 C.ar      1 <0>         0.1986
     15 C12         4.5596   -0.6021   -0.8994 C.ar      1 <0>        -0.1315
     16 C13         4.8764   -1.9464   -0.9077 C.ar      1 <0>        -0.0009
     17 C14         5.8627   -2.4310   -0.0682 C.ar      1 <0>        -0.6728
     18 C15         6.5347   -1.5719    0.7819 C.ar      1 <0>         0.0017
     19 C16         6.2268   -0.2256    0.7904 C.ar      1 <0>        -0.1232
     20 S1          6.2635   -4.1467   -0.0815 S.o2      1 <0>         2.7036
     21 O2          6.8404   -4.4388    1.1839 O.2       1 <0>        -0.9568
     22 O3          5.1168   -4.8279   -0.5714 O.2       1 <0>        -0.9572
     23 N3          7.4587   -4.3616   -1.2074 N.pl3     1 <0>        -1.2487
     24 C17         5.7592    5.1959   -0.0322 C.3       1 <0>         0.5582
     25 F1          5.9727    5.6132    1.2859 F         1 <0>        -0.1634
     26 F2          6.9787    5.1724   -0.7173 F         1 <0>        -0.1638
     27 F3          4.8847    6.0845   -0.6669 F         1 <0>        -0.1609
     28 H1          1.1271   -1.5924    0.9343 H         1 <0>         0.1327
     29 H2          3.2474   -0.3457    0.9075 H         1 <0>         0.1269
     30 H3          1.2399    2.9928   -0.8842 H         1 <0>         0.1362
     31 H4         -0.8711    1.7310   -0.8443 H         1 <0>         0.1344
     32 H5         -1.9196   -0.4522   -0.7624 H         1 <0>         0.0595
     33 H6         -1.0863   -1.8381   -0.0186 H         1 <0>         0.0596
     34 H7         -2.8202   -0.9842    1.3850 H         1 <0>         0.3849
     35 H8          2.9887    4.2402    0.0175 H         1 <0>         0.1740
     36 H9          3.7887   -0.2243   -1.5547 H         1 <0>         0.1459
     37 H10         4.3531   -2.6198   -1.5702 H         1 <0>         0.1582
     38 H11         7.3040   -1.9535    1.4368 H         1 <0>         0.1581
     39 H12         6.7553    0.4456    1.4512 H         1 <0>         0.1481
     40 H13         7.7964   -3.6021   -1.7073 H         1 <0>         0.4178
     41 H14         7.8212   -5.2471   -1.3669 H         1 <0>         0.4235
@<TRIPOS>BOND
     1    1    6 ar
     2    1    2 ar
     3    1   28 1
     4    2    3 ar
     5    2   29 1
     6    3    4 ar
     7    3    9 1
     8    4    5 ar
     9    4   30 1
    10    5    6 ar
    11    5   31 1
    12    6    7 1
    13    7    8 1
    14    7   32 1
    15    7   33 1
    16    8   34 1
    17    9   13 1
    18    9   10 2
    19   10   11 1
    20   10   35 1
    21   11   12 2
    22   11   24 1
    23   12   13 1
    24   13   14 1
    25   14   19 ar
    26   14   15 ar
    27   15   16 ar
    28   15   36 1
    29   16   17 ar
    30   16   37 1
    31   17   18 ar
    32   17   20 1
    33   18   19 ar
    34   18   38 1
    35   19   39 1
    36   20   21 2
    37   20   22 2
    38   20   23 1
    39   23   40 1
    40   23   41 1
    41   24   25 1
    42   24   26 1
    43   24   27 1
@<TRIPOS>MOLECULE
ZINC26403083
   32    33     0     0     0
SMALL
USER_CHARGES
2-[2-[(2-chloro-6-methyl-phenyl)amino]phenyl]acetic acid
@<TRIPOS>ATOM
      1 C1         -2.1562    3.0509    2.5103 C.3       1 <0>        -0.1083
      2 C2         -1.0960    3.1192    1.4415 C.ar      1 <0>        -0.0776
      3 C3          0.0520    3.8582    1.6525 C.ar      1 <0>        -0.1166
      4 C4          1.0251    3.9225    0.6725 C.ar      1 <0>        -0.1116
      5 C5          0.8535    3.2476   -0.5225 C.ar      1 <0>        -0.1183
      6 C6         -0.2916    2.5058   -0.7402 C.ar      1 <0>        -0.0405
      7 C7         -1.2744    2.4436    0.2415 C.ar      1 <0>         0.1705
      8 N1         -2.4369    1.6990    0.0228 N.pl3     1 <0>        -0.7095
      9 C8         -2.4294    0.3167    0.2254 C.ar      1 <0>         0.2341
     10 C9         -1.2399   -0.3371    0.5225 C.ar      1 <0>        -0.1875
     11 C10        -1.2369   -1.7028    0.7263 C.ar      1 <0>        -0.0954
     12 C11        -2.4145   -2.4212    0.6256 C.ar      1 <0>        -0.1746
     13 C12        -3.5991   -1.7746    0.3249 C.ar      1 <0>        -0.0780
     14 C13        -3.6102   -0.4080    0.1246 C.ar      1 <0>        -0.0950
     15 C14        -4.9018    0.2960   -0.2026 C.3       1 <0>        -0.1242
     16 C15        -5.0316    0.4387   -1.6972 C.2       1 <0>         0.4609
     17 O1         -4.1641    0.0125   -2.4223 O.co2     1 <0>        -0.6193
     18 O2         -6.1108    1.0394   -2.2229 O.co2     1 <0>        -0.7780
     19 Cl1        -0.5063    1.6583   -2.2400 Cl        1 <0>        -0.0397
     20 H1         -1.8385    3.6443    3.3803 H         1 <0>         0.0633
     21 H2         -2.3034    2.0041    2.8144 H         1 <0>         0.0738
     22 H3         -3.1006    3.4545    2.1163 H         1 <0>         0.0721
     23 H4          0.1893    4.3868    2.5843 H         1 <0>         0.1267
     24 H5          1.9213    4.5014    0.8404 H         1 <0>         0.1285
     25 H6          1.6155    3.3002   -1.2861 H         1 <0>         0.1308
     26 H7         -3.3576    2.2014   -0.3088 H         1 <0>         0.4343
     27 H8         -0.3194    0.2227    0.5976 H         1 <0>         0.1071
     28 H9         -0.3132   -2.2111    0.9606 H         1 <0>         0.1094
     29 H10        -2.4086   -3.4898    0.7818 H         1 <0>         0.1093
     30 H11        -4.5167   -2.3387    0.2464 H         1 <0>         0.1133
     31 H12        -5.7476   -0.2911    0.1845 H         1 <0>         0.0741
     32 H13        -4.9041    1.2929    0.2625 H         1 <0>         0.0662
@<TRIPOS>BOND
     1    1    2 1
     2    1   20 1
     3    1   21 1
     4    1   22 1
     5    2    7 ar
     6    2    3 ar
     7    3    4 ar
     8    3   23 1
     9    4    5 ar
    10    4   24 1
    11    5    6 ar
    12    5   25 1
    13    6    7 ar
    14    6   19 1
    15    7    8 1
    16    8    9 1
    17    8   26 1
    18    9   14 ar
    19    9   10 ar
    20   10   11 ar
    21   10   27 1
    22   11   12 ar
    23   11   28 1
    24   12   13 ar
    25   12   29 1
    26   13   14 ar
    27   13   30 1
    28   14   15 1
    29   15   16 1
    30   15   31 1
    31   15   32 1
    32   16   17 2
    33   16   18 1
@<TRIPOS>MOLECULE
ZINC01566147
   41    42     0     0     0
SMALL
USER_CHARGES
4-allyl-2-(3-allyl-4-methoxy-phenyl)-phenol
@<TRIPOS>ATOM
      1 C1         -3.6086    3.0026    0.0508 C.3       1 <0>         0.0256
      2 O1         -2.4223    3.7992    0.0437 O.3       1 <0>        -0.3122
      3 C2         -1.2352    3.1380    0.0297 C.ar      1 <0>         0.1332
      4 C3         -1.2156    1.7497    0.0173 C.ar      1 <0>        -0.2035
      5 C4         -0.0126    1.0758    0.0080 C.ar      1 <0>        -0.0682
      6 C5          1.1847    1.7900    0.0004 C.ar      1 <0>        -0.0735
      7 C6          1.1617    3.1835    0.0076 C.ar      1 <0>        -0.0570
      8 C7         -0.0448    3.8518    0.0222 C.ar      1 <0>        -0.1062
      9 C8         -0.0707    5.3586    0.0295 C.3       1 <0>        -0.0459
     10 C9         -0.1896    5.8521    1.4485 C.2       1 <0>        -0.1413
     11 C10         0.6914    6.6968    1.9242 C.2       1 <0>        -0.1969
     12 C11         2.4804    1.0682   -0.0159 C.ar      1 <0>        -0.0633
     13 C12         2.7236    0.0464    0.8992 C.ar      1 <0>        -0.0904
     14 C13         3.9308   -0.6222    0.8801 C.ar      1 <0>        -0.0837
     15 C14         4.9016   -0.2812   -0.0453 C.ar      1 <0>        -0.0979
     16 C15         4.6707    0.7309   -0.9575 C.ar      1 <0>        -0.1396
     17 C16         3.4609    1.4065   -0.9532 C.ar      1 <0>         0.1120
     18 O2          3.2305    2.3979   -1.8531 O.3       1 <0>        -0.4907
     19 C17         4.1930   -1.7271    1.8708 C.3       1 <0>        -0.0552
     20 C18         3.7419   -3.0416    1.2881 C.2       1 <0>        -0.1502
     21 C19         4.5794   -4.0460    1.2117 C.2       1 <0>        -0.1900
     22 H1         -3.6157    2.3693    0.9379 H         1 <0>         0.0558
     23 H2         -4.4831    3.6531    0.0619 H         1 <0>         0.1013
     24 H3         -3.6319    2.3776   -0.8419 H         1 <0>         0.0561
     25 H4         -2.1435    1.1970    0.0187 H         1 <0>         0.1307
     26 H5          0.0021   -0.0041    0.0020 H         1 <0>         0.1256
     27 H6          2.0876    3.7395    0.0021 H         1 <0>         0.1237
     28 H7          0.8502    5.7399   -0.4118 H         1 <0>         0.0754
     29 H8         -0.9242    5.7101   -0.5502 H         1 <0>         0.0867
     30 H9         -1.0012    5.5093    2.0732 H         1 <0>         0.1079
     31 H10         0.6062    7.0505    2.9410 H         1 <0>         0.0974
     32 H11         1.5030    7.0396    1.2994 H         1 <0>         0.0959
     33 H12         1.9681   -0.2226    1.6225 H         1 <0>         0.1274
     34 H13         5.8442   -0.8083   -0.0544 H         1 <0>         0.1266
     35 H14         5.4321    0.9925   -1.6773 H         1 <0>         0.1309
     36 H15         3.4998    3.2755   -1.5491 H         1 <0>         0.3865
     37 H16         5.2598   -1.7735    2.0894 H         1 <0>         0.0786
     38 H17         3.6420   -1.5290    2.7902 H         1 <0>         0.0835
     39 H18         2.7281   -3.1557    0.9336 H         1 <0>         0.1091
     40 H19         5.5931   -3.9320    1.5662 H         1 <0>         0.0972
     41 H20         4.2561   -4.9881    0.7942 H         1 <0>         0.0988
@<TRIPOS>BOND
     1    1    2 1
     2    1   22 1
     3    1   23 1
     4    1   24 1
     5    2    3 1
     6    3    8 ar
     7    3    4 ar
     8    4    5 ar
     9    4   25 1
    10    5    6 ar
    11    5   26 1
    12    6    7 ar
    13    6   12 1
    14    7    8 ar
    15    7   27 1
    16    8    9 1
    17    9   10 1
    18    9   28 1
    19    9   29 1
    20   10   11 2
    21   10   30 1
    22   11   31 1
    23   11   32 1
    24   12   17 ar
    25   12   13 ar
    26   13   14 ar
    27   13   33 1
    28   14   15 ar
    29   14   19 1
    30   15   16 ar
    31   15   34 1
    32   16   17 ar
    33   16   35 1
    34   17   18 1
    35   18   36 1
    36   19   20 1
    37   19   37 1
    38   19   38 1
    39   20   21 2
    40   20   39 1
    41   21   40 1
    42   21   41 1
