@<TRIPOS>MOLECULE
ZINC26974195
   47    48     0     0     0
SMALL
USER_CHARGES
(5Z)-2-amino-5-[(3,5-ditert-butyl-4-hydroxy-phenyl)methylene]thiazol-4-one
@<TRIPOS>ATOM
      1 C1         -1.0652   -0.3967    0.5886 C.3       1 <0>        -0.1510
      2 C2         -1.5944    0.2405    1.8750 C.3       1 <0>        -0.0141
      3 C3         -1.9857    1.6940    1.6006 C.3       1 <0>        -0.1429
      4 C4         -2.8206   -0.5347    2.3612 C.3       1 <0>        -0.1426
      5 C5         -0.5224    0.2001    2.9334 C.ar      1 <0>        -0.1139
      6 C6          0.7038   -0.3565    2.6483 C.ar      1 <0>        -0.0470
      7 C7          1.6992   -0.3934    3.6330 C.ar      1 <0>        -0.1352
      8 C8          1.4404    0.1370    4.9031 C.ar      1 <0>        -0.0552
      9 C9          0.2106    0.6913    5.1772 C.ar      1 <0>        -0.1674
     10 C10        -0.7718    0.7303    4.1942 C.ar      1 <0>         0.2007
     11 O1         -1.9808    1.2834    4.4681 O.3       1 <0>        -0.5014
     12 C11        -0.0691    1.2628    6.5433 C.3       1 <0>        -0.0289
     13 C12         1.1692    1.1011    7.4272 C.3       1 <0>        -0.1468
     14 C13        -0.4130    2.7481    6.4140 C.3       1 <0>        -0.1557
     15 C14        -1.2476    0.5196    7.1755 C.3       1 <0>        -0.1556
     16 C15         3.0092   -0.9854    3.3346 C.2       1 <0>         0.0644
     17 C16         4.0266   -0.8654    4.2246 C.2       1 <0>        -0.2449
     18 C17         5.3625   -1.5063    4.2311 C.2       1 <0>         0.5511
     19 O2          5.7108   -2.2781    3.3520 O.2       1 <0>        -0.4701
     20 N1          6.1524   -1.1974    5.2360 N.2       1 <0>        -0.6728
     21 C18         5.7873   -0.3618    6.1953 C.2       1 <0>         0.4810
     22 S1          4.1349    0.1169    5.7152 S.3       1 <0>        -0.0557
     23 N2          6.5056    0.0429    7.2891 N.pl3     1 <0>        -0.7840
     24 H1         -0.7839   -1.4417    0.7859 H         1 <0>         0.0593
     25 H2         -0.1836    0.1607    0.2391 H         1 <0>         0.0591
     26 H3         -1.8477   -0.3672   -0.1840 H         1 <0>         0.0611
     27 H4         -2.3662    2.1521    2.5255 H         1 <0>         0.0713
     28 H5         -2.7681    1.7235    0.8280 H         1 <0>         0.0558
     29 H6         -1.1041    2.2513    1.2511 H         1 <0>         0.0508
     30 H7         -3.2010   -0.0765    3.2861 H         1 <0>         0.0707
     31 H8         -2.5393   -1.5797    2.5585 H         1 <0>         0.0510
     32 H9         -3.6031   -0.5052    1.5886 H         1 <0>         0.0559
     33 H10         0.8982   -0.7638    1.6671 H         1 <0>         0.1409
     34 H11         2.2045    0.1115    5.6660 H         1 <0>         0.1418
     35 H12        -2.1803    1.7035    5.4650 H         1 <0>         0.4241
     36 H13         0.9649    1.5183    8.4243 H         1 <0>         0.0641
     37 H14         2.0164    1.6355    6.9727 H         1 <0>         0.0625
     38 H15         1.4165    0.0333    7.5201 H         1 <0>         0.0627
     39 H16        -0.6172    3.1653    7.4111 H         1 <0>         0.0698
     40 H17        -1.3033    2.8643    5.7785 H         1 <0>         0.0594
     41 H18         0.4343    3.2824    5.9594 H         1 <0>         0.0669
     42 H19        -1.4518    0.9368    8.1726 H         1 <0>         0.0696
     43 H20        -1.0004   -0.5482    7.2683 H         1 <0>         0.0665
     44 H21        -2.1379    0.6360    6.5400 H         1 <0>         0.0592
     45 H22         3.1660   -1.5262    2.3896 H         1 <0>         0.1622
     46 H23         6.0634    0.7496    8.0067 H         1 <0>         0.4535
     47 H24         7.5246   -0.3388    7.4499 H         1 <0>         0.4498
@<TRIPOS>BOND
     1    1    2 1
     2    1   24 1
     3    1   25 1
     4    1   26 1
     5    2    3 1
     6    2    4 1
     7    2    5 1
     8    3   27 1
     9    3   28 1
    10    3   29 1
    11    4   30 1
    12    4   31 1
    13    4   32 1
    14    5   10 ar
    15    5    6 ar
    16    6    7 ar
    17    6   33 1
    18    7    8 ar
    19    7   16 1
    20    8    9 ar
    21    8   34 1
    22    9   10 ar
    23    9   12 1
    24   10   11 1
    25   11   35 1
    26   12   13 1
    27   12   14 1
    28   12   15 1
    29   13   36 1
    30   13   37 1
    31   13   38 1
    32   14   39 1
    33   14   40 1
    34   14   41 1
    35   15   42 1
    36   15   43 1
    37   15   44 1
    38   16   17 2
    39   16   45 1
    40   17   22 1
    41   17   18 1
    42   18   19 2
    43   18   20 1
    44   20   21 2
    45   21   22 1
    46   21   23 1
    47   23   46 1
    48   23   47 1
@<TRIPOS>MOLECULE
ZINC18007687
   29    31     0     0     0
SMALL
USER_CHARGES

@<TRIPOS>ATOM
      1 C1          1.9025    3.4154   -2.8069 C.2       1 <0>        -0.1822
      2 C2          2.1917    3.1284   -1.4938 C.2       1 <0>        -0.1077
      3 C3          3.1899    2.1885   -1.2887 C.2       1 <0>        -0.2282
      4 S1          3.6517    1.7741   -2.9599 S.3       1 <0>         0.2414
      5 C4          2.5907    2.7803   -3.7871 C.2       1 <0>        -0.2625
      6 C5          3.7269    1.6700   -0.0250 C.2       1 <0>         0.5575
      7 O1          3.3541    2.1425    1.0353 O.2       1 <0>        -0.4632
      8 C6          4.7105    0.5848   -0.0376 C.2       1 <0>        -0.4597
      9 C7          6.1796    0.7228    0.0078 C.ar      1 <0>         0.0233
     10 C8          7.0407    1.8152    0.0710 C.ar      1 <0>        -0.1172
     11 C9          8.4047    1.6093    0.1006 C.ar      1 <0>        -0.0332
     12 C10         8.9170    0.3205    0.0675 C.ar      1 <0>        -0.1429
     13 C11         8.0731   -0.7686    0.0049 C.ar      1 <0>        -0.0989
     14 C12         6.6971   -0.5803   -0.0256 C.ar      1 <0>         0.0804
     15 N1          5.6254   -1.4612   -0.0873 N.am      1 <0>        -0.5216
     16 C13         4.4464   -0.7722   -0.0884 C.2       1 <0>         0.4918
     17 O2          3.2157   -1.3282   -0.1348 O.3       1 <0>        -0.6719
     18 C14         5.7333   -2.8038   -0.1334 C.2       1 <0>         0.7415
     19 O3          5.7530   -3.4476    0.8971 O.2       1 <0>        -0.5370
     20 N2          5.8192   -3.4325   -1.3225 N.am      1 <0>        -0.8414
     21 Cl1         9.4832    2.9674    0.1788 Cl        1 <0>        -0.0954
     22 H1          1.1345    4.1334   -3.0541 H         1 <0>         0.1269
     23 H2          1.6745    3.6052   -0.6743 H         1 <0>         0.1420
     24 H3          2.4819    2.8950   -4.8555 H         1 <0>         0.1801
     25 H4          6.6428    2.8189    0.0965 H         1 <0>         0.1221
     26 H5          9.9861    0.1687    0.0907 H         1 <0>         0.1249
     27 H6          8.4820   -1.7679   -0.0200 H         1 <0>         0.1167
     28 H7          5.8035   -2.9186   -2.1450 H         1 <0>         0.4038
     29 H8          5.8969   -4.3988   -1.3557 H         1 <0>         0.4105
@<TRIPOS>BOND
     1    1    5 2
     2    1    2 1
     3    1   22 1
     4    2    3 2
     5    2   23 1
     6    3    4 1
     7    3    6 1
     8    4    5 1
     9    5   24 1
    10    6    7 2
    11    6    8 1
    12    8   16 2
    13    8    9 1
    14    9   14 ar
    15    9   10 ar
    16   10   11 ar
    17   10   25 1
    18   11   12 ar
    19   11   21 1
    20   12   13 ar
    21   12   26 1
    22   13   14 ar
    23   13   27 1
    24   14   15 1
    25   15   16 1
    26   15   18 am
    27   16   17 1
    28   18   19 2
    29   18   20 am
    30   20   28 1
    31   20   29 1
@<TRIPOS>MOLECULE
ZINC06262659
   42    43     0     0     0
SMALL
USER_CHARGES

@<TRIPOS>ATOM
      1 C1         -0.0187    1.5258    0.0104 C.3       1 <0>        -0.1481
      2 C2          0.0021   -0.0041    0.0020 C.3       1 <0>        -0.0184
      3 C3          0.7421   -0.5109    1.2415 C.3       1 <0>        -0.1397
      4 C4         -1.4333   -0.5336    0.0129 C.3       1 <0>        -0.1402
      5 C5          0.7074   -0.4901   -1.2379 C.ar      1 <0>        -0.0908
      6 C6          1.2151    0.4185   -2.1418 C.ar      1 <0>        -0.0835
      7 C7          1.8688   -0.0328   -3.2899 C.ar      1 <0>         0.0302
      8 C8          2.0055   -1.4034   -3.5176 C.ar      1 <0>        -0.0988
      9 C9          1.4951   -2.3054   -2.6087 C.ar      1 <0>        -0.0894
     10 C10         0.8502   -1.8524   -1.4654 C.ar      1 <0>         0.1103
     11 O1          0.3533   -2.7448   -0.5692 O.3       1 <0>        -0.4853
     12 C11         1.6421   -3.7851   -2.8534 C.3       1 <0>        -0.0186
     13 C12         2.3895   -4.0127   -4.1689 C.3       1 <0>        -0.1486
     14 C13         2.4296   -4.4165   -1.7036 C.3       1 <0>        -0.1399
     15 C14         0.2564   -4.4285   -2.9362 C.3       1 <0>        -0.1400
     16 C15         2.4142    0.9378   -4.2619 C.2       1 <0>         0.0226
     17 N1          2.4009    2.2644   -4.2406 N.2       1 <0>        -0.2451
     18 N2          2.9187    2.9513   -5.1631 N.2       1 <0>        -0.3485
     19 C16         3.5081    2.3871   -6.2109 C.2       1 <0>         0.2833
     20 S1          3.2878    0.6584   -5.7996 S.3       1 <0>        -0.1451
     21 S2          4.2900    3.1283   -7.6051 S.3       1 <0>        -0.6615
     22 H1          1.0039    1.9031    0.0027 H         1 <0>         0.0612
     23 H2         -0.5459    1.8868   -0.8726 H         1 <0>         0.0605
     24 H3         -0.5289    1.8773    0.9072 H         1 <0>         0.0559
     25 H4          0.2319   -0.1594    2.1383 H         1 <0>         0.0508
     26 H5          0.7568   -1.6008    1.2356 H         1 <0>         0.0739
     27 H6          1.7647   -0.1336    1.2338 H         1 <0>         0.0513
     28 H7         -1.9605   -0.1726   -0.8702 H         1 <0>         0.0545
     29 H8         -1.4185   -1.6235    0.0069 H         1 <0>         0.0571
     30 H9         -1.9435   -0.1821    0.9097 H         1 <0>         0.0573
     31 H10         1.1070    1.4780   -1.9623 H         1 <0>         0.1403
     32 H11         2.5103   -1.7564   -4.4047 H         1 <0>         0.1328
     33 H12        -0.5596   -3.0111   -0.7442 H         1 <0>         0.3765
     34 H13         3.3767   -3.5543   -4.1099 H         1 <0>         0.0602
     35 H14         2.4958   -5.0830   -4.3459 H         1 <0>         0.0570
     36 H15         1.8284   -3.5629   -4.9881 H         1 <0>         0.0595
     37 H16         1.8972   -4.2543   -0.7664 H         1 <0>         0.0746
     38 H17         2.5360   -5.4867   -1.8806 H         1 <0>         0.0509
     39 H18         3.4168   -3.9581   -1.6446 H         1 <0>         0.0512
     40 H19        -0.3046   -3.9788   -3.7554 H         1 <0>         0.0545
     41 H20         0.3628   -5.4988   -3.1132 H         1 <0>         0.0575
     42 H21        -0.2760   -4.2664   -1.9991 H         1 <0>         0.0574
@<TRIPOS>BOND
     1    1    2 1
     2    1   22 1
     3    1   23 1
     4    1   24 1
     5    2    3 1
     6    2    4 1
     7    2    5 1
     8    3   25 1
     9    3   26 1
    10    3   27 1
    11    4   28 1
    12    4   29 1
    13    4   30 1
    14    5   10 ar
    15    5    6 ar
    16    6    7 ar
    17    6   31 1
    18    7    8 ar
    19    7   16 1
    20    8    9 ar
    21    8   32 1
    22    9   10 ar
    23    9   12 1
    24   10   11 1
    25   11   33 1
    26   12   13 1
    27   12   14 1
    28   12   15 1
    29   13   34 1
    30   13   35 1
    31   13   36 1
    32   14   37 1
    33   14   38 1
    34   14   39 1
    35   15   40 1
    36   15   41 1
    37   15   42 1
    38   16   20 1
    39   16   17 2
    40   17   18 1
    41   18   19 2
    42   19   20 1
    43   19   21 1
@<TRIPOS>MOLECULE
ZINC00002845
   50    51     0     0     0
SMALL
USER_CHARGES
4-[2-(3-methylisoxazol-5-yl)vinyl]-2,6-ditert-butyl-phenol
@<TRIPOS>ATOM
      1 C1          6.0531    0.5081   -0.0524 C.3       1 <0>        -0.0775
      2 C2          4.5463    0.4880   -0.0385 C.2       1 <0>         0.0180
      3 C3          3.6910    1.6065   -0.0301 C.2       1 <0>        -0.2211
      4 C4          2.4236    1.0500   -0.0154 C.2       1 <0>         0.0036
      5 O1          2.6077   -0.2843   -0.0248 O.3       1 <0>         0.1056
      6 N1          3.7824   -0.5680   -0.0374 N.2       1 <0>        -0.3678
      7 C5          1.1450    1.7653    0.0006 C.2       1 <0>        -0.0982
      8 C6         -0.0126    1.0758    0.0080 C.2       1 <0>        -0.0615
      9 C7         -1.2970    1.7943    0.0180 C.ar      1 <0>        -0.0722
     10 C8         -1.3186    3.1928    0.0315 C.ar      1 <0>        -0.0988
     11 C9         -2.5234    3.8606    0.0360 C.ar      1 <0>        -0.0914
     12 C10        -3.7157    3.1473    0.0377 C.ar      1 <0>         0.1260
     13 C11        -3.6996    1.7580    0.0296 C.ar      1 <0>        -0.0917
     14 C12        -2.5001    1.0808    0.0198 C.ar      1 <0>        -0.0912
     15 C13        -4.9966    0.9906    0.0321 C.3       1 <0>        -0.0214
     16 C14        -4.7010   -0.5105    0.0224 C.3       1 <0>        -0.1480
     17 C15        -5.7963    1.3448    1.2874 C.3       1 <0>        -0.1425
     18 C16        -5.8092    1.3584   -1.2110 C.3       1 <0>        -0.1422
     19 O2         -4.9011    3.8103    0.0479 O.3       1 <0>        -0.4849
     20 C17        -2.5483    5.3673    0.0448 C.3       1 <0>        -0.0212
     21 C18        -1.1144    5.9011    0.0408 C.3       1 <0>        -0.1482
     22 C19        -3.2840    5.8726   -1.1979 C.3       1 <0>        -0.1423
     23 C20        -3.2716    5.8581    1.3005 C.3       1 <0>        -0.1427
     24 H1          6.4068    0.5193   -1.0833 H         1 <0>         0.0815
     25 H2          6.4093    1.3997    0.4637 H         1 <0>         0.0827
     26 H3          6.4329   -0.3801    0.4525 H         1 <0>         0.0772
     27 H4          3.9604    2.6523   -0.0323 H         1 <0>         0.1742
     28 H5          1.1303    2.8452    0.0065 H         1 <0>         0.1489
     29 H6          0.0021   -0.0041    0.0020 H         1 <0>         0.1304
     30 H7         -0.3923    3.7481    0.0347 H         1 <0>         0.1334
     31 H8         -2.4886    0.0009    0.0131 H         1 <0>         0.1345
     32 H9         -4.1221   -0.7726    0.9080 H         1 <0>         0.0585
     33 H10        -5.6391   -1.0656    0.0242 H         1 <0>         0.0603
     34 H11        -4.1313   -0.7629   -0.8719 H         1 <0>         0.0592
     35 H12        -6.0069    2.4143    1.2943 H         1 <0>         0.0580
     36 H13        -6.7344    0.7898    1.2892 H         1 <0>         0.0613
     37 H14        -5.2174    1.0828    2.1730 H         1 <0>         0.0546
     38 H15        -5.2394    1.1061   -2.1053 H         1 <0>         0.0513
     39 H16        -6.7473    0.8034   -1.2092 H         1 <0>         0.0548
     40 H17        -6.0197    2.4279   -1.2041 H         1 <0>         0.0749
     41 H18        -5.2396    3.9972    0.9342 H         1 <0>         0.3830
     42 H19        -0.5990    5.5514   -0.8538 H         1 <0>         0.0587
     43 H20        -1.1324    6.9909    0.0472 H         1 <0>         0.0608
     44 H21        -0.5902    5.5412    0.9261 H         1 <0>         0.0579
     45 H22        -4.3055    5.4923   -1.1951 H         1 <0>         0.0752
     46 H23        -3.3020    6.9624   -1.1915 H         1 <0>         0.0548
     47 H24        -2.7687    5.5229   -2.0925 H         1 <0>         0.0513
     48 H25        -2.7475    5.4982    2.1858 H         1 <0>         0.0545
     49 H26        -3.2896    6.9480    1.3069 H         1 <0>         0.0613
     50 H27        -4.2932    5.4779    1.3033 H         1 <0>         0.0583
@<TRIPOS>BOND
     1    1    2 1
     2    1   24 1
     3    1   25 1
     4    1   26 1
     5    2    6 2
     6    2    3 1
     7    3    4 2
     8    3   27 1
     9    4    5 1
    10    4    7 1
    11    5    6 1
    12    7    8 2
    13    7   28 1
    14    8    9 1
    15    8   29 1
    16    9   14 ar
    17    9   10 ar
    18   10   11 ar
    19   10   30 1
    20   11   12 ar
    21   11   20 1
    22   12   13 ar
    23   12   19 1
    24   13   14 ar
    25   13   15 1
    26   14   31 1
    27   15   16 1
    28   15   17 1
    29   15   18 1
    30   16   32 1
    31   16   33 1
    32   16   34 1
    33   17   35 1
    34   17   36 1
    35   17   37 1
    36   18   38 1
    37   18   39 1
    38   18   40 1
    39   19   41 1
    40   20   21 1
    41   20   22 1
    42   20   23 1
    43   21   42 1
    44   21   43 1
    45   21   44 1
    46   22   45 1
    47   22   46 1
    48   22   47 1
    49   23   48 1
    50   23   49 1
    51   23   50 1
@<TRIPOS>MOLECULE
ZINC05481517
   46    47     0     0     0
SMALL
USER_CHARGES

@<TRIPOS>ATOM
      1 C1         -0.0187    1.5258    0.0104 C.3       1 <0>        -0.1496
      2 C2          0.0021   -0.0041    0.0020 C.3       1 <0>        -0.0204
      3 C3          0.7421   -0.5109    1.2415 C.3       1 <0>        -0.1426
      4 C4         -1.4333   -0.5336    0.0129 C.3       1 <0>        -0.1428
      5 C5          0.7074   -0.4901   -1.2379 C.ar      1 <0>        -0.0921
      6 C6          1.2151    0.4185   -2.1418 C.ar      1 <0>        -0.0600
      7 C7          1.8688   -0.0328   -3.2899 C.ar      1 <0>        -0.0226
      8 C8          2.0055   -1.4034   -3.5176 C.ar      1 <0>        -0.0816
      9 C9          1.4951   -2.3054   -2.6087 C.ar      1 <0>        -0.0904
     10 C10         0.8502   -1.8524   -1.4654 C.ar      1 <0>         0.1437
     11 O1          0.3533   -2.7448   -0.5692 O.3       1 <0>        -0.4824
     12 C11         1.6421   -3.7851   -2.8534 C.3       1 <0>        -0.0206
     13 C12         2.3895   -4.0127   -4.1689 C.3       1 <0>        -0.1500
     14 C13         2.4296   -4.4165   -1.7036 C.3       1 <0>        -0.1430
     15 C14         0.2564   -4.4285   -2.9362 C.3       1 <0>        -0.1429
     16 C15         2.4142    0.9378   -4.2619 C.2       1 <0>         0.1124
     17 N1          2.4009    2.2644   -4.2406 N.2       1 <0>        -0.2662
     18 N2          2.9187    2.9513   -5.1631 N.2       1 <0>        -0.2793
     19 C16         3.5081    2.3871   -6.2109 C.2       1 <0>         0.0197
     20 S1          3.2878    0.6584   -5.7996 S.3       1 <0>         0.0399
     21 S2          4.2900    3.1283   -7.6051 S.3       1 <0>         0.0563
     22 C17         4.1209    4.9097   -7.3075 C.3       1 <0>        -0.1514
     23 H1          1.0039    1.9031    0.0027 H         1 <0>         0.0604
     24 H2         -0.5459    1.8868   -0.8726 H         1 <0>         0.0596
     25 H3         -0.5289    1.8773    0.9072 H         1 <0>         0.0620
     26 H4          0.2319   -0.1594    2.1383 H         1 <0>         0.0566
     27 H5          0.7568   -1.6008    1.2356 H         1 <0>         0.0755
     28 H6          1.7647   -0.1336    1.2338 H         1 <0>         0.0522
     29 H7         -1.9605   -0.1726   -0.8702 H         1 <0>         0.0555
     30 H8         -1.4185   -1.6235    0.0069 H         1 <0>         0.0583
     31 H9         -1.9435   -0.1821    0.9097 H         1 <0>         0.0631
     32 H10         1.1070    1.4780   -1.9623 H         1 <0>         0.1454
     33 H11         2.5103   -1.7564   -4.4047 H         1 <0>         0.1347
     34 H12        -0.5596   -3.0111   -0.7442 H         1 <0>         0.3867
     35 H13         3.3767   -3.5543   -4.1099 H         1 <0>         0.0590
     36 H14         2.4958   -5.0830   -4.3459 H         1 <0>         0.0634
     37 H15         1.8284   -3.5629   -4.9881 H         1 <0>         0.0583
     38 H16         1.8972   -4.2543   -0.7664 H         1 <0>         0.0764
     39 H17         2.5360   -5.4867   -1.8806 H         1 <0>         0.0567
     40 H18         3.4168   -3.9581   -1.6446 H         1 <0>         0.0522
     41 H19        -0.3046   -3.9788   -3.7554 H         1 <0>         0.0556
     42 H20         0.3628   -5.4988   -3.1133 H         1 <0>         0.0633
     43 H21        -0.2760   -4.2664   -1.9991 H         1 <0>         0.0588
     44 H22         3.0640    5.1686   -7.2435 H         1 <0>         0.0957
     45 H23         4.6161    5.1704   -6.3721 H         1 <0>         0.0956
     46 H24         4.5809    5.4604   -8.1280 H         1 <0>         0.1209
@<TRIPOS>BOND
     1    1    2 1
     2    1   23 1
     3    1   24 1
     4    1   25 1
     5    2    3 1
     6    2    4 1
     7    2    5 1
     8    3   26 1
     9    3   27 1
    10    3   28 1
    11    4   29 1
    12    4   30 1
    13    4   31 1
    14    5   10 ar
    15    5    6 ar
    16    6    7 ar
    17    6   32 1
    18    7    8 ar
    19    7   16 1
    20    8    9 ar
    21    8   33 1
    22    9   10 ar
    23    9   12 1
    24   10   11 1
    25   11   34 1
    26   12   13 1
    27   12   14 1
    28   12   15 1
    29   13   35 1
    30   13   36 1
    31   13   37 1
    32   14   38 1
    33   14   39 1
    34   14   40 1
    35   15   41 1
    36   15   42 1
    37   15   43 1
    38   16   20 1
    39   16   17 2
    40   17   18 1
    41   18   19 2
    42   19   20 1
    43   19   21 1
    44   21   22 1
    45   22   44 1
    46   22   45 1
    47   22   46 1
@<TRIPOS>MOLECULE
ZINC00105216
   30    31     0     0     0
SMALL
USER_CHARGES

@<TRIPOS>ATOM
      1 C1         -0.0187    1.5258    0.0104 C.3       1 <0>        -0.1185
      2 C2          0.0021   -0.0041    0.0020 C.3       1 <0>        -0.1364
      3 H1         -1.0205   -0.3814    0.0098 H         1 <0>         0.0713
      4 C3          0.7074   -0.4901   -1.2379 C.ar      1 <0>        -0.0233
      5 C4          2.0367   -0.1325   -1.4560 C.ar      1 <0>        -0.0492
      6 C5          2.7027   -0.5545   -2.5653 C.ar      1 <0>        -0.1340
      7 C6          2.0432   -1.3636   -3.5068 C.ar      1 <0>        -0.0210
      8 C7          2.6987   -1.8182   -4.6628 C.ar      1 <0>        -0.1462
      9 C8          2.0264   -2.6031   -5.5556 C.ar      1 <0>         0.1082
     10 C9          0.6925   -2.9604   -5.3345 C.ar      1 <0>        -0.2006
     11 C10         0.0299   -2.5361   -4.2254 C.ar      1 <0>        -0.0655
     12 C11         0.6914   -1.7275   -3.2846 C.ar      1 <0>        -0.0750
     13 C12         0.0385   -1.2762   -2.1250 C.ar      1 <0>        -0.1205
     14 O1          2.6617   -3.0423   -6.6736 O.3       1 <0>        -0.3228
     15 C13         1.9067   -3.8599   -7.5700 C.3       1 <0>         0.0296
     16 C14         0.7309   -0.5033    1.2229 C.2       1 <0>         0.5002
     17 O2          0.3210   -0.2204    2.3358 O.co2     1 <0>        -0.6976
     18 O3          1.7305   -1.1901    1.0978 O.co2     1 <0>        -0.6861
     19 H2          1.0039    1.9031    0.0027 H         1 <0>         0.0479
     20 H3         -0.5459    1.8868   -0.8726 H         1 <0>         0.0406
     21 H4         -0.5289    1.8773    0.9072 H         1 <0>         0.0604
     22 H5          2.5458    0.4890   -0.7342 H         1 <0>         0.1214
     23 H6          3.7325   -0.2690   -2.7216 H         1 <0>         0.1221
     24 H7          3.7285   -1.5483   -4.8448 H         1 <0>         0.1285
     25 H8          0.1814   -3.5818   -6.0549 H         1 <0>         0.1229
     26 H9         -1.0004   -2.8192   -4.0679 H         1 <0>         0.1257
     27 H10        -0.9902   -1.5485   -1.9405 H         1 <0>         0.1191
     28 H11         2.5306   -4.1410   -8.4184 H         1 <0>         0.0948
     29 H12         1.5744   -4.7583   -7.0499 H         1 <0>         0.0524
     30 H13         1.0391   -3.3040   -7.9254 H         1 <0>         0.0519
@<TRIPOS>BOND
     1    1    2 1
     2    1   19 1
     3    1   20 1
     4    1   21 1
     5    2    3 1
     6    2    4 1
     7    2   16 1
     8    4   13 ar
     9    4    5 ar
    10    5    6 ar
    11    5   22 1
    12    6    7 ar
    13    6   23 1
    14    7   12 ar
    15    7    8 ar
    16    8    9 ar
    17    8   24 1
    18    9   10 ar
    19    9   14 1
    20   10   11 ar
    21   10   25 1
    22   11   12 ar
    23   11   26 1
    24   12   13 ar
    25   13   27 1
    26   14   15 1
    27   15   28 1
    28   15   29 1
    29   15   30 1
    30   16   17 2
    31   16   18 1
@<TRIPOS>MOLECULE
ZINC13727692
   44    45     0     0     0
SMALL
USER_CHARGES

@<TRIPOS>ATOM
      1 C1         -0.0187    1.5258    0.0104 C.3       1 <0>        -0.1477
      2 C2          0.0021   -0.0041    0.0020 C.3       1 <0>        -0.0194
      3 C3          0.7421   -0.5109    1.2415 C.3       1 <0>        -0.1418
      4 C4         -1.4333   -0.5336    0.0129 C.3       1 <0>        -0.1421
      5 C5          0.7074   -0.4901   -1.2379 C.ar      1 <0>        -0.1000
      6 C6          1.2153    0.4186   -2.1423 C.ar      1 <0>        -0.0679
      7 C7          1.8677   -0.0317   -3.2889 C.ar      1 <0>        -0.0351
      8 C8          2.0045   -1.4000   -3.5176 C.ar      1 <0>        -0.0620
      9 C9          1.4945   -2.3038   -2.6095 C.ar      1 <0>        -0.1019
     10 C10         0.8503   -1.8522   -1.4656 C.ar      1 <0>         0.1388
     11 O1          0.3541   -2.7450   -0.5697 O.3       1 <0>        -0.4843
     12 C11         1.6421   -3.7832   -2.8560 C.3       1 <0>        -0.0191
     13 C12         2.3892   -4.0089   -4.1720 C.3       1 <0>        -0.1466
     14 C13         2.4302   -4.4155   -1.7071 C.3       1 <0>        -0.1421
     15 C14         0.2566   -4.4270   -2.9392 C.3       1 <0>        -0.1420
     16 C15         2.4146    0.9430   -4.2640 C.2       1 <0>         0.3412
     17 N1          3.0325    0.5378   -5.3605 N.2       1 <0>        -0.5865
     18 C16         3.4933    1.4640   -6.1822 C.2       1 <0>         0.3197
     19 S1          3.0570    2.8918   -5.4116 S.3       1 <0>         0.2351
     20 N2          2.2956    2.2404   -4.0680 N.2       1 <0>        -0.4878
     21 N3          4.1676    1.2993   -7.3783 N.pl3     1 <0>        -0.7857
     22 H1          1.0039    1.9031    0.0027 H         1 <0>         0.0594
     23 H2         -0.5459    1.8868   -0.8726 H         1 <0>         0.0586
     24 H3         -0.5289    1.8773    0.9072 H         1 <0>         0.0601
     25 H4          0.2319   -0.1594    2.1383 H         1 <0>         0.0548
     26 H5          0.7568   -1.6008    1.2356 H         1 <0>         0.0750
     27 H6          1.7647   -0.1336    1.2338 H         1 <0>         0.0513
     28 H7         -1.9605   -0.1726   -0.8702 H         1 <0>         0.0546
     29 H8         -1.4185   -1.6235    0.0069 H         1 <0>         0.0580
     30 H9         -1.9435   -0.1821    0.9097 H         1 <0>         0.0614
     31 H10         1.1074    1.4781   -1.9626 H         1 <0>         0.1419
     32 H11         2.5091   -1.7519   -4.4053 H         1 <0>         0.1439
     33 H12        -0.5588   -3.0116   -0.7444 H         1 <0>         0.3841
     34 H13         3.3762   -3.5503   -4.1127 H         1 <0>         0.0590
     35 H14         2.4959   -5.0790   -4.3502 H         1 <0>         0.0594
     36 H15         1.8277   -3.5585   -4.9904 H         1 <0>         0.0584
     37 H16         1.8979   -4.2547   -0.7696 H         1 <0>         0.0754
     38 H17         2.5369   -5.4855   -1.8854 H         1 <0>         0.0545
     39 H18         3.4172   -3.9568   -1.6479 H         1 <0>         0.0512
     40 H19        -0.3049   -3.9765   -3.7576 H         1 <0>         0.0545
     41 H20         0.3633   -5.4970   -3.1174 H         1 <0>         0.0612
     42 H21        -0.2757   -4.2661   -2.0017 H         1 <0>         0.0578
     43 H22         4.3564    0.4075   -7.7098 H         1 <0>         0.4177
     44 H23         4.4517    2.0756   -7.8858 H         1 <0>         0.4250
@<TRIPOS>BOND
     1    1    2 1
     2    1   22 1
     3    1   23 1
     4    1   24 1
     5    2    3 1
     6    2    4 1
     7    2    5 1
     8    3   25 1
     9    3   26 1
    10    3   27 1
    11    4   28 1
    12    4   29 1
    13    4   30 1
    14    5   10 ar
    15    5    6 ar
    16    6    7 ar
    17    6   31 1
    18    7    8 ar
    19    7   16 1
    20    8    9 ar
    21    8   32 1
    22    9   10 ar
    23    9   12 1
    24   10   11 1
    25   11   33 1
    26   12   13 1
    27   12   14 1
    28   12   15 1
    29   13   34 1
    30   13   35 1
    31   13   36 1
    32   14   37 1
    33   14   38 1
    34   14   39 1
    35   15   40 1
    36   15   41 1
    37   15   42 1
    38   16   20 2
    39   16   17 1
    40   17   18 2
    41   18   19 1
    42   18   21 1
    43   19   20 1
    44   21   43 1
    45   21   44 1
@<TRIPOS>MOLECULE
ZINC00538316
   39    41     0     0     0
SMALL
USER_CHARGES
1,1,1-trifluoro-N-[3-(2-quinolylmethoxy)phenyl]methanesulfonamide
@<TRIPOS>ATOM
      1 C1          1.1590    3.1683    0.0071 C.ar      1 <0>        -0.1140
      2 C2          1.1549    1.7747    0.0006 C.ar      1 <0>        -0.0984
      3 C3         -0.0126    1.0758    0.0080 C.ar      1 <0>        -0.0931
      4 C4         -1.2381    1.7649    0.0175 C.ar      1 <0>         0.1326
      5 C5         -1.2315    3.1820    0.0295 C.ar      1 <0>        -0.1027
      6 C6         -0.0074    3.8703    0.0211 C.ar      1 <0>        -0.0963
      7 C7         -2.4591    3.8699    0.0436 C.ar      1 <0>        -0.0542
      8 C8         -3.6102    3.1342    0.0506 C.ar      1 <0>        -0.1557
      9 C9         -3.5459    1.7428    0.0439 C.ar      1 <0>         0.1571
     10 N1         -2.4004    1.1052    0.0304 N.ar      1 <0>        -0.4692
     11 C10        -4.8271    0.9493    0.0519 C.3       1 <0>         0.1110
     12 O1         -5.9413    1.8439    0.0658 O.3       1 <0>        -0.3089
     13 C11        -7.1804    1.2858    0.0744 C.ar      1 <0>         0.1490
     14 C12        -7.3201   -0.0953    0.0696 C.ar      1 <0>        -0.2010
     15 C13        -8.5792   -0.6643    0.0793 C.ar      1 <0>        -0.0532
     16 C14        -9.7032    0.1390    0.0938 C.ar      1 <0>        -0.1750
     17 C15        -9.5695    1.5219    0.0988 C.ar      1 <0>         0.1533
     18 C16        -8.3051    2.0952    0.0939 C.ar      1 <0>        -0.1490
     19 N2        -10.7056    2.3342    0.1139 N.pl3     1 <0>        -1.0199
     20 S1        -11.9586    1.9862    1.1392 S.o2      1 <0>         2.6059
     21 O2        -12.9334    2.9852    0.8725 O.2       1 <0>        -0.8746
     22 O3        -12.2458    0.6139    0.9081 O.2       1 <0>        -0.8646
     23 C17       -11.2744    2.2096    2.8043 C.3       1 <0>        -0.0381
     24 F1        -10.8341    3.5290    2.9543 F         1 <0>        -0.1582
     25 F2        -12.2635    1.9371    3.7553 F         1 <0>        -0.1587
     26 F3        -10.1979    1.3351    2.9873 F         1 <0>        -0.1548
     27 H1          2.0999    3.6985    0.0006 H         1 <0>         0.1299
     28 H2          2.0936    1.2408   -0.0109 H         1 <0>         0.1324
     29 H3          0.0021   -0.0041    0.0020 H         1 <0>         0.1372
     30 H4          0.0086    4.9501    0.0260 H         1 <0>         0.1321
     31 H5         -2.4904    4.9494    0.0483 H         1 <0>         0.1428
     32 H6         -4.5691    3.6309    0.0618 H         1 <0>         0.1476
     33 H7         -4.8734    0.3251   -0.8405 H         1 <0>         0.0927
     34 H8         -4.8574    0.3172    0.9394 H         1 <0>         0.0923
     35 H9         -6.4434   -0.7259    0.0586 H         1 <0>         0.1376
     36 H10        -8.6850   -1.7391    0.0758 H         1 <0>         0.1404
     37 H11       -10.6862   -0.3082    0.1018 H         1 <0>         0.1615
     38 H12        -8.1982    3.1698    0.1018 H         1 <0>         0.1428
     39 H13       -10.7606    3.1022   -0.4760 H         1 <0>         0.4413
@<TRIPOS>BOND
     1    1    6 ar
     2    1    2 ar
     3    1   27 1
     4    2    3 ar
     5    2   28 1
     6    3    4 ar
     7    3   29 1
     8    4   10 ar
     9    4    5 ar
    10    5    6 ar
    11    5    7 ar
    12    6   30 1
    13    7    8 ar
    14    7   31 1
    15    8    9 ar
    16    8   32 1
    17    9   10 ar
    18    9   11 1
    19   11   12 1
    20   11   33 1
    21   11   34 1
    22   12   13 1
    23   13   18 ar
    24   13   14 ar
    25   14   15 ar
    26   14   35 1
    27   15   16 ar
    28   15   36 1
    29   16   17 ar
    30   16   37 1
    31   17   18 ar
    32   17   19 1
    33   18   38 1
    34   19   20 1
    35   19   39 1
    36   20   21 2
    37   20   22 2
    38   20   23 1
    39   23   24 1
    40   23   25 1
    41   23   26 1
@<TRIPOS>MOLECULE
ZINC00596951
   45    48     0     0     0
SMALL
USER_CHARGES

@<TRIPOS>ATOM
      1 C1         -0.0074    1.3728   -0.1530 C.ar      1 <0>        -0.1207
      2 C2          1.1705    2.0977   -0.3238 C.ar      1 <0>        -0.1036
      3 C3          2.3763    1.4713   -0.3956 C.ar      1 <0>        -0.0922
      4 C4          2.4417    0.0703   -0.2967 C.ar      1 <0>         0.1322
      5 C5          1.2426   -0.6647   -0.1230 C.ar      1 <0>        -0.1058
      6 C6          0.0159    0.0153   -0.0532 C.ar      1 <0>        -0.0944
      7 C7          1.3101   -2.0669   -0.0241 C.ar      1 <0>        -0.0597
      8 C8          2.5383   -2.6601   -0.1006 C.ar      1 <0>        -0.1486
      9 C9          3.6783   -1.8784   -0.2720 C.ar      1 <0>         0.1682
     10 N1          3.6118   -0.5722   -0.3633 N.ar      1 <0>        -0.4736
     11 C10         5.0240   -2.5518   -0.3535 C.3       1 <0>         0.1118
     12 O1          4.8574   -3.9657   -0.2302 O.3       1 <0>        -0.3167
     13 C11         5.9822   -4.7265   -0.2834 C.ar      1 <0>         0.1656
     14 C12         7.2218   -4.1229   -0.4452 C.ar      1 <0>        -0.2742
     15 C13         8.3665   -4.8949   -0.4995 C.ar      1 <0>        -0.0399
     16 C14         8.2815   -6.2697   -0.3930 C.ar      1 <0>        -0.2081
     17 C15         7.0436   -6.8794   -0.2304 C.ar      1 <0>         0.2998
     18 C16         5.8929   -6.1046   -0.1704 C.ar      1 <0>        -0.2220
     19 N2          6.9573   -8.2698   -0.1227 N.pl3     1 <0>        -0.6650
     20 C17         8.1010   -9.0471   -0.2395 C.ar      1 <0>         0.1636
     21 C18         8.3984   -9.6765   -1.4426 C.ar      1 <0>        -0.1375
     22 C19         9.5357  -10.4485   -1.5562 C.ar      1 <0>        -0.1242
     23 C20        10.3909  -10.6036   -0.4756 C.ar      1 <0>        -0.1370
     24 C21        10.1150   -9.9885    0.7247 C.ar      1 <0>        -0.0838
     25 C22         8.9682   -9.1977    0.8561 C.ar      1 <0>        -0.1339
     26 C23         8.6697   -8.5330    2.1332 C.2       1 <0>         0.5179
     27 O2          9.4755   -8.5841    3.0526 O.co2     1 <0>        -0.6926
     28 O3          7.6154   -7.9287    2.2767 O.co2     1 <0>        -0.6654
     29 H1         -0.9509    1.8952   -0.0947 H         1 <0>         0.1263
     30 H2          1.1256    3.1740   -0.4007 H         1 <0>         0.1290
     31 H3          3.2797    2.0481   -0.5285 H         1 <0>         0.1354
     32 H4         -0.9037   -0.5355    0.0790 H         1 <0>         0.1296
     33 H5          0.4157   -2.6576    0.1089 H         1 <0>         0.1413
     34 H6          2.6253   -3.7341   -0.0280 H         1 <0>         0.1514
     35 H7          5.4873   -2.3229   -1.3132 H         1 <0>         0.0876
     36 H8          5.6612   -2.1893    0.4532 H         1 <0>         0.0889
     37 H9          7.2915   -3.0484   -0.5292 H         1 <0>         0.1173
     38 H10         9.3295   -4.4226   -0.6258 H         1 <0>         0.1167
     39 H11         9.1777   -6.8708   -0.4364 H         1 <0>         0.1146
     40 H12         4.9298   -6.5756   -0.0400 H         1 <0>         0.1225
     41 H13         6.0980   -8.6917    0.0338 H         1 <0>         0.4031
     42 H14         7.7380   -9.5612   -2.2893 H         1 <0>         0.1170
     43 H15         9.7616  -10.9358   -2.4931 H         1 <0>         0.1156
     44 H16        11.2784  -11.2109   -0.5761 H         1 <0>         0.1154
     45 H17        10.7847  -10.1133    1.5628 H         1 <0>         0.1277
@<TRIPOS>BOND
     1    1    6 ar
     2    1    2 ar
     3    1   29 1
     4    2    3 ar
     5    2   30 1
     6    3    4 ar
     7    3   31 1
     8    4   10 ar
     9    4    5 ar
    10    5    6 ar
    11    5    7 ar
    12    6   32 1
    13    7    8 ar
    14    7   33 1
    15    8    9 ar
    16    8   34 1
    17    9   10 ar
    18    9   11 1
    19   11   12 1
    20   11   35 1
    21   11   36 1
    22   12   13 1
    23   13   18 ar
    24   13   14 ar
    25   14   15 ar
    26   14   37 1
    27   15   16 ar
    28   15   38 1
    29   16   17 ar
    30   16   39 1
    31   17   18 ar
    32   17   19 1
    33   18   40 1
    34   19   20 1
    35   19   41 1
    36   20   25 ar
    37   20   21 ar
    38   21   22 ar
    39   21   42 1
    40   22   23 ar
    41   22   43 1
    42   23   24 ar
    43   23   44 1
    44   24   25 ar
    45   24   45 1
    46   25   26 1
    47   26   27 2
    48   26   28 1
@<TRIPOS>MOLECULE
ZINC01845036
   26    27     0     0     0
SMALL
USER_CHARGES
1-[3-(trifluoromethyl)phenyl]-4,5-dihydropyrazol-3-amine
@<TRIPOS>ATOM
      1 C1          1.1769    1.7819    0.0004 C.ar      1 <0>        -0.0722
      2 C2         -0.0126    1.0758    0.0080 C.ar      1 <0>        -0.1293
      3 C3         -1.2205    1.7491    0.0173 C.ar      1 <0>        -0.1395
      4 C4         -1.2433    3.1298    0.0298 C.ar      1 <0>        -0.1202
      5 C5         -0.0501    3.8429    0.0218 C.ar      1 <0>         0.2468
      6 C6          1.1623    3.1623    0.0070 C.ar      1 <0>        -0.1621
      7 N1         -0.0690    5.2369    0.0281 N.pl3     1 <0>        -0.4689
      8 C7          1.1160    6.1097    0.0204 C.3       1 <0>         0.0893
      9 C8          0.5165    7.5300    0.0318 C.3       1 <0>        -0.1304
     10 C9         -0.9769    7.2939    0.0451 C.2       1 <0>         0.3283
     11 N2         -1.2130    6.0324    0.0366 N.2       1 <0>        -0.3279
     12 N3         -1.9433    8.2881    0.0583 N.pl3     1 <0>        -0.8296
     13 C10        -2.5135    0.9751    0.0192 C.3       1 <0>         0.5086
     14 F1         -2.2361   -0.3961    0.0105 F         1 <0>        -0.1765
     15 F2         -3.2469    1.2952    1.1668 F         1 <0>        -0.1763
     16 F3         -3.2577    1.3076   -1.1177 F         1 <0>        -0.1762
     17 H1          2.1183    1.2526   -0.0111 H         1 <0>         0.1373
     18 H2          0.0021   -0.0041    0.0020 H         1 <0>         0.1367
     19 H3         -2.1870    3.6549    0.0409 H         1 <0>         0.1395
     20 H4          2.0914    3.7129    0.0004 H         1 <0>         0.1299
     21 H5          1.7223    5.9417    0.9105 H         1 <0>         0.0817
     22 H6          1.7067    5.9470   -0.8812 H         1 <0>         0.0816
     23 H7          0.8265    8.0687    0.9272 H         1 <0>         0.1030
     24 H8          0.8095    8.0760   -0.8649 H         1 <0>         0.1031
     25 H9         -1.6790    9.2214    0.0596 H         1 <0>         0.4138
     26 H10        -2.8836    8.0502    0.0663 H         1 <0>         0.4097
@<TRIPOS>BOND
     1    1    6 ar
     2    1    2 ar
     3    1   17 1
     4    2    3 ar
     5    2   18 1
     6    3    4 ar
     7    3   13 1
     8    4    5 ar
     9    4   19 1
    10    5    6 ar
    11    5    7 1
    12    6   20 1
    13    7   11 1
    14    7    8 1
    15    8    9 1
    16    8   21 1
    17    8   22 1
    18    9   10 1
    19    9   23 1
    20    9   24 1
    21   10   11 2
    22   10   12 1
    23   12   25 1
    24   12   26 1
    25   13   14 1
    26   13   15 1
    27   13   16 1
@<TRIPOS>MOLECULE
ZINC00120208
   23    25     0     0     0
SMALL
USER_CHARGES
10H-phenoxazine
@<TRIPOS>ATOM
      1 C1         -2.4083    1.3647    0.0258 C.ar      1 <0>        -0.1035
      2 C2         -2.3926   -0.0172    0.0157 C.ar      1 <0>        -0.1215
      3 C3         -1.1905   -0.7039    0.0039 C.ar      1 <0>        -0.1032
      4 C4          0.0021   -0.0041    0.0020 C.ar      1 <0>         0.0635
      5 C5         -0.0169    1.3914    0.0097 C.ar      1 <0>         0.1255
      6 C6         -1.2182    2.0734    0.0192 C.ar      1 <0>        -0.1387
      7 N1          1.2131    2.0771    0.0016 N.pl3     1 <0>        -0.6899
      8 C7          2.3085    1.3776   -0.5403 C.ar      1 <0>         0.1257
      9 C8          3.3963    2.0459   -1.0680 C.ar      1 <0>        -0.1389
     10 C9          4.4517    1.3240   -1.6002 C.ar      1 <0>        -0.1033
     11 C10         4.4155   -0.0576   -1.6029 C.ar      1 <0>        -0.1217
     12 C11         3.3283   -0.7307   -1.0721 C.ar      1 <0>        -0.1030
     13 C12         2.2717   -0.0176   -0.5362 C.ar      1 <0>         0.0632
     14 O1          1.1954   -0.6599   -0.0041 O.3       1 <0>        -0.2466
     15 H1         -3.3502    1.8931    0.0361 H         1 <0>         0.1321
     16 H2         -3.3236   -0.5646    0.0173 H         1 <0>         0.1345
     17 H3         -1.1843   -1.7838   -0.0035 H         1 <0>         0.1380
     18 H4         -1.2294    3.1533    0.0268 H         1 <0>         0.1315
     19 H5          1.3007    2.9784    0.3493 H         1 <0>         0.4202
     20 H6          3.4237    3.1255   -1.0653 H         1 <0>         0.1315
     21 H7          5.3047    1.8416   -2.0136 H         1 <0>         0.1321
     22 H8          5.2401   -0.6154   -2.0215 H         1 <0>         0.1345
     23 H9          3.3057   -1.8105   -1.0761 H         1 <0>         0.1380
@<TRIPOS>BOND
     1    1    6 ar
     2    1    2 ar
     3    1   15 1
     4    2    3 ar
     5    2   16 1
     6    3    4 ar
     7    3   17 1
     8    4   14 1
     9    4    5 ar
    10    5    6 ar
    11    5    7 1
    12    6   18 1
    13    7    8 1
    14    7   19 1
    15    8   13 ar
    16    8    9 ar
    17    9   10 ar
    18    9   20 1
    19   10   11 ar
    20   10   21 1
    21   11   12 ar
    22   11   22 1
    23   12   13 ar
    24   12   23 1
    25   13   14 1
@<TRIPOS>MOLECULE
ZINC13734161
   49    50     0     0     0
SMALL
USER_CHARGES
(5Z)-5-[(3,5-ditert-butyl-4-hydroxy-phenyl)methylene]-2-methylsulfanyl-thiazol-4-one
@<TRIPOS>ATOM
      1 C1          0.4942    1.7654    0.0793 C.3       1 <0>        -0.1516
      2 C2         -0.4268    1.9821    1.2817 C.3       1 <0>        -0.0221
      3 C3         -0.4934    3.4749    1.6106 C.3       1 <0>        -0.1428
      4 C4         -1.8296    1.4702    0.9485 C.3       1 <0>        -0.1427
      5 C5          0.1134    1.2295    2.4704 C.ar      1 <0>        -0.0904
      6 C6          1.2724    0.4966    2.3506 C.ar      1 <0>        -0.0822
      7 C7          1.7735   -0.2020    3.4561 C.ar      1 <0>        -0.1020
      8 C8          1.0915   -0.1504    4.6783 C.ar      1 <0>        -0.0718
      9 C9         -0.0666    0.5856    4.7868 C.ar      1 <0>        -0.0951
     10 C10        -0.5566    1.2814    3.6874 C.ar      1 <0>         0.1451
     11 O1         -1.6962    2.0104    3.8014 O.3       1 <0>        -0.4821
     12 C11        -0.8013    0.6425    6.1013 C.3       1 <0>        -0.0213
     13 C12        -0.0545   -0.1971    7.1397 C.3       1 <0>        -0.1496
     14 C13        -0.8795    2.0937    6.5795 C.3       1 <0>        -0.1432
     15 C14        -2.2159    0.0885    5.9193 C.3       1 <0>        -0.1430
     16 C15         3.0095   -0.9851    3.3345 C.2       1 <0>         0.0746
     17 C16         3.7592   -0.8988    2.2067 C.2       1 <0>        -0.2563
     18 C17         4.9451   -1.6851    1.7928 C.2       1 <0>         0.5352
     19 O2          5.4068   -2.5713    2.4940 O.2       1 <0>        -0.4393
     20 N1          5.4699   -1.3789    0.6275 N.2       1 <0>        -0.6011
     21 C18         4.9833   -0.4146   -0.1394 C.2       1 <0>         0.1964
     22 S1          3.5984    0.2010    0.8056 S.3       1 <0>         0.0102
     23 S2          5.5622    0.1291   -1.7122 S.3       1 <0>         0.0942
     24 C19         6.9647   -0.9930   -1.9360 C.3       1 <0>        -0.1633
     25 H1          0.5416    0.7019   -0.1549 H         1 <0>         0.0593
     26 H2          1.4935    2.1301    0.3167 H         1 <0>         0.0600
     27 H3          0.1035    2.3097   -0.7804 H         1 <0>         0.0649
     28 H4         -0.8841    4.0192    0.7508 H         1 <0>         0.0575
     29 H5         -1.1495    3.6293    2.4672 H         1 <0>         0.0758
     30 H6          0.5060    3.8396    1.8480 H         1 <0>         0.0524
     31 H7         -1.7821    0.4068    0.7142 H         1 <0>         0.0553
     32 H8         -2.4857    1.6246    1.8051 H         1 <0>         0.0582
     33 H9         -2.2203    2.0146    0.0888 H         1 <0>         0.0642
     34 H10         1.7945    0.4606    1.4058 H         1 <0>         0.1411
     35 H11         1.4737   -0.6870    5.5342 H         1 <0>         0.1408
     36 H12        -2.5020    1.5141    3.6028 H         1 <0>         0.3870
     37 H13         0.9533    0.1975    7.2693 H         1 <0>         0.0599
     38 H14        -0.5859   -0.1560    8.0905 H         1 <0>         0.0625
     39 H15         0.0012   -1.2310    6.7990 H         1 <0>         0.0593
     40 H16        -1.4116    2.6919    5.8398 H         1 <0>         0.0757
     41 H17        -1.4109    2.1348    7.5303 H         1 <0>         0.0566
     42 H18         0.1282    2.4883    6.7092 H         1 <0>         0.0521
     43 H19        -2.1601   -0.9454    5.5786 H         1 <0>         0.0556
     44 H20        -2.7473    0.1296    6.8701 H         1 <0>         0.0632
     45 H21        -2.7479    0.6867    5.1796 H         1 <0>         0.0580
     46 H22         3.3221   -1.6298    4.1427 H         1 <0>         0.1614
     47 H23         7.6796   -0.8470   -1.1262 H         1 <0>         0.1019
     48 H24         6.6104   -2.0237   -1.9265 H         1 <0>         0.1019
     49 H25         7.4487   -0.7839   -2.8900 H         1 <0>         0.1197
@<TRIPOS>BOND
     1    1    2 1
     2    1   25 1
     3    1   26 1
     4    1   27 1
     5    2    3 1
     6    2    4 1
     7    2    5 1
     8    3   28 1
     9    3   29 1
    10    3   30 1
    11    4   31 1
    12    4   32 1
    13    4   33 1
    14    5   10 ar
    15    5    6 ar
    16    6    7 ar
    17    6   34 1
    18    7    8 ar
    19    7   16 1
    20    8    9 ar
    21    8   35 1
    22    9   10 ar
    23    9   12 1
    24   10   11 1
    25   11   36 1
    26   12   13 1
    27   12   14 1
    28   12   15 1
    29   13   37 1
    30   13   38 1
    31   13   39 1
    32   14   40 1
    33   14   41 1
    34   14   42 1
    35   15   43 1
    36   15   44 1
    37   15   45 1
    38   16   17 2
    39   16   46 1
    40   17   22 1
    41   17   18 1
    42   18   19 2
    43   18   20 1
    44   20   21 2
    45   21   22 1
    46   21   23 1
    47   23   24 1
    48   24   47 1
    49   24   48 1
    50   24   49 1
@<TRIPOS>MOLECULE
ZINC00000381
   35    35     0     0     0
SMALL
USER_CHARGES

@<TRIPOS>ATOM
      1 C1         -0.0187    1.5258    0.0104 C.3       1 <0>        -0.1453
      2 C2          0.0021   -0.0041    0.0020 C.3       1 <0>        -0.0539
      3 H1          0.5293   -0.3651    0.8851 H         1 <0>         0.1099
      4 C3         -1.4117   -0.5257    0.0127 C.ar      1 <0>        -0.0811
      5 C4         -2.2755   -0.2024   -1.0170 C.ar      1 <0>        -0.0796
      6 C5         -3.5724   -0.6809   -1.0072 C.ar      1 <0>        -0.1190
      7 C6         -4.0053   -1.4830    0.0321 C.ar      1 <0>        -0.0721
      8 C7         -3.1413   -1.8070    1.0613 C.ar      1 <0>        -0.1183
      9 C8         -1.8431   -1.3321    1.0493 C.ar      1 <0>        -0.1061
     10 C9         -5.4194   -2.0038    0.0433 C.3       1 <0>        -0.0783
     11 C10        -5.4724   -3.3512   -0.6796 C.3       1 <0>        -0.0917
     12 C11        -4.6553   -4.3818    0.1022 C.3       1 <0>        -0.1514
     13 C12        -6.9253   -3.8205   -0.7778 C.3       1 <0>        -0.1483
     14 C13         0.7074   -0.4901   -1.2379 C.2       1 <0>         0.5263
     15 O1          0.1200   -1.1910   -2.0344 O.2       1 <0>        -0.5062
     16 N1          1.9912   -0.1458   -1.4616 N.am      1 <0>        -0.5980
     17 O2          2.6539   -0.6025   -2.6266 O.3       1 <0>        -0.3187
     18 H2          1.0039    1.9031    0.0027 H         1 <0>         0.0637
     19 H3         -0.5459    1.8868   -0.8726 H         1 <0>         0.0669
     20 H4         -0.5289    1.8773    0.9072 H         1 <0>         0.0769
     21 H5         -1.9373    0.4243   -1.8289 H         1 <0>         0.1181
     22 H6         -4.2475   -0.4277   -1.8113 H         1 <0>         0.1211
     23 H7         -3.4796   -2.4334    1.8734 H         1 <0>         0.1222
     24 H8         -1.1669   -1.5883    1.8515 H         1 <0>         0.1214
     25 H9         -5.7517   -2.1309    1.0736 H         1 <0>         0.0723
     26 H10        -6.0723   -1.2935   -0.4640 H         1 <0>         0.0721
     27 H11        -5.0572   -3.2426   -1.6815 H         1 <0>         0.0710
     28 H12        -5.0705   -4.4905    1.1041 H         1 <0>         0.0534
     29 H13        -4.6930   -5.3418   -0.4128 H         1 <0>         0.0531
     30 H14        -3.6202   -4.0475    0.1721 H         1 <0>         0.0596
     31 H15        -7.5075   -3.0863   -1.3347 H         1 <0>         0.0545
     32 H16        -6.9631   -4.7805   -1.2927 H         1 <0>         0.0557
     33 H17        -7.3406   -3.9292    0.2242 H         1 <0>         0.0548
     34 H18         2.4610    0.4148   -0.8245 H         1 <0>         0.4073
     35 H19         3.5709   -0.3043   -2.6999 H         1 <0>         0.3876
@<TRIPOS>BOND
     1    1    2 1
     2    1   18 1
     3    1   19 1
     4    1   20 1
     5    2    3 1
     6    2    4 1
     7    2   14 1
     8    4    9 ar
     9    4    5 ar
    10    5    6 ar
    11    5   21 1
    12    6    7 ar
    13    6   22 1
    14    7    8 ar
    15    7   10 1
    16    8    9 ar
    17    8   23 1
    18    9   24 1
    19   10   11 1
    20   10   25 1
    21   10   26 1
    22   11   12 1
    23   11   13 1
    24   11   27 1
    25   12   28 1
    26   12   29 1
    27   12   30 1
    28   13   31 1
    29   13   32 1
    30   13   33 1
    31   14   15 2
    32   14   16 am
    33   16   17 1
    34   16   34 1
    35   17   35 1
@<TRIPOS>MOLECULE
ZINC05284667
   35    35     0     0     0
SMALL
USER_CHARGES

@<TRIPOS>ATOM
      1 C1         -0.0187    1.5258    0.0104 C.3       1 <0>        -0.1453
      2 C2          0.0021   -0.0041    0.0020 C.3       1 <0>        -0.0538
      3 H1          0.5293   -0.3651    0.8851 H         1 <0>         0.1100
      4 C3          0.7074   -0.4901   -1.2379 C.ar      1 <0>        -0.0807
      5 C4          0.2220   -0.1511   -2.4870 C.ar      1 <0>        -0.0801
      6 C5          0.8690   -0.5969   -3.6243 C.ar      1 <0>        -0.1187
      7 C6          2.0018   -1.3813   -3.5125 C.ar      1 <0>        -0.0720
      8 C7          2.4878   -1.7195   -2.2634 C.ar      1 <0>        -0.1180
      9 C8          1.8432   -1.2701   -1.1261 C.ar      1 <0>        -0.1063
     10 C9          2.7066   -1.8681   -4.7524 C.3       1 <0>        -0.0793
     11 C10         3.7662   -0.8469   -5.1709 C.3       1 <0>        -0.0905
     12 C11         4.8503   -0.7664   -4.0943 C.3       1 <0>        -0.1512
     13 C12         4.3953   -1.2790   -6.4969 C.3       1 <0>        -0.1490
     14 C13        -1.4117   -0.5257    0.0127 C.2       1 <0>         0.5263
     15 O1         -1.8076   -1.2234   -0.8969 O.2       1 <0>        -0.5064
     16 N1         -2.2363   -0.2169    1.0331 N.am      1 <0>        -0.5979
     17 O2         -3.5647   -0.7070    1.0432 O.3       1 <0>        -0.3187
     18 H2          1.0039    1.9031    0.0027 H         1 <0>         0.0769
     19 H3         -0.5459    1.8868   -0.8726 H         1 <0>         0.0669
     20 H4         -0.5289    1.8773    0.9072 H         1 <0>         0.0637
     21 H5         -0.6631    0.4617   -2.5743 H         1 <0>         0.1180
     22 H6          0.4893   -0.3327   -4.6002 H         1 <0>         0.1211
     23 H7          3.3726   -2.3325   -2.1760 H         1 <0>         0.1222
     24 H8          2.2251   -1.5312   -0.1501 H         1 <0>         0.1214
     25 H9          3.1858   -2.8251   -4.5458 H         1 <0>         0.0725
     26 H10         1.9822   -1.9908   -5.5576 H         1 <0>         0.0724
     27 H11         3.3005    0.1313   -5.2914 H         1 <0>         0.0703
     28 H12         5.3160   -1.7445   -3.9738 H         1 <0>         0.0537
     29 H13         5.6052   -0.0389   -4.3925 H         1 <0>         0.0529
     30 H14         4.4021   -0.4585   -3.1496 H         1 <0>         0.0593
     31 H15         3.6230   -1.3363   -7.2639 H         1 <0>         0.0547
     32 H16         5.1502   -0.5515   -6.7951 H         1 <0>         0.0556
     33 H17         4.8610   -2.2571   -6.3764 H         1 <0>         0.0550
     34 H18        -1.9197    0.3412    1.7606 H         1 <0>         0.4073
     35 H19        -4.0792   -0.4328    1.8147 H         1 <0>         0.3877
@<TRIPOS>BOND
     1    1    2 1
     2    1   18 1
     3    1   19 1
     4    1   20 1
     5    2    3 1
     6    2    4 1
     7    2   14 1
     8    4    9 ar
     9    4    5 ar
    10    5    6 ar
    11    5   21 1
    12    6    7 ar
    13    6   22 1
    14    7    8 ar
    15    7   10 1
    16    8    9 ar
    17    8   23 1
    18    9   24 1
    19   10   11 1
    20   10   25 1
    21   10   26 1
    22   11   12 1
    23   11   13 1
    24   11   27 1
    25   12   28 1
    26   12   29 1
    27   12   30 1
    28   13   31 1
    29   13   32 1
    30   13   33 1
    31   14   15 2
    32   14   16 am
    33   16   17 1
    34   16   34 1
    35   17   35 1
@<TRIPOS>MOLECULE
ZINC17042869
   45    46     0     0     0
SMALL
USER_CHARGES
(5Z)-5-[(3,5-ditert-butyl-4-hydroxy-phenyl)methylene]-2-thioxo-thiazolidin-4-one
@<TRIPOS>ATOM
      1 C1          4.2258   -1.0731   -0.1978 C.3       1 <0>        -0.1486
      2 C2          3.3249   -2.2226    0.2582 C.3       1 <0>        -0.0115
      3 C3          3.8243   -2.7601    1.6008 C.3       1 <0>        -0.1404
      4 C4          3.3597   -3.3421   -0.7841 C.3       1 <0>        -0.1406
      5 C5          1.9115   -1.7227    0.4116 C.ar      1 <0>        -0.1190
      6 C6          1.6166   -0.4043    0.1472 C.ar      1 <0>        -0.0622
      7 C7          0.3028    0.0589    0.2906 C.ar      1 <0>        -0.1095
      8 C8         -0.7029   -0.8216    0.7081 C.ar      1 <0>        -0.0667
      9 C9         -0.3977   -2.1394    0.9641 C.ar      1 <0>        -0.1645
     10 C10         0.9081   -2.5937    0.8201 C.ar      1 <0>         0.1816
     11 O1          1.2045   -3.8931    1.0790 O.3       1 <0>        -0.5082
     12 C11        -1.4801   -3.0896    1.4074 C.3       1 <0>        -0.0279
     13 C12        -2.8135   -2.3433    1.4855 C.3       1 <0>        -0.1467
     14 C13        -1.5957   -4.2363    0.4011 C.3       1 <0>        -0.1524
     15 C14        -1.1301   -3.6541    2.7858 C.3       1 <0>        -0.1522
     16 C15        -0.0178    1.4642    0.0101 C.2       1 <0>         0.0078
     17 C16        -1.3123    1.8712   -0.0240 C.2       1 <0>        -0.2107
     18 C17        -1.8678    3.2365   -0.1128 C.2       1 <0>         0.5287
     19 O2         -1.1487    4.2169   -0.1687 O.3       1 <0>        -0.5050
     20 N1         -3.1860    3.3401   -0.1281 N.2       1 <0>        -0.6507
     21 C18        -3.9791    2.2512   -0.0651 C.2       1 <0>         0.3756
     22 S1         -5.6896    2.1799   -0.0723 S.2       1 <0>        -0.5762
     23 S2         -2.8134    0.9013    0.0185 S.3       1 <0>        -0.1410
     24 H1          3.8668   -0.6866   -1.1631 H         1 <0>         0.0587
     25 H2          5.2574   -1.4380   -0.3097 H         1 <0>         0.0560
     26 H3          4.2008   -0.2682    0.5516 H         1 <0>         0.0586
     27 H4          3.1766   -3.5865    1.9287 H         1 <0>         0.0708
     28 H5          3.7994   -1.9552    2.3501 H         1 <0>         0.0497
     29 H6          4.8560   -3.1250    1.4888 H         1 <0>         0.0507
     30 H7          2.7120   -4.1685   -0.4563 H         1 <0>         0.0708
     31 H8          4.3914   -3.7070   -0.8960 H         1 <0>         0.0506
     32 H9          3.0007   -2.9556   -1.7494 H         1 <0>         0.0500
     33 H10         2.3970    0.2717   -0.1698 H         1 <0>         0.1343
     34 H11        -1.7169   -0.4686    0.8246 H         1 <0>         0.1558
     35 H12         0.4121   -4.5841    1.4024 H         1 <0>         0.4189
     36 H13        -3.6035   -3.0370    1.8091 H         1 <0>         0.0594
     37 H14        -3.0651   -1.9375    0.4945 H         1 <0>         0.0689
     38 H15        -2.7304   -1.5189    2.2090 H         1 <0>         0.0634
     39 H16        -2.3858   -4.9299    0.7247 H         1 <0>         0.0658
     40 H17        -0.6371   -4.7729    0.3450 H         1 <0>         0.0561
     41 H18        -1.8473   -3.8305   -0.5899 H         1 <0>         0.0666
     42 H19        -1.9202   -4.3477    3.1094 H         1 <0>         0.0658
     43 H20        -1.0470   -2.8297    3.5093 H         1 <0>         0.0650
     44 H21        -0.1715   -4.1907    2.7296 H         1 <0>         0.0563
     45 H22         0.7910    2.1871   -0.1724 H         1 <0>         0.1482
@<TRIPOS>BOND
     1    1    2 1
     2    1   24 1
     3    1   25 1
     4    1   26 1
     5    2    3 1
     6    2    4 1
     7    2    5 1
     8    3   27 1
     9    3   28 1
    10    3   29 1
    11    4   30 1
    12    4   31 1
    13    4   32 1
    14    5   10 ar
    15    5    6 ar
    16    6    7 ar
    17    6   33 1
    18    7    8 ar
    19    7   16 1
    20    8    9 ar
    21    8   34 1
    22    9   10 ar
    23    9   12 1
    24   10   11 1
    25   11   35 1
    26   12   13 1
    27   12   14 1
    28   12   15 1
    29   13   36 1
    30   13   37 1
    31   13   38 1
    32   14   39 1
    33   14   40 1
    34   14   41 1
    35   15   42 1
    36   15   43 1
    37   15   44 1
    38   16   17 2
    39   16   45 1
    40   17   23 1
    41   17   18 1
    42   18   19 1
    43   18   20 2
    44   20   21 1
    45   21   22 2
    46   21   23 1
@<TRIPOS>MOLECULE
ZINC00608008
   43    45     0     0     0
SMALL
USER_CHARGES
2-[1-(4-chlorobenzoyl)-5-methoxy-2-methyl-indol-3-yl]ethanehydroxamic acid
@<TRIPOS>ATOM
      1 C1          1.7006   -0.5924   -2.5275 C.3       1 <0>        -0.1046
      2 C2          2.1699   -0.7436   -1.1035 C.2       1 <0>         0.1234
      3 C3          1.4276   -0.4881   -0.0172 C.2       1 <0>        -0.1461
      4 C4          2.2636   -0.7708    1.1547 C.ar      1 <0>        -0.0352
      5 C5          2.0527   -0.7001    2.5325 C.ar      1 <0>        -0.1108
      6 C6          3.0730   -1.0449    3.3978 C.ar      1 <0>         0.1133
      7 C7          4.3044   -1.4605    2.8995 C.ar      1 <0>        -0.1750
      8 C8          4.5223   -1.5336    1.5409 C.ar      1 <0>        -0.0824
      9 C9          3.5081   -1.1908    0.6552 C.ar      1 <0>         0.0765
     10 N1          3.4230   -1.1615   -0.7260 N.am      1 <0>        -0.5041
     11 C10         4.4170   -1.4968   -1.5722 C.2       1 <0>         0.6025
     12 O1          4.5835   -2.6596   -1.8836 O.2       1 <0>        -0.4276
     13 C11         5.3036   -0.4513   -2.1209 C.ar      1 <0>        -0.1664
     14 C12         5.1794    0.8712   -1.6888 C.ar      1 <0>        -0.0421
     15 C13         6.0135    1.8420   -2.2014 C.ar      1 <0>        -0.1202
     16 C14         6.9662    1.5100   -3.1507 C.ar      1 <0>         0.0042
     17 C15         7.0908    0.2012   -3.5871 C.ar      1 <0>        -0.1235
     18 C16         6.2662   -0.7796   -3.0783 C.ar      1 <0>        -0.0380
     19 Cl1         8.0086    2.7392   -3.7958 Cl        1 <0>        -0.0521
     20 O2          2.8735   -0.9781    4.7412 O.3       1 <0>        -0.3165
     21 C17         3.9701   -1.3487    5.5791 C.3       1 <0>         0.0269
     22 C18        -0.0004   -0.0067   -0.0023 C.3       1 <0>        -0.0506
     23 C19        -0.0225    1.5001    0.0037 C.2       1 <0>         0.5224
     24 O3          1.0187    2.1219   -0.0034 O.2       1 <0>        -0.5061
     25 N2         -1.1995    2.1567    0.0113 N.am      1 <0>        -0.6009
     26 O4         -1.2203    3.5726    0.0169 O.3       1 <0>        -0.3197
     27 H1          1.9156    0.4178   -2.8757 H         1 <0>         0.0876
     28 H2          2.2198   -1.3128   -3.1597 H         1 <0>         0.0705
     29 H3          0.6268   -0.7730   -2.5773 H         1 <0>         0.0926
     30 H4          1.0977   -0.3774    2.9200 H         1 <0>         0.1331
     31 H5          5.0960   -1.7284    3.5837 H         1 <0>         0.1359
     32 H6          5.4816   -1.8569    1.1645 H         1 <0>         0.1230
     33 H7          4.4343    1.1319   -0.9518 H         1 <0>         0.1447
     34 H8          5.9214    2.8641   -1.8649 H         1 <0>         0.1455
     35 H9          7.8357   -0.0514   -4.3272 H         1 <0>         0.1464
     36 H10         6.3645   -1.7997   -3.4190 H         1 <0>         0.1477
     37 H11         4.2498   -2.3824    5.3756 H         1 <0>         0.0554
     38 H12         4.8192   -0.6959    5.3763 H         1 <0>         0.0554
     39 H13         3.6779   -1.2504    6.6246 H         1 <0>         0.1006
     40 H14        -0.5007   -0.3810    0.8908 H         1 <0>         0.1111
     41 H15        -0.5169   -0.3742   -0.8891 H         1 <0>         0.1085
     42 H16        -2.0323    1.6594    0.0129 H         1 <0>         0.4075
     43 H17        -2.1094    3.9528    0.0222 H         1 <0>         0.3870
@<TRIPOS>BOND
     1    1    2 1
     2    1   27 1
     3    1   28 1
     4    1   29 1
     5    2   10 1
     6    2    3 2
     7    3    4 1
     8    3   22 1
     9    4    9 ar
    10    4    5 ar
    11    5    6 ar
    12    5   30 1
    13    6    7 ar
    14    6   20 1
    15    7    8 ar
    16    7   31 1
    17    8    9 ar
    18    8   32 1
    19    9   10 1
    20   10   11 am
    21   11   12 2
    22   11   13 1
    23   13   18 ar
    24   13   14 ar
    25   14   15 ar
    26   14   33 1
    27   15   16 ar
    28   15   34 1
    29   16   17 ar
    30   16   19 1
    31   17   18 ar
    32   17   35 1
    33   18   36 1
    34   20   21 1
    35   21   37 1
    36   21   38 1
    37   21   39 1
    38   22   23 1
    39   22   40 1
    40   22   41 1
    41   23   24 2
    42   23   25 am
    43   25   26 1
    44   25   42 1
    45   26   43 1
@<TRIPOS>MOLECULE
ZINC01672534
   25    27     0     0     0
SMALL
USER_CHARGES
9,10-dihydroacridine
@<TRIPOS>ATOM
      1 C1         -2.4157    1.3367    0.0229 C.ar      1 <0>        -0.1543
      2 C2         -2.3970   -0.0463    0.0118 C.ar      1 <0>        -0.0841
      3 C3         -1.1909   -0.7178    0.0017 C.ar      1 <0>        -0.1701
      4 C4          0.0021   -0.0041    0.0020 C.ar      1 <0>         0.1862
      5 C5         -0.0167    1.3825    0.0096 C.ar      1 <0>        -0.1336
      6 C6         -1.2315    2.0477    0.0190 C.ar      1 <0>        -0.0818
      7 C7          1.2559    2.1806    0.0018 C.3       1 <0>        -0.0262
      8 C8          2.4410    1.3486    0.4013 C.ar      1 <0>        -0.1336
      9 C9          3.6094    1.9810    0.7928 C.ar      1 <0>        -0.0817
     10 C10         4.7153    1.2384    1.1583 C.ar      1 <0>        -0.1543
     11 C11         4.6640   -0.1436    1.1353 C.ar      1 <0>        -0.0841
     12 C12         3.5030   -0.7825    0.7487 C.ar      1 <0>        -0.1701
     13 C13         2.3882   -0.0370    0.3823 C.ar      1 <0>         0.1863
     14 N1          1.2171   -0.6921   -0.0038 N.pl3     1 <0>        -0.6751
     15 H1         -3.3592    1.8622    0.0324 H         1 <0>         0.1237
     16 H2         -3.3243   -0.5998    0.0113 H         1 <0>         0.1261
     17 H3         -1.1741   -1.7977   -0.0067 H         1 <0>         0.1242
     18 H4         -1.2529    3.1275    0.0284 H         1 <0>         0.1257
     19 H5          1.4210    2.5753   -1.0008 H         1 <0>         0.0827
     20 H6          1.1565    3.0137    0.6976 H         1 <0>         0.0828
     21 H7          3.6559    3.0598    0.8127 H         1 <0>         0.1257
     22 H8          5.6229    1.7385    1.4625 H         1 <0>         0.1237
     23 H9          5.5305   -0.7218    1.4200 H         1 <0>         0.1261
     24 H10         3.4604   -1.8615    0.7316 H         1 <0>         0.1242
     25 H11         1.2476   -1.6227   -0.2757 H         1 <0>         0.4115
@<TRIPOS>BOND
     1    1    6 ar
     2    1    2 ar
     3    1   15 1
     4    2    3 ar
     5    2   16 1
     6    3    4 ar
     7    3   17 1
     8    4   14 1
     9    4    5 ar
    10    5    6 ar
    11    5    7 1
    12    6   18 1
    13    7    8 1
    14    7   19 1
    15    7   20 1
    16    8   13 ar
    17    8    9 ar
    18    9   10 ar
    19    9   21 1
    20   10   11 ar
    21   10   22 1
    22   11   12 ar
    23   11   23 1
    24   12   13 ar
    25   12   24 1
    26   13   14 1
    27   14   25 1
@<TRIPOS>MOLECULE
ZINC00607214
   47    49     0     0     0
SMALL
USER_CHARGES
3-[5-(4-chlorophenyl)-1-(4-methoxyphenyl)-pyrazol-3-yl]-N-hydroxy-N-methyl-propanamide
@<TRIPOS>ATOM
      1 C1         -5.5657   -3.5981   -5.7010 C.3       1 <0>         0.0664
      2 N1         -4.8470   -2.5672   -4.9481 N.am      1 <0>        -0.4822
      3 C2         -5.0427   -2.4429   -3.6204 C.2       1 <0>         0.5419
      4 O1         -5.8138   -3.1844   -3.0490 O.2       1 <0>        -0.5251
      5 C3         -4.3033   -1.3825   -2.8458 C.3       1 <0>        -0.1233
      6 C4         -4.7036   -1.4559   -1.3709 C.3       1 <0>        -0.0253
      7 C5         -3.9642   -0.3955   -0.5964 C.2       1 <0>         0.0817
      8 C6         -4.5502    0.5802    0.2102 C.2       1 <0>        -0.2338
      9 C7         -3.5478    1.3440    0.7396 C.2       1 <0>         0.1223
     10 N2         -2.3673    0.8528    0.2605 N.pl3     1 <0>        -0.3162
     11 N3         -2.6646   -0.2362   -0.5688 N.2       1 <0>        -0.2712
     12 C8         -1.0876    1.3459    0.5512 C.ar      1 <0>         0.1027
     13 C9         -0.1632    1.5233   -0.4697 C.ar      1 <0>        -0.0621
     14 C10         1.0952    2.0139   -0.1835 C.ar      1 <0>        -0.1374
     15 C11         1.4380    2.3247    1.1245 C.ar      1 <0>         0.1372
     16 C12         0.5165    2.1427    2.1457 C.ar      1 <0>        -0.1929
     17 C13        -0.7423    1.6526    1.8608 C.ar      1 <0>        -0.0723
     18 O2          2.6770    2.8082    1.4056 O.3       1 <0>        -0.3119
     19 C14         2.9618    3.1069    2.7737 C.3       1 <0>         0.0237
     20 C15        -3.7117    2.4915    1.6584 C.ar      1 <0>        -0.0320
     21 C16        -2.7443    3.4960    1.7039 C.ar      1 <0>        -0.0938
     22 C17        -2.9051    4.5665    2.5590 C.ar      1 <0>        -0.1068
     23 C18        -4.0184    4.6398    3.3790 C.ar      1 <0>        -0.0255
     24 C19        -4.9791    3.6433    3.3420 C.ar      1 <0>        -0.1075
     25 C20        -4.8316    2.5708    2.4871 C.ar      1 <0>        -0.0766
     26 Cl1        -4.2103    5.9861    4.4582 Cl        1 <0>        -0.0631
     27 O3         -3.9467   -1.7015   -5.6152 O.3       1 <0>        -0.3277
     28 H1         -6.5103   -3.1917   -6.0627 H         1 <0>         0.0653
     29 H2         -4.9596   -3.9181   -6.5485 H         1 <0>         0.0787
     30 H3         -5.7622   -4.4515   -5.0520 H         1 <0>         0.0945
     31 H4         -4.5570   -0.3994   -3.2426 H         1 <0>         0.0985
     32 H5         -3.2298   -1.5462   -2.9396 H         1 <0>         0.1035
     33 H6         -4.4499   -2.4389   -0.9742 H         1 <0>         0.0915
     34 H7         -5.7771   -1.2922   -1.2772 H         1 <0>         0.0941
     35 H8         -5.6078    0.7068    0.3884 H         1 <0>         0.1567
     36 H9         -0.4300    1.2818   -1.4879 H         1 <0>         0.1408
     37 H10         1.8130    2.1555   -0.9779 H         1 <0>         0.1429
     38 H11         0.7839    2.3848    3.1637 H         1 <0>         0.1398
     39 H12        -1.4597    1.5116    2.6557 H         1 <0>         0.1328
     40 H13         2.2639    3.8630    3.1335 H         1 <0>         0.0587
     41 H14         2.8577    2.2021    3.3725 H         1 <0>         0.0584
     42 H15         3.9812    3.4836    2.8587 H         1 <0>         0.1042
     43 H16        -1.8732    3.4374    1.0683 H         1 <0>         0.1363
     44 H17        -2.1592    5.3468    2.5919 H         1 <0>         0.1378
     45 H18        -5.8455    3.7058    3.9838 H         1 <0>         0.1412
     46 H19        -5.5811    1.7938    2.4595 H         1 <0>         0.1414
     47 H20        -3.8728   -1.8670   -6.5650 H         1 <0>         0.3935
@<TRIPOS>BOND
     1    1    2 1
     2    1   28 1
     3    1   29 1
     4    1   30 1
     5    2    3 am
     6    2   27 1
     7    3    4 2
     8    3    5 1
     9    5    6 1
    10    5   31 1
    11    5   32 1
    12    6    7 1
    13    6   33 1
    14    6   34 1
    15    7   11 2
    16    7    8 1
    17    8    9 2
    18    8   35 1
    19    9   10 1
    20    9   20 1
    21   10   11 1
    22   10   12 1
    23   12   17 ar
    24   12   13 ar
    25   13   14 ar
    26   13   36 1
    27   14   15 ar
    28   14   37 1
    29   15   16 ar
    30   15   18 1
    31   16   17 ar
    32   16   38 1
    33   17   39 1
    34   18   19 1
    35   19   40 1
    36   19   41 1
    37   19   42 1
    38   20   25 ar
    39   20   21 ar
    40   21   22 ar
    41   21   43 1
    42   22   23 ar
    43   22   44 1
    44   23   24 ar
    45   23   26 1
    46   24   25 ar
    47   24   45 1
    48   25   46 1
    49   27   47 1
@<TRIPOS>MOLECULE
ZINC00000654
   31    33     0     0     0
SMALL
USER_CHARGES

@<TRIPOS>ATOM
      1 C1         -0.0187    1.5258    0.0104 C.3       1 <0>        -0.1177
      2 C2          0.0021   -0.0041    0.0020 C.3       1 <0>        -0.1302
      3 H1          0.5293   -0.3651    0.8851 H         1 <0>         0.0696
      4 C3         -1.4117   -0.5257    0.0127 C.ar      1 <0>        -0.0465
      5 C4         -2.2757   -0.2021   -1.0175 C.ar      1 <0>        -0.0736
      6 C5         -3.5702   -0.6804   -1.0086 C.ar      1 <0>        -0.1235
      7 C6         -4.0091   -1.4875    0.0354 C.ar      1 <0>         0.0896
      8 C7         -3.1416   -1.8087    1.0662 C.ar      1 <0>        -0.1493
      9 C8         -1.8426   -1.3316    1.0489 C.ar      1 <0>        -0.0901
     10 C9         -3.5928   -2.6795    2.2074 C.3       1 <0>        -0.0243
     11 C10        -4.8387   -3.4324    1.8330 C.ar      1 <0>        -0.1885
     12 C11        -5.2121   -4.5453    2.5680 C.ar      1 <0>        -0.0429
     13 C12        -6.3657   -5.2244    2.2030 C.ar      1 <0>        -0.2041
     14 C13        -7.1001   -4.7709    1.1250 C.ar      1 <0>         0.1341
     15 N1         -6.7179   -3.7085    0.4456 N.ar      1 <0>        -0.4962
     16 C14        -5.6216   -3.0307    0.7616 C.ar      1 <0>         0.3311
     17 O1         -5.2834   -1.9465    0.0249 O.3       1 <0>        -0.2354
     18 C15         0.7074   -0.4901   -1.2379 C.2       1 <0>         0.5035
     19 O2          1.4615   -1.4461   -1.1751 O.co2     1 <0>        -0.6963
     20 O3          0.5241    0.0728   -2.3037 O.co2     1 <0>        -0.6885
     21 H2          1.0039    1.9031    0.0027 H         1 <0>         0.0494
     22 H3         -0.5459    1.8868   -0.8726 H         1 <0>         0.0611
     23 H4         -0.5289    1.8773    0.9072 H         1 <0>         0.0376
     24 H5         -1.9372    0.4246   -1.8293 H         1 <0>         0.1458
     25 H6         -4.2439   -0.4272   -1.8139 H         1 <0>         0.1325
     26 H7         -1.1649   -1.5866    1.8501 H         1 <0>         0.1267
     27 H8         -2.8030   -3.3893    2.4533 H         1 <0>         0.0913
     28 H9         -3.7965   -2.0559    3.0779 H         1 <0>         0.0900
     29 H10        -4.6181   -4.8775    3.4066 H         1 <0>         0.1403
     30 H11        -6.6849   -6.0965    2.7545 H         1 <0>         0.1394
     31 H12        -7.9993   -5.2940    0.8348 H         1 <0>         0.1648
@<TRIPOS>BOND
     1    1    2 1
     2    1   21 1
     3    1   22 1
     4    1   23 1
     5    2    3 1
     6    2    4 1
     7    2   18 1
     8    4    9 ar
     9    4    5 ar
    10    5    6 ar
    11    5   24 1
    12    6    7 ar
    13    6   25 1
    14    7   17 1
    15    7    8 ar
    16    8    9 ar
    17    8   10 1
    18    9   26 1
    19   10   11 1
    20   10   27 1
    21   10   28 1
    22   11   16 ar
    23   11   12 ar
    24   12   13 ar
    25   12   29 1
    26   13   14 ar
    27   13   30 1
    28   14   15 ar
    29   14   31 1
    30   15   16 ar
    31   16   17 1
    32   18   19 2
    33   18   20 1
@<TRIPOS>MOLECULE
ZINC03831354
   31    33     0     0     0
SMALL
USER_CHARGES

@<TRIPOS>ATOM
      1 C1         -0.0187    1.5258    0.0104 C.3       1 <0>        -0.1189
      2 C2          0.0021   -0.0041    0.0020 C.3       1 <0>        -0.1326
      3 H1          0.5293   -0.3651    0.8851 H         1 <0>         0.0719
      4 C3          0.7074   -0.4901   -1.2379 C.ar      1 <0>        -0.0350
      5 C4          0.2215   -0.1509   -2.4874 C.ar      1 <0>        -0.0500
      6 C5          0.8678   -0.5949   -3.6231 C.ar      1 <0>        -0.1253
      7 C6          2.0075   -1.3842   -3.5143 C.ar      1 <0>         0.0889
      8 C7          2.4908   -1.7230   -2.2613 C.ar      1 <0>        -0.1504
      9 C8          1.8426   -1.2697   -1.1258 C.ar      1 <0>        -0.0957
     10 C9          3.7218   -2.5766   -2.1172 C.3       1 <0>        -0.0239
     11 C10         4.5041   -2.5912   -3.4007 C.ar      1 <0>        -0.1884
     12 C11         5.8292   -2.9939   -3.3892 C.ar      1 <0>        -0.0435
     13 C12         6.5311   -2.9985   -4.5861 C.ar      1 <0>        -0.2055
     14 C13         5.8890   -2.6039   -5.7433 C.ar      1 <0>         0.1337
     15 N1          4.6269   -2.2258   -5.7210 N.ar      1 <0>        -0.4969
     16 C14         3.9201   -2.2070   -4.5979 C.ar      1 <0>         0.3321
     17 O1          2.6268   -1.8095   -4.6414 O.3       1 <0>        -0.2350
     18 C15        -1.4117   -0.5257    0.0127 C.2       1 <0>         0.4999
     19 O2         -1.8097   -1.2271   -0.9017 O.co2     1 <0>        -0.6855
     20 O3         -2.1576   -0.2463    0.9358 O.co2     1 <0>        -0.6967
     21 H2          1.0039    1.9031    0.0027 H         1 <0>         0.0406
     22 H3         -0.5459    1.8868   -0.8726 H         1 <0>         0.0484
     23 H4         -0.5289    1.8773    0.9072 H         1 <0>         0.0610
     24 H5         -0.6635    0.4619   -2.5745 H         1 <0>         0.1317
     25 H6          0.4874   -0.3291   -4.5983 H         1 <0>         0.1303
     26 H7          2.2228   -1.5297   -0.1490 H         1 <0>         0.1231
     27 H8          4.3466   -2.1761   -1.3189 H         1 <0>         0.0892
     28 H9          3.4267   -3.5947   -1.8635 H         1 <0>         0.0901
     29 H10         6.3058   -3.2974   -2.4688 H         1 <0>         0.1396
     30 H11         7.5660   -3.3062   -4.6123 H         1 <0>         0.1387
     31 H12         6.4285   -2.6049   -6.6789 H         1 <0>         0.1642
@<TRIPOS>BOND
     1    1    2 1
     2    1   21 1
     3    1   22 1
     4    1   23 1
     5    2    3 1
     6    2    4 1
     7    2   18 1
     8    4    9 ar
     9    4    5 ar
    10    5    6 ar
    11    5   24 1
    12    6    7 ar
    13    6   25 1
    14    7   17 1
    15    7    8 ar
    16    8    9 ar
    17    8   10 1
    18    9   26 1
    19   10   11 1
    20   10   27 1
    21   10   28 1
    22   11   16 ar
    23   11   12 ar
    24   12   13 ar
    25   12   29 1
    26   13   14 ar
    27   13   30 1
    28   14   15 ar
    29   14   31 1
    30   15   16 ar
    31   16   17 1
    32   18   19 2
    33   18   20 1
@<TRIPOS>MOLECULE
ZINC00000323
   30    31     0     0     0
SMALL
USER_CHARGES

@<TRIPOS>ATOM
      1 C1         -0.0187    1.5258    0.0104 C.3       1 <0>        -0.1172
      2 C2          0.0021   -0.0041    0.0020 C.3       1 <0>        -0.1347
      3 H1          0.5293   -0.3651    0.8851 H         1 <0>         0.0717
      4 C3         -1.4117   -0.5257    0.0127 C.ar      1 <0>        -0.0029
      5 C4         -2.2739   -0.2004   -1.0193 C.ar      1 <0>        -0.1133
      6 C5         -3.5699   -0.6745   -1.0160 C.ar      1 <0>        -0.0792
      7 C6         -4.0111   -1.4830    0.0296 C.ar      1 <0>        -0.1102
      8 C7         -3.1382   -1.8086    1.0683 C.ar      1 <0>         0.1050
      9 C8         -1.8402   -1.3319    1.0508 C.ar      1 <0>        -0.1571
     10 F1         -3.5585   -2.5916    2.0859 F         1 <0>        -0.1420
     11 C9         -5.4035   -1.9951    0.0386 C.ar      1 <0>        -0.0319
     12 C10        -6.4707   -1.1232   -0.1677 C.ar      1 <0>        -0.1071
     13 C11        -7.7639   -1.6051   -0.1582 C.ar      1 <0>        -0.1217
     14 C12        -8.0017   -2.9508    0.0555 C.ar      1 <0>        -0.1252
     15 C13        -6.9462   -3.8209    0.2608 C.ar      1 <0>        -0.1197
     16 C14        -5.6486   -3.3509    0.2476 C.ar      1 <0>        -0.1022
     17 C15         0.7074   -0.4901   -1.2379 C.2       1 <0>         0.5045
     18 O1          1.4615   -1.4461   -1.1751 O.co2     1 <0>        -0.6939
     19 O2          0.5241    0.0728   -2.3037 O.co2     1 <0>        -0.6870
     20 H2          1.0039    1.9031    0.0027 H         1 <0>         0.0509
     21 H3         -0.5459    1.8868   -0.8726 H         1 <0>         0.0620
     22 H4         -0.5289    1.8773    0.9072 H         1 <0>         0.0384
     23 H5         -1.9319    0.4266   -1.8295 H         1 <0>         0.1421
     24 H6         -4.2413   -0.4190   -1.8224 H         1 <0>         0.1287
     25 H7         -1.1615   -1.5863    1.8516 H         1 <0>         0.1327
     26 H8         -6.2861   -0.0722   -0.3342 H         1 <0>         0.1244
     27 H9         -8.5918   -0.9301   -0.3176 H         1 <0>         0.1216
     28 H10        -9.0153   -3.3236    0.0624 H         1 <0>         0.1193
     29 H11        -7.1375   -4.8706    0.4275 H         1 <0>         0.1216
     30 H12        -4.8249   -4.0319    0.4032 H         1 <0>         0.1224
@<TRIPOS>BOND
     1    1    2 1
     2    1   20 1
     3    1   21 1
     4    1   22 1
     5    2    3 1
     6    2    4 1
     7    2   17 1
     8    4    9 ar
     9    4    5 ar
    10    5    6 ar
    11    5   23 1
    12    6    7 ar
    13    6   24 1
    14    7    8 ar
    15    7   11 1
    16    8    9 ar
    17    8   10 1
    18    9   25 1
    19   11   16 ar
    20   11   12 ar
    21   12   13 ar
    22   12   26 1
    23   13   14 ar
    24   13   27 1
    25   14   15 ar
    26   14   28 1
    27   15   16 ar
    28   15   29 1
    29   16   30 1
    30   17   18 2
    31   17   19 1
@<TRIPOS>MOLECULE
ZINC00000909
   31    32     0     0     0
SMALL
USER_CHARGES

@<TRIPOS>ATOM
      1 C1          4.2827    1.3971    3.6211 C.ar      1 <0>        -0.0901
      2 C2          4.0812    2.1059    2.4498 C.ar      1 <0>        -0.1418
      3 C3          3.8899    1.4364    1.2591 C.ar      1 <0>        -0.0669
      4 C4          3.9003    0.0401    1.2374 C.ar      1 <0>        -0.1712
      5 C5          4.1046   -0.6688    2.4231 C.ar      1 <0>        -0.0491
      6 C6          4.2942    0.0135    3.6068 C.ar      1 <0>        -0.1320
      7 C7          3.6954   -0.6841   -0.0347 C.2       1 <0>         0.4587
      8 O1          3.4192   -0.0692   -1.0468 O.2       1 <0>        -0.4549
      9 C8          3.8259   -2.1508   -0.0764 C.ar      1 <0>        -0.2425
     10 C9          2.6853   -2.9574   -0.1430 C.ar      1 <0>        -0.0584
     11 C10         2.8144   -4.3276   -0.1817 C.ar      1 <0>        -0.1775
     12 C11         4.0705   -4.9145   -0.1546 C.ar      1 <0>        -0.0608
     13 C12         5.2057   -4.1334   -0.0885 C.ar      1 <0>        -0.0949
     14 C13         5.0971   -2.7485   -0.0554 C.ar      1 <0>         0.2645
     15 N1          6.2380   -1.9602    0.0044 N.pl3     1 <0>        -0.8631
     16 C14         6.5653   -4.7827   -0.0586 C.3       1 <0>        -0.1515
     17 C15         7.0197   -4.9313    1.3705 C.2       1 <0>         0.4954
     18 O2          6.3057   -4.5457    2.2804 O.co2     1 <0>        -0.6822
     19 O3          8.1014   -5.4371    1.6168 O.co2     1 <0>        -0.7048
     20 H1          4.4361    1.9264    4.5500 H         1 <0>         0.1241
     21 H2          4.0735    3.1857    2.4680 H         1 <0>         0.1249
     22 H3          3.7321    1.9908    0.3458 H         1 <0>         0.1298
     23 H4          4.1134   -1.7487    2.4134 H         1 <0>         0.1413
     24 H5          4.4523   -0.5335    4.5245 H         1 <0>         0.1298
     25 H6          1.7043   -2.5059   -0.1637 H         1 <0>         0.1147
     26 H7          1.9325   -4.9489   -0.2331 H         1 <0>         0.1166
     27 H8          4.1606   -5.9903   -0.1850 H         1 <0>         0.1171
     28 H9          6.1584   -0.9986    0.1036 H         1 <0>         0.3892
     29 H10         7.1149   -2.3709   -0.0532 H         1 <0>         0.4037
     30 H11         6.5089   -5.7658   -0.5261 H         1 <0>         0.0704
     31 H12         7.2766   -4.1617   -0.6033 H         1 <0>         0.0616
@<TRIPOS>BOND
     1    1    6 ar
     2    1    2 ar
     3    1   20 1
     4    2    3 ar
     5    2   21 1
     6    3    4 ar
     7    3   22 1
     8    4    5 ar
     9    4    7 1
    10    5    6 ar
    11    5   23 1
    12    6   24 1
    13    7    8 2
    14    7    9 1
    15    9   14 ar
    16    9   10 ar
    17   10   11 ar
    18   10   25 1
    19   11   12 ar
    20   11   26 1
    21   12   13 ar
    22   12   27 1
    23   13   14 ar
    24   13   16 1
    25   14   15 1
    26   15   28 1
    27   15   29 1
    28   16   17 1
    29   16   30 1
    30   16   31 1
    31   17   18 2
    32   17   19 1
@<TRIPOS>MOLECULE
ZINC01490471
   49    51     0     0     0
SMALL
USER_CHARGES
N-[3-[5-(4-chlorophenyl)-1-(4-methoxyphenyl)-pyrazol-3-yl]-1-methyl-prop-2-ynyl]-N-hydroxy-acetamide
@<TRIPOS>ATOM
      1 C1          5.3193   -0.4261    0.4050 C.3       1 <0>        -0.1660
      2 C2          5.0926    0.8642   -0.3854 C.3       1 <0>         0.2885
      3 H1          5.3554    0.7010   -1.4306 H         1 <0>         0.1256
      4 C3          3.6766    1.2552   -0.2907 C.1       1 <0>        -0.1319
      5 C4          2.5473    1.5671   -0.2153 C.1       1 <0>        -0.0762
      6 C5          1.1699    1.9475   -0.1232 C.2       1 <0>         0.1845
      7 C6          0.0724    1.1794   -0.5534 C.2       1 <0>        -0.2162
      8 C7         -1.0616    1.8921   -0.2950 C.2       1 <0>         0.1274
      9 N1         -0.6851    3.0689    0.2885 N.pl3     1 <0>        -0.3087
     10 N2          0.7125    3.0776    0.3801 N.2       1 <0>        -0.2484
     11 C8         -1.5451    4.0895    0.7147 C.ar      1 <0>         0.0980
     12 C9         -1.2519    5.4142    0.4178 C.ar      1 <0>        -0.0589
     13 C10        -2.1025    6.4190    0.8335 C.ar      1 <0>        -0.1950
     14 C11        -3.2447    6.1064    1.5567 C.ar      1 <0>         0.1401
     15 C12        -3.5353    4.7837    1.8585 C.ar      1 <0>        -0.1351
     16 C13        -2.6883    3.7775    1.4390 C.ar      1 <0>        -0.0708
     17 O1         -4.0792    7.0967    1.9701 O.3       1 <0>        -0.3111
     18 C14        -3.7186    8.4355    1.6243 C.3       1 <0>         0.0235
     19 C15        -2.4476    1.4666   -0.5897 C.ar      1 <0>        -0.0347
     20 C16        -3.4472    2.4209   -0.7813 C.ar      1 <0>        -0.0924
     21 C17        -4.7369    2.0185   -1.0602 C.ar      1 <0>        -0.1054
     22 C18        -5.0422    0.6703   -1.1405 C.ar      1 <0>        -0.0236
     23 C19        -4.0553   -0.2813   -0.9461 C.ar      1 <0>        -0.1072
     24 C20        -2.7611    0.1096   -0.6714 C.ar      1 <0>        -0.0751
     25 Cl1        -6.6686    0.1711   -1.4858 Cl        1 <0>        -0.0616
     26 N3          5.9316    1.9299    0.1684 N.am      1 <0>        -0.4726
     27 C21         5.7827    2.3053    1.4542 C.2       1 <0>         0.4979
     28 O2          4.8901    1.8315    2.1248 O.2       1 <0>        -0.5080
     29 C22         6.7253    3.3138    2.0587 C.3       1 <0>        -0.1774
     30 O3          6.8989    2.5655   -0.6473 O.3       1 <0>        -0.3265
     31 H2          6.3678   -0.7156    0.3349 H         1 <0>         0.0736
     32 H3          5.0565   -0.2629    1.4502 H         1 <0>         0.0811
     33 H4          4.6951   -1.2190   -0.0070 H         1 <0>         0.0825
     34 H5          0.1196    0.2022   -1.0107 H         1 <0>         0.1628
     35 H6         -0.3605    5.6580   -0.1412 H         1 <0>         0.1367
     36 H7         -1.8766    7.4488    0.5995 H         1 <0>         0.1404
     37 H8         -4.4245    4.5411    2.4215 H         1 <0>         0.1450
     38 H9         -2.9144    2.7480    1.6743 H         1 <0>         0.1390
     39 H10        -3.6676    8.5293    0.5395 H         1 <0>         0.0589
     40 H11        -4.4671    9.1255    2.0138 H         1 <0>         0.1047
     41 H12        -2.7462    8.6729    2.0556 H         1 <0>         0.0590
     42 H13        -3.2110    3.4727   -0.7152 H         1 <0>         0.1372
     43 H14        -5.5108    2.7563   -1.2124 H         1 <0>         0.1396
     44 H15        -4.2992   -1.3315   -1.0092 H         1 <0>         0.1420
     45 H16        -1.9922   -0.6335   -0.5196 H         1 <0>         0.1419
     46 H17         7.3950    3.6934    1.2870 H         1 <0>         0.0745
     47 H18         6.1523    4.1394    2.4808 H         1 <0>         0.1037
     48 H19         7.3105    2.8380    2.8457 H         1 <0>         0.1054
     49 H20         7.4575    3.1978   -0.1748 H         1 <0>         0.3894
@<TRIPOS>BOND
     1    1    2 1
     2    1   31 1
     3    1   32 1
     4    1   33 1
     5    2    3 1
     6    2    4 1
     7    2   26 1
     8    4    5 3
     9    5    6 1
    10    6   10 2
    11    6    7 1
    12    7    8 2
    13    7   34 1
    14    8    9 1
    15    8   19 1
    16    9   10 1
    17    9   11 1
    18   11   16 ar
    19   11   12 ar
    20   12   13 ar
    21   12   35 1
    22   13   14 ar
    23   13   36 1
    24   14   15 ar
    25   14   17 1
    26   15   16 ar
    27   15   37 1
    28   16   38 1
    29   17   18 1
    30   18   39 1
    31   18   40 1
    32   18   41 1
    33   19   24 ar
    34   19   20 ar
    35   20   21 ar
    36   20   42 1
    37   21   22 ar
    38   21   43 1
    39   22   23 ar
    40   22   25 1
    41   23   24 ar
    42   23   44 1
    43   24   45 1
    44   26   27 am
    45   26   30 1
    46   27   28 2
    47   27   29 1
    48   29   46 1
    49   29   47 1
    50   29   48 1
    51   30   49 1
@<TRIPOS>MOLECULE
ZINC11688098
   49    51     0     0     0
SMALL
USER_CHARGES
N-[(1R)-3-[5-(4-chlorophenyl)-1-(4-methoxyphenyl)pyrazol-3-yl]-1-methyl-prop-2-ynyl]-N-hydroxy-acetamide
@<TRIPOS>ATOM
      1 C1          0.9030    1.5923   -0.3769 C.3       1 <0>        -0.1670
      2 C2          0.3934    0.1695   -0.1385 C.3       1 <0>         0.2883
      3 H1         -0.6920    0.1842   -0.0391 H         1 <0>         0.1254
      4 C3          0.9919   -0.3658    1.0952 C.1       1 <0>        -0.1336
      5 C4          1.4693   -0.7927    2.0791 C.1       1 <0>        -0.0760
      6 C5          2.0516   -1.3134    3.2793 C.2       1 <0>         0.1843
      7 C6          2.9582   -0.6371    4.1161 C.2       1 <0>        -0.2121
      8 C7          3.2705   -1.4693    5.1507 C.2       1 <0>         0.1271
      9 N1          2.5864   -2.6370    4.9615 N.pl3     1 <0>        -0.3079
     10 N2          1.8344   -2.5113    3.7867 N.2       1 <0>        -0.2521
     11 C8          2.6297   -3.7617    5.7958 C.ar      1 <0>         0.0978
     12 C9          2.7595   -5.0303    5.2456 C.ar      1 <0>        -0.0590
     13 C10         2.8083   -6.1376    6.0686 C.ar      1 <0>        -0.1950
     14 C11         2.7157   -5.9844    7.4445 C.ar      1 <0>         0.1402
     15 C12         2.5798   -4.7178    7.9946 C.ar      1 <0>        -0.1349
     16 C13         2.5371   -3.6091    7.1731 C.ar      1 <0>        -0.0708
     17 O1          2.7577   -7.0756    8.2540 O.3       1 <0>        -0.3111
     18 C14         2.8991   -8.3485    7.6201 C.3       1 <0>         0.0234
     19 C15         4.1882   -1.1654    6.2706 C.ar      1 <0>        -0.0348
     20 C16         4.8490   -2.1993    6.9347 C.ar      1 <0>        -0.0919
     21 C17         5.7080   -1.9095    7.9746 C.ar      1 <0>        -0.1054
     22 C18         5.9061   -0.5965    8.3669 C.ar      1 <0>        -0.0234
     23 C19         5.2486    0.4332    7.7152 C.ar      1 <0>        -0.1070
     24 C20         4.3917    0.1557    6.6703 C.ar      1 <0>        -0.0748
     25 Cl1         6.9826   -0.2399    9.6814 Cl        1 <0>        -0.0616
     26 N3          0.7685   -0.6799   -1.2717 N.am      1 <0>        -0.4717
     27 C21         2.0681   -0.8480   -1.5867 C.2       1 <0>         0.4986
     28 O2          2.9270   -0.2962   -0.9320 O.2       1 <0>        -0.5111
     29 C22         2.4539   -1.7218   -2.7523 C.3       1 <0>        -0.1819
     30 O3         -0.2344   -1.3242   -2.0360 O.3       1 <0>        -0.3258
     31 H2          1.9883    1.5776   -0.4764 H         1 <0>         0.0849
     32 H3          0.4597    1.9887   -1.2905 H         1 <0>         0.0728
     33 H4          0.6239    2.2243    0.4662 H         1 <0>         0.0814
     34 H5          3.3368    0.3633    3.9674 H         1 <0>         0.1630
     35 H6          2.8271   -5.1501    4.1744 H         1 <0>         0.1366
     36 H7          2.9137   -7.1238    5.6411 H         1 <0>         0.1405
     37 H8          2.5078   -4.5992    9.0656 H         1 <0>         0.1450
     38 H9          2.4313   -2.6233    7.6014 H         1 <0>         0.1390
     39 H10         2.9189   -9.1316    8.3780 H         1 <0>         0.1048
     40 H11         2.0576   -8.5149    6.9476 H         1 <0>         0.0589
     41 H12         3.8286   -8.3699    7.0512 H         1 <0>         0.0590
     42 H13         4.6917   -3.2241    6.6324 H         1 <0>         0.1367
     43 H14         6.2235   -2.7086    8.4865 H         1 <0>         0.1396
     44 H15         5.4067    1.4554    8.0258 H         1 <0>         0.1421
     45 H16         3.8791    0.9596    6.1630 H         1 <0>         0.1419
     46 H17         2.5006   -1.1184   -3.6589 H         1 <0>         0.1032
     47 H18         3.4295   -2.1697   -2.5634 H         1 <0>         0.1036
     48 H19         1.7107   -2.5091   -2.8779 H         1 <0>         0.0809
     49 H20         0.1094   -1.8625   -2.7620 H         1 <0>         0.3900
@<TRIPOS>BOND
     1    1    2 1
     2    1   31 1
     3    1   32 1
     4    1   33 1
     5    2    3 1
     6    2    4 1
     7    2   26 1
     8    4    5 3
     9    5    6 1
    10    6   10 2
    11    6    7 1
    12    7    8 2
    13    7   34 1
    14    8    9 1
    15    8   19 1
    16    9   10 1
    17    9   11 1
    18   11   16 ar
    19   11   12 ar
    20   12   13 ar
    21   12   35 1
    22   13   14 ar
    23   13   36 1
    24   14   15 ar
    25   14   17 1
    26   15   16 ar
    27   15   37 1
    28   16   38 1
    29   17   18 1
    30   18   39 1
    31   18   40 1
    32   18   41 1
    33   19   24 ar
    34   19   20 ar
    35   20   21 ar
    36   20   42 1
    37   21   22 ar
    38   21   43 1
    39   22   23 ar
    40   22   25 1
    41   23   24 ar
    42   23   44 1
    43   24   45 1
    44   26   27 am
    45   26   30 1
    46   27   28 2
    47   27   29 1
    48   29   46 1
    49   29   47 1
    50   29   48 1
    51   30   49 1
@<TRIPOS>MOLECULE
ZINC01493320
   46    47     0     0     0
SMALL
USER_CHARGES
5-[(4-hydroxy-3,5-ditert-butyl-phenyl)methylene]thiazolidine-2,4-dione
@<TRIPOS>ATOM
      1 C1          4.2268   -1.0713   -0.1979 C.3       1 <0>        -0.1495
      2 C2          3.3264   -2.2212    0.2582 C.3       1 <0>        -0.0213
      3 C3          3.8261   -2.7584    1.6009 C.3       1 <0>        -0.1435
      4 C4          3.3616   -3.3407   -0.7840 C.3       1 <0>        -0.1434
      5 C5          1.9129   -1.7219    0.4116 C.ar      1 <0>        -0.0966
      6 C6          1.6174   -0.4036    0.1473 C.ar      1 <0>        -0.0696
      7 C7          0.3034    0.0591    0.2907 C.ar      1 <0>        -0.1045
      8 C8         -0.7020   -0.8218    0.7082 C.ar      1 <0>        -0.0804
      9 C9         -0.3963   -2.1394    0.9643 C.ar      1 <0>        -0.0913
     10 C10         0.9098   -2.5933    0.8203 C.ar      1 <0>         0.1484
     11 O1          1.2067   -3.8925    1.0793 O.3       1 <0>        -0.4826
     12 C11        -1.4783   -3.0901    1.4077 C.3       1 <0>        -0.0223
     13 C12        -2.8119   -2.3442    1.4858 C.3       1 <0>        -0.1518
     14 C13        -1.5934   -4.2368    0.4015 C.3       1 <0>        -0.1430
     15 C14        -1.1280   -3.6543    2.7861 C.3       1 <0>        -0.1431
     16 C15        -0.0178    1.4642    0.0101 C.2       1 <0>         0.0828
     17 C16        -1.3123    1.8706   -0.0240 C.2       1 <0>        -0.2229
     18 C17        -1.8682    3.2355   -0.1129 C.2       1 <0>         0.5623
     19 O2         -1.1495    4.2161   -0.1687 O.2       1 <0>        -0.4710
     20 N1         -3.1865    3.3387   -0.1282 N.am      1 <0>        -0.6853
     21 C18        -3.9792    2.2495   -0.0652 C.2       1 <0>         0.5286
     22 O3         -5.1945    2.1984   -0.0698 O.2       1 <0>        -0.4184
     23 S1         -2.8129    0.9000    0.0184 S.3       1 <0>        -0.0314
     24 H1          4.2017   -0.2737    0.5446 H         1 <0>         0.0595
     25 H2          5.2492   -1.4324   -0.3089 H         1 <0>         0.0623
     26 H3          3.8708   -0.6886   -1.1544 H         1 <0>         0.0601
     27 H4          3.1847   -3.5775    1.9259 H         1 <0>         0.0582
     28 H5          4.8485   -3.1195    1.4899 H         1 <0>         0.0631
     29 H6          3.8010   -1.9607    2.3434 H         1 <0>         0.0557
     30 H7          3.0056   -2.9580   -1.7405 H         1 <0>         0.0524
     31 H8          4.3840   -3.7019   -0.8949 H         1 <0>         0.0565
     32 H9          2.7202   -4.1599   -0.4590 H         1 <0>         0.0754
     33 H10         2.3975    0.2727   -0.1698 H         1 <0>         0.1414
     34 H11        -1.7160   -0.4691    0.8251 H         1 <0>         0.1448
     35 H12         1.4575   -4.0632    1.9974 H         1 <0>         0.3878
     36 H13        -3.0614   -1.9423    0.5039 H         1 <0>         0.0610
     37 H14        -3.5945   -3.0318    1.8065 H         1 <0>         0.0641
     38 H15        -2.7298   -1.5273    2.2027 H         1 <0>         0.0599
     39 H16        -0.6433   -4.7682    0.3458 H         1 <0>         0.0753
     40 H17        -2.3760   -4.9244    0.7222 H         1 <0>         0.0573
     41 H18        -1.8429   -3.8349   -0.5805 H         1 <0>         0.0528
     42 H19        -1.0460   -2.8373    3.5030 H         1 <0>         0.0555
     43 H20        -1.9106   -4.3419    3.1068 H         1 <0>         0.0639
     44 H21        -0.1779   -4.1856    2.7305 H         1 <0>         0.0581
     45 H22         0.7758    2.1733   -0.1735 H         1 <0>         0.1643
     46 H23        -3.5925    4.2177   -0.1857 H         1 <0>         0.4202
@<TRIPOS>BOND
     1    1    2 1
     2    1   24 1
     3    1   25 1
     4    1   26 1
     5    2    3 1
     6    2    4 1
     7    2    5 1
     8    3   27 1
     9    3   28 1
    10    3   29 1
    11    4   30 1
    12    4   31 1
    13    4   32 1
    14    5   10 ar
    15    5    6 ar
    16    6    7 ar
    17    6   33 1
    18    7    8 ar
    19    7   16 1
    20    8    9 ar
    21    8   34 1
    22    9   10 ar
    23    9   12 1
    24   10   11 1
    25   11   35 1
    26   12   13 1
    27   12   14 1
    28   12   15 1
    29   13   36 1
    30   13   37 1
    31   13   38 1
    32   14   39 1
    33   14   40 1
    34   14   41 1
    35   15   42 1
    36   15   43 1
    37   15   44 1
    38   16   17 2
    39   16   45 1
    40   17   23 1
    41   17   18 1
    42   18   19 2
    43   18   20 am
    44   20   21 am
    45   20   46 1
    46   21   22 2
    47   21   23 1
@<TRIPOS>MOLECULE
ZINC00001655
   29    30     0     0     0
SMALL
USER_CHARGES

@<TRIPOS>ATOM
      1 C1          0.6464    1.4590   -0.0291 C.3       1 <0>        -0.1134
      2 C2          0.4033   -0.0283   -0.0363 C.ar      1 <0>        -0.0408
      3 C3          0.2472   -0.6967   -1.2370 C.ar      1 <0>        -0.1657
      4 C4          0.0235   -2.0611   -1.2487 C.ar      1 <0>        -0.0679
      5 C5         -0.0443   -2.7623   -0.0593 C.ar      1 <0>        -0.1035
      6 C6          0.1125   -2.0943    1.1490 C.ar      1 <0>         0.2889
      7 C7          0.3424   -0.7234    1.1565 C.ar      1 <0>        -0.0658
      8 Cl1         0.5456    0.1155    2.6627 Cl        1 <0>        -0.0657
      9 N1          0.0441   -2.8002    2.3544 N.pl3     1 <0>        -0.6647
     10 C8          0.2738   -4.1685    2.3711 C.ar      1 <0>         0.1811
     11 C9         -0.7785   -5.0514    2.5833 C.ar      1 <0>        -0.1380
     12 C10        -0.5475   -6.4110    2.5989 C.ar      1 <0>        -0.1237
     13 C11         0.7321   -6.9091    2.4043 C.ar      1 <0>        -0.1445
     14 C12         1.7883   -6.0519    2.1929 C.ar      1 <0>        -0.0789
     15 C13         1.5710   -4.6698    2.1677 C.ar      1 <0>        -0.1332
     16 C14         2.6930   -3.7482    1.9364 C.2       1 <0>         0.5171
     17 O1          3.7985   -4.1892    1.6527 O.co2     1 <0>        -0.6940
     18 O2          2.5212   -2.5401    2.0277 O.co2     1 <0>        -0.6627
     19 Cl2        -0.3257   -4.4753   -0.0751 Cl        1 <0>        -0.0573
     20 H1          1.7183    1.6522   -0.0719 H         1 <0>         0.0746
     21 H2          0.1609    1.9107   -0.8942 H         1 <0>         0.0660
     22 H3          0.2358    1.8898    0.8841 H         1 <0>         0.0698
     23 H4          0.2997   -0.1515   -2.1678 H         1 <0>         0.1283
     24 H5         -0.0986   -2.5795   -2.1882 H         1 <0>         0.1285
     25 H6         -0.1640   -2.3333    3.1788 H         1 <0>         0.4051
     26 H7         -1.7781   -4.6724    2.7365 H         1 <0>         0.1137
     27 H8         -1.3688   -7.0926    2.7642 H         1 <0>         0.1117
     28 H9          0.9010   -7.9758    2.4190 H         1 <0>         0.1112
     29 H10         2.7826   -6.4458    2.0424 H         1 <0>         0.1239
@<TRIPOS>BOND
     1    1    2 1
     2    1   20 1
     3    1   21 1
     4    1   22 1
     5    2    7 ar
     6    2    3 ar
     7    3    4 ar
     8    3   23 1
     9    4    5 ar
    10    4   24 1
    11    5    6 ar
    12    5   19 1
    13    6    7 ar
    14    6    9 1
    15    7    8 1
    16    9   10 1
    17    9   25 1
    18   10   15 ar
    19   10   11 ar
    20   11   12 ar
    21   11   26 1
    22   12   13 ar
    23   12   27 1
    24   13   14 ar
    25   13   28 1
    26   14   15 ar
    27   14   29 1
    28   15   16 1
    29   16   17 2
    30   16   18 1
@<TRIPOS>MOLECULE
ZINC38141758
   32    32     0     0     0
SMALL
USER_CHARGES

@<TRIPOS>ATOM
      1 C1         -0.0187    1.5258    0.0104 C.3       1 <0>        -0.1171
      2 C2          0.0021   -0.0041    0.0020 C.3       1 <0>        -0.1346
      3 H1          0.5123   -0.3556   -0.8948 H         1 <0>         0.0688
      4 C3         -1.4117   -0.5257    0.0127 C.ar      1 <0>        -0.0283
      5 C4         -2.2591   -0.2043    1.0565 C.ar      1 <0>        -0.0789
      6 C5         -3.5560   -0.6827    1.0663 C.ar      1 <0>        -0.1224
      7 C6         -4.0056   -1.4823    0.0321 C.ar      1 <0>        -0.1045
      8 C7         -3.1585   -1.8029   -1.0121 C.ar      1 <0>        -0.1215
      9 C8         -1.8629   -1.3209   -1.0241 C.ar      1 <0>        -0.1299
     10 C9         -5.4191   -2.0047    0.0433 C.3       1 <0>        -0.0688
     11 C10        -6.3366   -1.0086   -0.6687 C.3       1 <0>        -0.0917
     12 C11        -5.9482   -0.9236   -2.1461 C.3       1 <0>        -0.1490
     13 C12        -7.7883   -1.4770   -0.5491 C.3       1 <0>        -0.1463
     14 C13         0.7309   -0.5033    1.2229 C.2       1 <0>         0.5000
     15 O1          0.1557   -1.2165    2.0272 O.co2     1 <0>        -0.6863
     16 O2          1.8959   -0.1939    1.4064 O.co2     1 <0>        -0.6999
     17 H2          1.0039    1.9031    0.0027 H         1 <0>         0.0588
     18 H3         -0.5459    1.8868   -0.8726 H         1 <0>         0.0394
     19 H4         -0.5289    1.8773    0.9072 H         1 <0>         0.0469
     20 H5         -1.9079    0.4204    1.8645 H         1 <0>         0.1152
     21 H6         -4.2179   -0.4322    1.8822 H         1 <0>         0.1106
     22 H7         -3.5096   -2.4278   -1.8199 H         1 <0>         0.1100
     23 H8         -1.2022   -1.5684   -1.8418 H         1 <0>         0.1111
     24 H9         -5.4557   -2.9647   -0.4717 H         1 <0>         0.0650
     25 H10        -5.7512   -2.1322    1.0737 H         1 <0>         0.0658
     26 H11        -6.2328   -0.0260   -0.2086 H         1 <0>         0.0696
     27 H12        -6.6019   -0.2140   -2.6534 H         1 <0>         0.0477
     28 H13        -4.9140   -0.5899   -2.2313 H         1 <0>         0.0635
     29 H14        -6.0521   -1.9062   -2.6062 H         1 <0>         0.0505
     30 H15        -8.0650   -1.5376    0.5035 H         1 <0>         0.0526
     31 H16        -8.4419   -0.7674   -1.0563 H         1 <0>         0.0514
     32 H17        -7.8921   -2.4596   -1.0092 H         1 <0>         0.0524
@<TRIPOS>BOND
     1    1    2 1
     2    1   17 1
     3    1   18 1
     4    1   19 1
     5    2    3 1
     6    2    4 1
     7    2   14 1
     8    4    9 ar
     9    4    5 ar
    10    5    6 ar
    11    5   20 1
    12    6    7 ar
    13    6   21 1
    14    7    8 ar
    15    7   10 1
    16    8    9 ar
    17    8   22 1
    18    9   23 1
    19   10   11 1
    20   10   24 1
    21   10   25 1
    22   11   12 1
    23   11   13 1
    24   11   26 1
    25   12   27 1
    26   12   28 1
    27   12   29 1
    28   13   30 1
    29   13   31 1
    30   13   32 1
    31   14   15 2
    32   14   16 1
@<TRIPOS>MOLECULE
ZINC38141759
   32    32     0     0     0
SMALL
USER_CHARGES

@<TRIPOS>ATOM
      1 C1         -0.0187    1.5258    0.0104 C.3       1 <0>        -0.1161
      2 C2          0.0021   -0.0041    0.0020 C.3       1 <0>        -0.1322
      3 H1          0.5123   -0.3556   -0.8948 H         1 <0>         0.0665
      4 C3          0.7309   -0.5033    1.2229 C.ar      1 <0>        -0.0395
      5 C4          0.2630   -0.1872    2.4847 C.ar      1 <0>        -0.1030
      6 C5          0.9315   -0.6452    3.6046 C.ar      1 <0>        -0.1208
      7 C6          2.0678   -1.4195    3.4627 C.ar      1 <0>        -0.1043
      8 C7          2.5353   -1.7363    2.2010 C.ar      1 <0>        -0.1200
      9 C8          1.8643   -1.2820    1.0811 C.ar      1 <0>        -0.1243
     10 C9          2.7973   -1.9179    4.6836 C.3       1 <0>        -0.0680
     11 C10         2.2317   -3.2785    5.0956 C.3       1 <0>        -0.0934
     12 C11         2.5261   -4.3059    4.0007 C.3       1 <0>        -0.1501
     13 C12         2.8845   -3.7270    6.4047 C.3       1 <0>        -0.1454
     14 C13        -1.4117   -0.5257    0.0127 C.2       1 <0>         0.5043
     15 O1         -1.7102   -1.4919   -0.6684 O.co2     1 <0>        -0.6985
     16 O2         -2.2571    0.0185    0.7025 O.co2     1 <0>        -0.6908
     17 H2          1.0039    1.9031    0.0027 H         1 <0>         0.0363
     18 H3         -0.5459    1.8868   -0.8726 H         1 <0>         0.0472
     19 H4         -0.5289    1.8773    0.9072 H         1 <0>         0.0598
     20 H5         -0.6248    0.4177    2.5955 H         1 <0>         0.1300
     21 H6          0.5663   -0.3977    4.5903 H         1 <0>         0.1130
     22 H7          3.4233   -2.3410    2.0902 H         1 <0>         0.1123
     23 H8          2.2274   -1.5326    0.0953 H         1 <0>         0.1149
     24 H9          3.8586   -2.0192    4.4567 H         1 <0>         0.0652
     25 H10         2.6665   -1.2077    5.5001 H         1 <0>         0.0657
     26 H11         1.1540   -3.1964    5.2365 H         1 <0>         0.0710
     27 H12         2.1232   -5.2752    4.2942 H         1 <0>         0.0494
     28 H13         2.0610   -3.9864    3.0682 H         1 <0>         0.0643
     29 H14         3.6038   -4.3880    3.8598 H         1 <0>         0.0501
     30 H15         2.6748   -2.9951    7.1847 H         1 <0>         0.0522
     31 H16         2.4816   -4.6963    6.6982 H         1 <0>         0.0523
     32 H17         3.9623   -3.8091    6.2637 H         1 <0>         0.0520
@<TRIPOS>BOND
     1    1    2 1
     2    1   17 1
     3    1   18 1
     4    1   19 1
     5    2    3 1
     6    2    4 1
     7    2   14 1
     8    4    9 ar
     9    4    5 ar
    10    5    6 ar
    11    5   20 1
    12    6    7 ar
    13    6   21 1
    14    7    8 ar
    15    7   10 1
    16    8    9 ar
    17    8   22 1
    18    9   23 1
    19   10   11 1
    20   10   24 1
    21   10   25 1
    22   11   12 1
    23   11   13 1
    24   11   26 1
    25   12   27 1
    26   12   28 1
    27   12   29 1
    28   13   30 1
    29   13   31 1
    30   13   32 1
    31   14   15 2
    32   14   16 1
@<TRIPOS>MOLECULE
ZINC51133897
   35    37     0     0     0
SMALL
USER_CHARGES

@<TRIPOS>ATOM
      1 C1          0.6255    1.3542   -0.5605 C.3       1 <0>         0.0948
      2 N1          0.2322   -0.0033   -0.1748 N.pl3     1 <0>        -0.9105
      3 C2         -0.3114   -0.9006   -1.1143 C.2       1 <0>        -0.2343
      4 C3         -0.1422   -2.2374   -1.0200 C.2       1 <0>         0.2854
      5 C4          0.6176   -2.9021    0.0461 C.ar      1 <0>         0.0199
      6 C5          1.0272   -4.2316   -0.1017 C.ar      1 <0>        -0.0969
      7 C6          1.7405   -4.8459    0.9054 C.ar      1 <0>        -0.0820
      8 C7          2.0565   -4.1571    2.0637 C.ar      1 <0>        -0.1431
      9 C8          1.6552   -2.8400    2.2213 C.ar      1 <0>        -0.0314
     10 C9          0.9434   -2.2196    1.2242 C.ar      1 <0>        -0.6512
     11 S1          0.4182   -0.5450    1.3906 S.o2      1 <0>         2.6930
     12 O1         -0.8758   -0.5751    1.9770 O.2       1 <0>        -0.9592
     13 O2          1.5036    0.1779    1.9549 O.2       1 <0>        -0.9720
     14 O3         -0.7116   -3.0161   -1.9716 O.3       1 <0>        -0.6327
     15 C10        -1.0642   -0.3818   -2.1986 C.2       1 <0>         0.5998
     16 O4         -1.0388   -0.9409   -3.2802 O.2       1 <0>        -0.5137
     17 N2         -1.8077    0.7300   -2.0320 N.am      1 <0>        -0.6673
     18 C11        -2.5987    1.2016   -3.0765 C.ar      1 <0>         0.3700
     19 C12        -2.3158    0.8175   -4.3829 C.ar      1 <0>        -0.1925
     20 C13        -3.1100    1.2931   -5.4110 C.ar      1 <0>        -0.0620
     21 C14        -4.1644    2.1400   -5.0962 C.ar      1 <0>        -0.2191
     22 C15        -4.3876    2.4801   -3.7768 C.ar      1 <0>         0.1198
     23 N3         -3.6165    2.0071   -2.8164 N.ar      1 <0>        -0.5289
     24 H1          1.6941    1.3759   -0.7746 H         1 <0>         0.0565
     25 H2          0.0707    1.6544   -1.4494 H         1 <0>         0.0772
     26 H3          0.4044    2.0422    0.2555 H         1 <0>         0.0622
     27 H4          0.7847   -4.7757   -1.0026 H         1 <0>         0.1409
     28 H5          2.0557   -5.8724    0.7896 H         1 <0>         0.1269
     29 H6          2.6166   -4.6472    2.8463 H         1 <0>         0.1280
     30 H7          1.9016   -2.3032    3.1255 H         1 <0>         0.1311
     31 H8         -1.7917    1.2016   -1.1845 H         1 <0>         0.4091
     32 H9         -1.4871    0.1573   -4.5920 H         1 <0>         0.1755
     33 H10        -2.9142    1.0123   -6.4353 H         1 <0>         0.1295
     34 H11        -4.8030    2.5290   -5.8754 H         1 <0>         0.1259
     35 H12        -5.2065    3.1386   -3.5273 H         1 <0>         0.1509
@<TRIPOS>BOND
     1    1    2 1
     2    1   24 1
     3    1   25 1
     4    1   26 1
     5    2   11 1
     6    2    3 1
     7    3    4 2
     8    3   15 1
     9    4    5 1
    10    4   14 1
    11    5   10 ar
    12    5    6 ar
    13    6    7 ar
    14    6   27 1
    15    7    8 ar
    16    7   28 1
    17    8    9 ar
    18    8   29 1
    19    9   10 ar
    20    9   30 1
    21   10   11 1
    22   11   12 2
    23   11   13 2
    24   15   16 2
    25   15   17 am
    26   17   18 1
    27   17   31 1
    28   18   23 ar
    29   18   19 ar
    30   19   20 ar
    31   19   32 1
    32   20   21 ar
    33   20   33 1
    34   21   22 ar
    35   21   34 1
    36   22   23 ar
    37   22   35 1
@<TRIPOS>MOLECULE
ZINC51133897
   36    38     0     0     0
SMALL
USER_CHARGES

@<TRIPOS>ATOM
      1 C1          0.2045    1.3282    0.0896 C.3       1 <0>         0.0933
      2 N1          0.0704   -0.1307    0.0840 N.pl3     1 <0>        -0.9750
      3 C2         -1.2482   -0.7866   -0.0035 C.3       1 <0>         0.0921
      4 C3         -1.4354   -1.6443    1.2198 C.2       1 <0>         0.3816
      5 C4         -0.3887   -2.5627    1.6880 C.ar      1 <0>        -0.0952
      6 C5         -0.7360   -3.6099    2.5534 C.ar      1 <0>        -0.0694
      7 C6          0.2333   -4.4736    3.0134 C.ar      1 <0>        -0.0815
      8 C7          1.5525   -4.3129    2.6261 C.ar      1 <0>        -0.0927
      9 C8          1.9050   -3.2854    1.7685 C.ar      1 <0>        -0.0309
     10 C9          0.9439   -2.4182    1.2952 C.ar      1 <0>        -0.6112
     11 S1          1.3992   -1.1307    0.1692 S.o2      1 <0>         2.6641
     12 O1          2.4366   -0.3857    0.7923 O.2       1 <0>        -0.9415
     13 O2          1.5470   -1.7301   -1.1107 O.2       1 <0>        -0.8925
     14 O3         -2.4778   -1.5748    1.8353 O.2       1 <0>        -0.4044
     15 C10        -1.3059   -1.6467   -1.2397 C.2       1 <0>         0.4678
     16 O4         -0.4549   -1.5348   -2.0965 O.2       1 <0>        -0.3871
     17 N2         -2.3033   -2.5401   -1.3931 N.am      1 <0>        -0.6605
     18 C11        -2.2996   -3.4085   -2.4836 C.ar      1 <0>         0.3577
     19 C12        -3.3882   -4.2456   -2.7012 C.ar      1 <0>        -0.2051
     20 C13        -3.3715   -5.1026   -3.7874 C.ar      1 <0>        -0.0477
     21 C14        -2.2620   -5.0927   -4.6219 C.ar      1 <0>        -0.2013
     22 C15        -1.2161   -4.2347   -4.3457 C.ar      1 <0>         0.1346
     23 N3         -1.2622   -3.4246   -3.3054 N.ar      1 <0>        -0.4716
     24 H1          1.2590    1.5959    0.1552 H         1 <0>         0.0949
     25 H2         -0.2173    1.7353   -0.8293 H         1 <0>         0.0749
     26 H3         -0.3286    1.7387    0.9471 H         1 <0>         0.0715
     27 H4         -1.7636   -3.7390    2.8596 H         1 <0>         0.1460
     28 H5         -0.0371   -5.2796    3.6795 H         1 <0>         0.1439
     29 H6          2.3085   -4.9907    2.9943 H         1 <0>         0.1455
     30 H7          2.9356   -3.1626    1.4697 H         1 <0>         0.1441
     31 H8         -3.0236   -2.5789   -0.7447 H         1 <0>         0.4176
     32 H9         -4.2351   -4.2274   -2.0313 H         1 <0>         0.1364
     33 H10        -4.2026   -5.7644   -3.9814 H         1 <0>         0.1394
     34 H11        -2.2174   -5.7495   -5.4781 H         1 <0>         0.1376
     35 H12        -0.3508   -4.2238   -4.9919 H         1 <0>         0.1614
     36 H13        -2.0322   -0.0305   -0.0451 H         1 <0>         0.1634
@<TRIPOS>BOND
     1    1    2 1
     2    1   24 1
     3    1   25 1
     4    1   26 1
     5    2   11 1
     6    2    3 1
     7    3    4 1
     8    3   15 1
     9    3   36 1
    10    4    5 1
    11    4   14 2
    12    5   10 ar
    13    5    6 ar
    14    6    7 ar
    15    6   27 1
    16    7    8 ar
    17    7   28 1
    18    8    9 ar
    19    8   29 1
    20    9   10 ar
    21    9   30 1
    22   10   11 1
    23   11   12 2
    24   11   13 2
    25   15   16 2
    26   15   17 am
    27   17   18 1
    28   17   31 1
    29   18   23 ar
    30   18   19 ar
    31   19   20 ar
    32   19   32 1
    33   20   21 ar
    34   20   33 1
    35   21   22 ar
    36   21   34 1
    37   22   23 ar
    38   22   35 1
@<TRIPOS>MOLECULE
ZINC04802755
   37    38     0     0     0
SMALL
USER_CHARGES
2-(4-benzyloxyphenyl)-N-hydroxy-N-methyl-acetamide
@<TRIPOS>ATOM
      1 C1         12.4671   -2.1124   -2.5251 C.3       1 <0>         0.0668
      2 N1         11.3709   -3.0818   -2.4555 N.am      1 <0>        -0.4839
      3 C2         10.1061   -2.6565   -2.2666 C.2       1 <0>         0.5399
      4 O1          9.8754   -1.4711   -2.1542 O.2       1 <0>        -0.5145
      5 C3          8.9785   -3.6537   -2.1950 C.3       1 <0>        -0.0847
      6 C4          7.6768   -2.9255   -1.9801 C.ar      1 <0>        -0.1108
      7 C5          6.9315   -2.5085   -3.0676 C.ar      1 <0>        -0.0640
      8 C6          5.7379   -1.8408   -2.8733 C.ar      1 <0>        -0.1491
      9 C7          5.2871   -1.5886   -1.5857 C.ar      1 <0>         0.1316
     10 C8          6.0395   -2.0030   -0.4963 C.ar      1 <0>        -0.2074
     11 C9          7.2294   -2.6758   -0.6959 C.ar      1 <0>        -0.0633
     12 O2          4.1132   -0.9320   -1.3920 O.3       1 <0>        -0.3088
     13 C10         3.7112   -0.7071   -0.0392 C.3       1 <0>         0.1019
     14 C11         2.3960    0.0285   -0.0217 C.ar      1 <0>        -0.0981
     15 C12         1.2084   -0.6789   -0.0136 C.ar      1 <0>        -0.0955
     16 C13         0.0021   -0.0041    0.0020 C.ar      1 <0>        -0.1232
     17 C14        -0.0167    1.3781    0.0096 C.ar      1 <0>        -0.1093
     18 C15         1.1709    2.0855    0.0021 C.ar      1 <0>        -0.1230
     19 C16         2.3773    1.4107   -0.0141 C.ar      1 <0>        -0.0953
     20 O3         11.6403   -4.4658   -2.5867 O.3       1 <0>        -0.3297
     21 H1         12.8668   -1.9435   -1.5251 H         1 <0>         0.0646
     22 H2         13.2550   -2.5006   -3.1705 H         1 <0>         0.0789
     23 H3         12.0951   -1.1718   -2.9313 H         1 <0>         0.0938
     24 H4          9.1522   -4.3396   -1.3659 H         1 <0>         0.1050
     25 H5          8.9308   -4.2157   -3.1277 H         1 <0>         0.1057
     26 H6          7.2827   -2.7054   -4.0697 H         1 <0>         0.1274
     27 H7          5.1560   -1.5157   -3.7230 H         1 <0>         0.1312
     28 H8          5.6929   -1.8039    0.5070 H         1 <0>         0.1278
     29 H9          7.8130   -3.0031    0.1519 H         1 <0>         0.1229
     30 H10         4.4679   -0.1107    0.4703 H         1 <0>         0.0718
     31 H11         3.5990   -1.6641    0.4703 H         1 <0>         0.0718
     32 H12         1.2231   -1.7587   -0.0199 H         1 <0>         0.1242
     33 H13        -0.9258   -0.5567    0.0079 H         1 <0>         0.1258
     34 H14        -0.9592    1.9054    0.0170 H         1 <0>         0.1249
     35 H15         1.1563    3.1654    0.0077 H         1 <0>         0.1259
     36 H16         3.3051    1.9634   -0.0207 H         1 <0>         0.1244
     37 H17        12.5754   -4.6736   -2.7188 H         1 <0>         0.3940
@<TRIPOS>BOND
     1    1    2 1
     2    1   21 1
     3    1   22 1
     4    1   23 1
     5    2    3 am
     6    2   20 1
     7    3    4 2
     8    3    5 1
     9    5    6 1
    10    5   24 1
    11    5   25 1
    12    6   11 ar
    13    6    7 ar
    14    7    8 ar
    15    7   26 1
    16    8    9 ar
    17    8   27 1
    18    9   10 ar
    19    9   12 1
    20   10   11 ar
    21   10   28 1
    22   11   29 1
    23   12   13 1
    24   13   14 1
    25   13   30 1
    26   13   31 1
    27   14   19 ar
    28   14   15 ar
    29   15   16 ar
    30   15   32 1
    31   16   17 ar
    32   16   33 1
    33   17   18 ar
    34   17   34 1
    35   18   19 ar
    36   18   35 1
    37   19   36 1
    38   20   37 1
@<TRIPOS>MOLECULE
ZINC00008667
   30    31     0     0     0
SMALL
USER_CHARGES

@<TRIPOS>ATOM
      1 C1         -0.0187    1.5258    0.0104 C.3       1 <0>        -0.1184
      2 C2          0.0021   -0.0041    0.0020 C.3       1 <0>        -0.1371
      3 H1          0.5293   -0.3651    0.8851 H         1 <0>         0.0739
      4 C3          0.7074   -0.4901   -1.2379 C.ar      1 <0>         0.0081
      5 C4          0.2191   -0.1492   -2.4867 C.ar      1 <0>        -0.0890
      6 C5          0.8599   -0.5907   -3.6263 C.ar      1 <0>        -0.0815
      7 C6          2.0018   -1.3819   -3.5188 C.ar      1 <0>        -0.1106
      8 C7          2.4909   -1.7233   -2.2573 C.ar      1 <0>         0.1030
      9 C8          1.8431   -1.2700   -1.1228 C.ar      1 <0>        -0.1621
     10 F1          3.5972   -2.4904   -2.1447 F         1 <0>        -0.1439
     11 C9          2.6946   -1.8598   -4.7406 C.ar      1 <0>        -0.0302
     12 C10         1.9703   -2.4751   -5.7597 C.ar      1 <0>        -0.1063
     13 C11         2.6199   -2.9178   -6.8941 C.ar      1 <0>        -0.1209
     14 C12         3.9873   -2.7517   -7.0205 C.ar      1 <0>        -0.1263
     15 C13         4.7112   -2.1416   -6.0120 C.ar      1 <0>        -0.1212
     16 C14         4.0711   -1.6899   -4.8757 C.ar      1 <0>        -0.1040
     17 C15        -1.4117   -0.5257    0.0127 C.2       1 <0>         0.5014
     18 O1         -1.8097   -1.2271   -0.9017 O.co2     1 <0>        -0.6850
     19 O2         -2.1576   -0.2463    0.9358 O.co2     1 <0>        -0.6947
     20 H2          1.0039    1.9031    0.0027 H         1 <0>         0.0416
     21 H3         -0.5459    1.8868   -0.8726 H         1 <0>         0.0493
     22 H4         -0.5289    1.8773    0.9072 H         1 <0>         0.0623
     23 H5         -0.6662    0.4638   -2.5699 H         1 <0>         0.1278
     24 H6          0.4768   -0.3237   -4.6001 H         1 <0>         0.1265
     25 H7          2.2224   -1.5294   -0.1454 H         1 <0>         0.1290
     26 H8          0.9027   -2.6057   -5.6619 H         1 <0>         0.1259
     27 H9          2.0597   -3.3952   -7.6844 H         1 <0>         0.1217
     28 H10         4.4917   -3.0999   -7.9097 H         1 <0>         0.1187
     29 H11         5.7787   -2.0147   -6.1157 H         1 <0>         0.1206
     30 H12         4.6365   -1.2093   -4.0910 H         1 <0>         0.1211
@<TRIPOS>BOND
     1    1    2 1
     2    1   20 1
     3    1   21 1
     4    1   22 1
     5    2    3 1
     6    2    4 1
     7    2   17 1
     8    4    9 ar
     9    4    5 ar
    10    5    6 ar
    11    5   23 1
    12    6    7 ar
    13    6   24 1
    14    7    8 ar
    15    7   11 1
    16    8    9 ar
    17    8   10 1
    18    9   25 1
    19   11   16 ar
    20   11   12 ar
    21   12   13 ar
    22   12   26 1
    23   13   14 ar
    24   13   27 1
    25   14   15 ar
    26   14   28 1
    27   15   16 ar
    28   15   29 1
    29   16   30 1
    30   17   18 2
    31   17   19 1
@<TRIPOS>MOLECULE
ZINC00601283
   40    42     0     0     0
SMALL
USER_CHARGES

@<TRIPOS>ATOM
      1 C1         -0.0182    1.5027    0.0102 C.3       1 <0>        -0.0883
      2 C2          0.0021   -0.0042    0.0020 C.2       1 <0>         0.0711
      3 C3          0.0074   -0.7679   -1.0995 C.2       1 <0>        -0.0782
      4 C4          0.0293   -2.1662   -0.6567 C.ar      1 <0>        -0.0368
      5 C5          0.0428   -3.3917   -1.3243 C.ar      1 <0>        -0.0938
      6 C6          0.0625   -4.5656   -0.5961 C.ar      1 <0>         0.0956
      7 C7          0.0688   -4.5275    0.7953 C.ar      1 <0>        -0.1804
      8 C8          0.0551   -3.3226    1.4635 C.ar      1 <0>        -0.0946
      9 C9          0.0357   -2.1316    0.7482 C.ar      1 <0>         0.0803
     10 N1          0.0240   -0.7990    1.1223 N.am      1 <0>        -0.5123
     11 C10         0.0297   -0.3494    2.3928 C.2       1 <0>         0.6115
     12 O1         -1.0174   -0.0751    2.9450 O.2       1 <0>        -0.4412
     13 C11         1.3084   -0.1902    3.1139 C.ar      1 <0>        -0.1622
     14 C12         2.5190   -0.3985    2.4491 C.ar      1 <0>        -0.0360
     15 C13         3.7097   -0.2483    3.1279 C.ar      1 <0>        -0.1193
     16 C14         3.7070    0.1084    4.4664 C.ar      1 <0>         0.0005
     17 C15         2.5096    0.3160    5.1314 C.ar      1 <0>        -0.1284
     18 C16         1.3125    0.1750    4.4621 C.ar      1 <0>        -0.0426
     19 Cl1         5.2103    0.2955    5.3141 Cl        1 <0>        -0.0622
     20 O2          0.0753   -5.7626   -1.2410 O.3       1 <0>        -0.3182
     21 C17         0.0954   -6.9375   -0.4278 C.3       1 <0>         0.0304
     22 C18        -0.0069   -0.2812   -2.5257 C.3       1 <0>        -0.1253
     23 C19         1.4090   -0.0991   -3.0085 C.2       1 <0>         0.4982
     24 O3          2.3431   -0.3421   -2.2636 O.co2     1 <0>        -0.6866
     25 O4          1.6204    0.2911   -4.1441 O.co2     1 <0>        -0.7049
     26 H1          1.0044    1.8799    0.0025 H         1 <0>         0.0804
     27 H2         -0.5453    1.8638   -0.8729 H         1 <0>         0.0881
     28 H3         -0.5284    1.8543    0.9070 H         1 <0>         0.0568
     29 H4          0.0376   -3.4222   -2.4038 H         1 <0>         0.1332
     30 H5          0.0842   -5.4504    1.3560 H         1 <0>         0.1288
     31 H6          0.0595   -3.3039    2.5434 H         1 <0>         0.1161
     32 H7          2.5224   -0.6770    1.4056 H         1 <0>         0.1519
     33 H8          4.6464   -0.4095    2.6151 H         1 <0>         0.1453
     34 H9          2.5140    0.5936    6.1751 H         1 <0>         0.1420
     35 H10         0.3798    0.3418    4.9804 H         1 <0>         0.1449
     36 H11         0.9887   -6.9318    0.1968 H         1 <0>         0.0516
     37 H12        -0.7911   -6.9558    0.2062 H         1 <0>         0.0506
     38 H13         0.1040   -7.8210   -1.0660 H         1 <0>         0.0947
     39 H14        -0.5139   -1.0132   -3.1543 H         1 <0>         0.0698
     40 H15        -0.5343    0.6712   -2.5793 H         1 <0>         0.0692
@<TRIPOS>BOND
     1    1    2 1
     2    1   26 1
     3    1   27 1
     4    1   28 1
     5    2   10 1
     6    2    3 2
     7    3    4 1
     8    3   22 1
     9    4    9 ar
    10    4    5 ar
    11    5    6 ar
    12    5   29 1
    13    6    7 ar
    14    6   20 1
    15    7    8 ar
    16    7   30 1
    17    8    9 ar
    18    8   31 1
    19    9   10 1
    20   10   11 am
    21   11   12 2
    22   11   13 1
    23   13   18 ar
    24   13   14 ar
    25   14   15 ar
    26   14   32 1
    27   15   16 ar
    28   15   33 1
    29   16   17 ar
    30   16   19 1
    31   17   18 ar
    32   17   34 1
    33   18   35 1
    34   20   21 1
    35   21   36 1
    36   21   37 1
    37   21   38 1
    38   22   23 1
    39   22   39 1
    40   22   40 1
    41   23   24 2
    42   23   25 1
@<TRIPOS>MOLECULE
ZINC03800222
   46    48     0     0     0
SMALL
USER_CHARGES
2-[1-(4-chlorobenzoyl)-5-methoxy-2-methyl-indol-3-yl]-N-hydroxy-N-methyl-acetamide
@<TRIPOS>ATOM
      1 C1          1.7006   -0.5924   -2.5275 C.3       1 <0>        -0.1028
      2 C2          2.1699   -0.7436   -1.1035 C.2       1 <0>         0.1170
      3 C3          1.4276   -0.4881   -0.0172 C.2       1 <0>        -0.1428
      4 C4          2.2636   -0.7708    1.1547 C.ar      1 <0>        -0.0364
      5 C5          2.0527   -0.7001    2.5325 C.ar      1 <0>        -0.1097
      6 C6          3.0730   -1.0449    3.3978 C.ar      1 <0>         0.1117
      7 C7          4.3044   -1.4605    2.8995 C.ar      1 <0>        -0.1752
      8 C8          4.5223   -1.5336    1.5409 C.ar      1 <0>        -0.0834
      9 C9          3.5081   -1.1908    0.6552 C.ar      1 <0>         0.0771
     10 N1          3.4230   -1.1615   -0.7260 N.am      1 <0>        -0.5052
     11 C10         4.4170   -1.4968   -1.5722 C.2       1 <0>         0.6026
     12 O1          4.5835   -2.6596   -1.8836 O.2       1 <0>        -0.4281
     13 C11         5.3036   -0.4513   -2.1209 C.ar      1 <0>        -0.1653
     14 C12         5.1794    0.8712   -1.6888 C.ar      1 <0>        -0.0423
     15 C13         6.0135    1.8420   -2.2014 C.ar      1 <0>        -0.1206
     16 C14         6.9662    1.5100   -3.1507 C.ar      1 <0>         0.0036
     17 C15         7.0908    0.2012   -3.5871 C.ar      1 <0>        -0.1234
     18 C16         6.2662   -0.7796   -3.0783 C.ar      1 <0>        -0.0382
     19 Cl1         8.0086    2.7392   -3.7958 Cl        1 <0>        -0.0526
     20 O2          2.8735   -0.9781    4.7412 O.3       1 <0>        -0.3167
     21 C17         3.9701   -1.3487    5.5791 C.3       1 <0>         0.0271
     22 C18        -0.0004   -0.0067   -0.0023 C.3       1 <0>        -0.0539
     23 C19        -0.0225    1.5001    0.0037 C.2       1 <0>         0.5415
     24 O3          1.0187    2.1219   -0.0034 O.2       1 <0>        -0.5132
     25 N2         -1.1995    2.1567    0.0113 N.am      1 <0>        -0.4838
     26 C20        -1.2210    3.6216    0.0171 C.3       1 <0>         0.0675
     27 O4         -2.4152    1.4308    0.0136 O.3       1 <0>        -0.3296
     28 H1          1.9156    0.4178   -2.8757 H         1 <0>         0.0857
     29 H2          2.2198   -1.3128   -3.1597 H         1 <0>         0.0693
     30 H3          0.6268   -0.7730   -2.5773 H         1 <0>         0.0923
     31 H4          1.0977   -0.3774    2.9200 H         1 <0>         0.1326
     32 H5          5.0960   -1.7284    3.5837 H         1 <0>         0.1354
     33 H6          5.4816   -1.8569    1.1645 H         1 <0>         0.1224
     34 H7          4.4343    1.1319   -0.9518 H         1 <0>         0.1447
     35 H8          5.9214    2.8641   -1.8649 H         1 <0>         0.1451
     36 H9          7.8357   -0.0514   -4.3272 H         1 <0>         0.1463
     37 H10         6.3645   -1.7997   -3.4190 H         1 <0>         0.1476
     38 H11         4.2498   -2.3824    5.3756 H         1 <0>         0.0552
     39 H12         4.8192   -0.6959    5.3763 H         1 <0>         0.0551
     40 H13         3.6779   -1.2504    6.6246 H         1 <0>         0.1003
     41 H14        -0.5007   -0.3810    0.8908 H         1 <0>         0.1080
     42 H15        -0.5169   -0.3742   -0.8891 H         1 <0>         0.1060
     43 H16        -1.2308    3.9889   -1.0091 H         1 <0>         0.0640
     44 H17        -2.1141    3.9697    0.5361 H         1 <0>         0.0781
     45 H18        -0.3343    3.9959    0.5286 H         1 <0>         0.0934
     46 H19        -3.2058    1.9876    0.0192 H         1 <0>         0.3937
@<TRIPOS>BOND
     1    1    2 1
     2    1   28 1
     3    1   29 1
     4    1   30 1
     5    2   10 1
     6    2    3 2
     7    3    4 1
     8    3   22 1
     9    4    9 ar
    10    4    5 ar
    11    5    6 ar
    12    5   31 1
    13    6    7 ar
    14    6   20 1
    15    7    8 ar
    16    7   32 1
    17    8    9 ar
    18    8   33 1
    19    9   10 1
    20   10   11 am
    21   11   12 2
    22   11   13 1
    23   13   18 ar
    24   13   14 ar
    25   14   15 ar
    26   14   34 1
    27   15   16 ar
    28   15   35 1
    29   16   17 ar
    30   16   19 1
    31   17   18 ar
    32   17   36 1
    33   18   37 1
    34   20   21 1
    35   21   38 1
    36   21   39 1
    37   21   40 1
    38   22   23 1
    39   22   41 1
    40   22   42 1
    41   23   24 2
    42   23   25 am
    43   25   26 1
    44   25   27 1
    45   26   43 1
    46   26   44 1
    47   26   45 1
    48   27   46 1
@<TRIPOS>MOLECULE
ZINC00028150
   23    25     0     0     0
SMALL
USER_CHARGES

@<TRIPOS>ATOM
      1 C1         -0.0167    1.3795    0.0096 C.ar      1 <0>        -0.0823
      2 C2          1.1652    2.0958    0.0022 C.ar      1 <0>        -0.1347
      3 C3          2.3799    1.4302   -0.0132 C.ar      1 <0>        -0.0604
      4 C4          2.4038    0.0485   -0.0206 C.ar      1 <0>        -0.1489
      5 C5          1.2121   -0.6805   -0.0125 C.ar      1 <0>         0.1849
      6 C6          0.0021   -0.0041    0.0020 C.ar      1 <0>        -0.1476
      7 N1          1.2386   -2.0792   -0.0177 N.pl3     1 <0>        -0.6954
      8 C7          2.2020   -2.8024    0.6935 C.ar      1 <0>         0.1848
      9 C8          1.8601   -3.9868    1.3278 C.ar      1 <0>        -0.1476
     10 C9          2.8179   -4.6965    2.0305 C.ar      1 <0>        -0.0823
     11 C10         4.1177   -4.2330    2.1056 C.ar      1 <0>        -0.1347
     12 C11         4.4704   -3.0509    1.4755 C.ar      1 <0>        -0.0604
     13 C12         3.5174   -2.3385    0.7727 C.ar      1 <0>        -0.1488
     14 S1          3.9364   -0.8283   -0.0410 S.3       1 <0>         0.0037
     15 H1         -0.9611    1.9031    0.0260 H         1 <0>         0.1312
     16 H2          1.1417    3.1755    0.0080 H         1 <0>         0.1322
     17 H3          3.3043    1.9887   -0.0197 H         1 <0>         0.1346
     18 H4         -0.9257   -0.5569    0.0074 H         1 <0>         0.1299
     19 H5          0.5697   -2.5613   -0.5287 H         1 <0>         0.4140
     20 H6          0.8464   -4.3553    1.2738 H         1 <0>         0.1299
     21 H7          2.5479   -5.6185    2.5237 H         1 <0>         0.1312
     22 H8          4.8591   -4.7928    2.6564 H         1 <0>         0.1322
     23 H9          5.4858   -2.6874    1.5336 H         1 <0>         0.1346
@<TRIPOS>BOND
     1    1    6 ar
     2    1    2 ar
     3    1   15 1
     4    2    3 ar
     5    2   16 1
     6    3    4 ar
     7    3   17 1
     8    4   14 1
     9    4    5 ar
    10    5    6 ar
    11    5    7 1
    12    6   18 1
    13    7    8 1
    14    7   19 1
    15    8   13 ar
    16    8    9 ar
    17    9   10 ar
    18    9   20 1
    19   10   11 ar
    20   10   21 1
    21   11   12 ar
    22   11   22 1
    23   12   13 ar
    24   12   23 1
    25   13   14 1
@<TRIPOS>MOLECULE
ZINC06962446
   32    34     0     0     0
SMALL
USER_CHARGES
2-(2-quinolylmethoxy)phenol
@<TRIPOS>ATOM
      1 C1          1.1590    3.1683    0.0071 C.ar      1 <0>        -0.1148
      2 C2          1.1549    1.7747    0.0006 C.ar      1 <0>        -0.0989
      3 C3         -0.0126    1.0758    0.0080 C.ar      1 <0>        -0.0933
      4 C4         -1.2381    1.7649    0.0175 C.ar      1 <0>         0.1320
      5 C5         -1.2315    3.1820    0.0295 C.ar      1 <0>        -0.1028
      6 C6         -0.0074    3.8703    0.0211 C.ar      1 <0>        -0.0959
      7 C7         -2.4591    3.8699    0.0436 C.ar      1 <0>        -0.0550
      8 C8         -3.6102    3.1342    0.0506 C.ar      1 <0>        -0.1539
      9 C9         -3.5459    1.7428    0.0439 C.ar      1 <0>         0.1586
     10 N1         -2.4004    1.1052    0.0313 N.ar      1 <0>        -0.4705
     11 C10        -4.8271    0.9493    0.0519 C.3       1 <0>         0.1094
     12 O1         -5.9413    1.8439    0.0658 O.3       1 <0>        -0.3029
     13 C11        -7.1813    1.2854    0.0744 C.ar      1 <0>         0.1060
     14 C12        -7.3221   -0.0930    0.0639 C.ar      1 <0>        -0.1950
     15 C13        -8.5833   -0.6591    0.0780 C.ar      1 <0>        -0.0866
     16 C14        -9.7062    0.1474    0.0921 C.ar      1 <0>        -0.1394
     17 C15        -9.5728    1.5233    0.0970 C.ar      1 <0>        -0.1067
     18 C16        -8.3115    2.0971    0.0882 C.ar      1 <0>         0.0759
     19 O2         -8.1785    3.4505    0.0925 O.3       1 <0>        -0.4866
     20 H1          2.0999    3.6985    0.0006 H         1 <0>         0.1297
     21 H2          2.0936    1.2408   -0.0109 H         1 <0>         0.1321
     22 H3          0.0021   -0.0041    0.0020 H         1 <0>         0.1367
     23 H4          0.0086    4.9501    0.0260 H         1 <0>         0.1320
     24 H5         -2.4904    4.9494    0.0483 H         1 <0>         0.1429
     25 H6         -4.5691    3.6309    0.0618 H         1 <0>         0.1490
     26 H7         -4.8734    0.3251   -0.8405 H         1 <0>         0.0893
     27 H8         -4.8574    0.3172    0.9394 H         1 <0>         0.0896
     28 H9         -6.4466   -0.7252    0.0484 H         1 <0>         0.1343
     29 H10        -8.6917   -1.7336    0.0739 H         1 <0>         0.1300
     30 H11       -10.6898   -0.2986    0.0990 H         1 <0>         0.1303
     31 H12       -10.4515    2.1510    0.1073 H         1 <0>         0.1371
     32 H13        -8.1482    3.8456   -0.7896 H         1 <0>         0.3873
@<TRIPOS>BOND
     1    1    6 ar
     2    1    2 ar
     3    1   20 1
     4    2    3 ar
     5    2   21 1
     6    3    4 ar
     7    3   22 1
     8    4   10 ar
     9    4    5 ar
    10    5    6 ar
    11    5    7 ar
    12    6   23 1
    13    7    8 ar
    14    7   24 1
    15    8    9 ar
    16    8   25 1
    17    9   10 ar
    18    9   11 1
    19   11   12 1
    20   11   26 1
    21   11   27 1
    22   12   13 1
    23   13   18 ar
    24   13   14 ar
    25   14   15 ar
    26   14   28 1
    27   15   16 ar
    28   15   29 1
    29   16   17 ar
    30   16   30 1
    31   17   18 ar
    32   17   31 1
    33   18   19 1
    34   19   32 1
