@<TRIPOS>MOLECULE
ZINC26579301
   37    39     0     0     0
SMALL
USER_CHARGES
(5S)-5-hydroxy-4-(4-methylsulfonylphenyl)-3-phenyl-5H-furan-2-one
@<TRIPOS>ATOM
      1 C1          1.3192    6.3515   -7.3287 C.3       1 <0>        -0.6528
      2 S1          0.0076    5.8837   -6.1662 S.o2      1 <0>         2.4978
      3 O1         -0.5631    4.6393   -6.5471 O.2       1 <0>        -0.9346
      4 O2         -0.8197    7.0042   -5.8850 O.2       1 <0>        -0.9346
      5 C2          0.8431    5.5502   -4.6512 C.ar      1 <0>        -0.6495
      6 C3          1.0446    6.5702   -3.7373 C.ar      1 <0>        -0.0237
      7 C4          1.6973    6.3179   -2.5496 C.ar      1 <0>        -0.1033
      8 C5          2.1568    5.0258   -2.2690 C.ar      1 <0>         0.0093
      9 C6          1.9540    4.0014   -3.2011 C.ar      1 <0>        -0.1098
     10 C7          1.2939    4.2695   -4.3813 C.ar      1 <0>        -0.0228
     11 C8          2.8533    4.7477   -1.0059 C.2       1 <0>        -0.0424
     12 C9          2.4228    3.9376    0.0006 C.2       1 <0>        -0.1146
     13 C10         3.4231    3.9376    1.0730 C.2       1 <0>         0.5127
     14 O3          3.3337    3.3070    2.1084 O.2       1 <0>        -0.4278
     15 O4          4.4542    4.7367    0.7440 O.3       1 <0>        -0.3404
     16 C11         4.1867    5.3070   -0.5667 C.3       1 <0>         0.2923
     17 H1          5.0092    5.0922   -1.2648 H         1 <0>         0.1296
     18 O5          4.1220    6.7318   -0.4786 O.3       1 <0>        -0.5727
     19 C12         1.1531    3.1752    0.0081 C.ar      1 <0>        -0.0455
     20 C13         1.1737    1.7805    0.0004 C.ar      1 <0>        -0.0899
     21 C14        -0.0126    1.0758    0.0080 C.ar      1 <0>        -0.1170
     22 C15        -1.2208    1.7498    0.0174 C.ar      1 <0>        -0.1043
     23 C16        -1.2477    3.1330    0.0308 C.ar      1 <0>        -0.1172
     24 C17        -0.0683    3.8489    0.0234 C.ar      1 <0>        -0.0910
     25 H2          1.7528    7.3153   -7.0237 H         1 <0>         0.1343
     26 H3          0.8970    6.4431   -8.3403 H         1 <0>         0.1364
     27 H4          2.1031    5.5798   -7.3270 H         1 <0>         0.1332
     28 H5          0.6891    7.5665   -3.9553 H         1 <0>         0.1488
     29 H6          1.8534    7.1147   -1.8376 H         1 <0>         0.1438
     30 H7          2.3093    3.0027   -2.9942 H         1 <0>         0.1369
     31 H8          1.1320    3.4791   -5.0993 H         1 <0>         0.1486
     32 H9          5.0093    7.3047   -0.1712 H         1 <0>         0.4364
     33 H10         2.1162    1.2533   -0.0111 H         1 <0>         0.1246
     34 H11         0.0021   -0.0041    0.0020 H         1 <0>         0.1294
     35 H12        -2.1467    1.1938    0.0187 H         1 <0>         0.1276
     36 H13        -2.1940    3.6534    0.0426 H         1 <0>         0.1290
     37 H14        -0.0906    4.9286    0.0298 H         1 <0>         0.1229
@<TRIPOS>BOND
     1    1    2 1
     2    1   25 1
     3    1   26 1
     4    1   27 1
     5    2    3 2
     6    2    4 2
     7    2    5 1
     8    5   10 ar
     9    5    6 ar
    10    6    7 ar
    11    6   28 1
    12    7    8 ar
    13    7   29 1
    14    8    9 ar
    15    8   11 1
    16    9   10 ar
    17    9   30 1
    18   10   31 1
    19   11   16 1
    20   11   12 2
    21   12   13 1
    22   12   19 1
    23   13   14 2
    24   13   15 1
    25   15   16 1
    26   16   17 1
    27   16   18 1
    28   18   32 1
    29   19   24 ar
    30   19   20 ar
    31   20   21 ar
    32   20   33 1
    33   21   22 ar
    34   21   34 1
    35   22   23 ar
    36   22   35 1
    37   23   24 ar
    38   23   36 1
    39   24   37 1
@<TRIPOS>MOLECULE
ZINC26579302
   37    39     0     0     0
SMALL
USER_CHARGES
(5R)-5-hydroxy-4-(4-methylsulfonylphenyl)-3-phenyl-5H-furan-2-one
@<TRIPOS>ATOM
      1 C1         -3.1225    0.5900    1.7725 C.3       1 <0>        -0.6528
      2 S1         -2.7312    0.8406    0.0190 S.o2      1 <0>         2.4980
      3 O1         -3.6814    1.7147   -0.5745 O.2       1 <0>        -0.9343
      4 O2         -2.4076   -0.4006   -0.5925 O.2       1 <0>        -0.9350
      5 C2         -1.2217    1.7496    0.0174 C.ar      1 <0>        -0.6508
      6 C3         -0.0126    1.0758    0.0080 C.ar      1 <0>        -0.0205
      7 C4          1.1729    1.7793    0.0004 C.ar      1 <0>        -0.1189
      8 C5          1.1516    3.1789    0.0081 C.ar      1 <0>         0.0172
      9 C6         -0.0755    3.8524    0.0235 C.ar      1 <0>        -0.1024
     10 C7         -1.2517    3.1335    0.0308 C.ar      1 <0>        -0.0197
     11 C8          2.4099    3.9368    0.0007 C.2       1 <0>        -0.0429
     12 C9          2.8607    4.7575   -0.9881 C.2       1 <0>        -0.1140
     13 C10         4.1584    5.3135   -0.5911 C.2       1 <0>         0.5126
     14 O3          4.8206    6.0824   -1.2605 O.2       1 <0>        -0.4272
     15 O4          4.5095    4.8486    0.6216 O.3       1 <0>        -0.3402
     16 C11         3.4553    3.9640    1.0916 C.3       1 <0>         0.2920
     17 H1          3.8605    2.9735    1.3462 H         1 <0>         0.1293
     18 O5          2.8889    4.4695    2.3022 O.3       1 <0>        -0.5709
     19 C12         2.1553    5.0417   -2.2590 C.ar      1 <0>        -0.0450
     20 C13         1.9535    4.0235   -3.1908 C.ar      1 <0>        -0.0934
     21 C14         1.2909    4.2933   -4.3706 C.ar      1 <0>        -0.1168
     22 C15         0.8364    5.5730   -4.6350 C.ar      1 <0>        -0.1051
     23 C16         1.0385    6.5884   -3.7173 C.ar      1 <0>        -0.1160
     24 C17         1.6950    6.3299   -2.5315 C.ar      1 <0>        -0.0896
     25 H2         -2.3808   -0.0876    2.2205 H         1 <0>         0.1342
     26 H3         -4.1257    0.1482    1.8648 H         1 <0>         0.1364
     27 H4         -3.0983    1.5574    2.2955 H         1 <0>         0.1336
     28 H5          0.0021   -0.0041    0.0020 H         1 <0>         0.1493
     29 H6          2.1154    1.2522   -0.0118 H         1 <0>         0.1380
     30 H7         -0.1006    4.9321    0.0291 H         1 <0>         0.1365
     31 H8         -2.1993    3.6515    0.0427 H         1 <0>         0.1488
     32 H9          3.5109    4.5590    3.2050 H         1 <0>         0.4360
     33 H10         2.3116    3.0250   -2.9874 H         1 <0>         0.1231
     34 H11         1.1305    3.5049   -5.0911 H         1 <0>         0.1290
     35 H12         0.3219    5.7802   -5.5617 H         1 <0>         0.1276
     36 H13         0.6819    7.5855   -3.9296 H         1 <0>         0.1295
     37 H14         1.8519    7.1233   -1.8158 H         1 <0>         0.1243
@<TRIPOS>BOND
     1    1    2 1
     2    1   25 1
     3    1   26 1
     4    1   27 1
     5    2    3 2
     6    2    4 2
     7    2    5 1
     8    5   10 ar
     9    5    6 ar
    10    6    7 ar
    11    6   28 1
    12    7    8 ar
    13    7   29 1
    14    8    9 ar
    15    8   11 1
    16    9   10 ar
    17    9   30 1
    18   10   31 1
    19   11   16 1
    20   11   12 2
    21   12   13 1
    22   12   19 1
    23   13   14 2
    24   13   15 1
    25   15   16 1
    26   16   17 1
    27   16   18 1
    28   18   32 1
    29   19   24 ar
    30   19   20 ar
    31   20   21 ar
    32   20   33 1
    33   21   22 ar
    34   21   34 1
    35   22   23 ar
    36   22   35 1
    37   23   24 ar
    38   23   36 1
    39   24   37 1
@<TRIPOS>MOLECULE
ZINC00021455
   37    39     0     0     0
SMALL
USER_CHARGES

@<TRIPOS>ATOM
      1 C1         -0.0167    1.3790    0.0096 C.ar      1 <0>        -0.0963
      2 C2          1.1686    2.0920    0.0021 C.ar      1 <0>        -0.1195
      3 C3          2.3774    1.4262   -0.0134 C.ar      1 <0>        -0.0810
      4 C4          2.4023    0.0328   -0.0211 C.ar      1 <0>        -0.0438
      5 C5          1.2050   -0.6804   -0.0130 C.ar      1 <0>        -0.0814
      6 C6          0.0021   -0.0041    0.0020 C.ar      1 <0>        -0.1200
      7 C7          3.6984   -0.6885   -0.0382 C.2       1 <0>         0.1661
      8 C8          3.9969   -1.9642    0.6237 C.2       1 <0>        -0.2003
      9 C9          5.2934   -2.2585    0.3495 C.2       1 <0>         0.0934
     10 O1          5.7958   -1.2786   -0.4134 O.3       1 <0>        -0.0651
     11 N1          4.7929   -0.3109   -0.6520 N.2       1 <0>        -0.2915
     12 C10         6.0401   -3.4790    0.8225 C.3       1 <0>         0.1451
     13 O2          5.8911   -4.5293   -0.1349 O.3       1 <0>        -0.5585
     14 C11         3.0602   -2.7769    1.4379 C.ar      1 <0>         0.0410
     15 C12         2.5595   -2.2747    2.6375 C.ar      1 <0>        -0.1189
     16 C13         1.6884   -3.0351    3.3909 C.ar      1 <0>        -0.0150
     17 C14         1.3121   -4.2936    2.9573 C.ar      1 <0>        -0.6723
     18 C15         1.8064   -4.7973    1.7676 C.ar      1 <0>        -0.0157
     19 C16         2.6732   -4.0431    1.0030 C.ar      1 <0>        -0.1203
     20 S1          0.1996   -5.2589    3.9243 S.o2      1 <0>         2.7003
     21 O3          0.4305   -6.6167    3.5746 O.2       1 <0>        -0.9612
     22 O4          0.3084   -4.7872    5.2603 O.2       1 <0>        -0.9613
     23 N2         -1.3338   -4.8937    3.4168 N.pl3     1 <0>        -1.2494
     24 H1         -0.9603    1.9042    0.0260 H         1 <0>         0.1301
     25 H2          1.1481    3.1718    0.0081 H         1 <0>         0.1321
     26 H3          3.3022    1.9838   -0.0199 H         1 <0>         0.1297
     27 H4          1.2185   -1.7603   -0.0192 H         1 <0>         0.1269
     28 H5         -0.9264   -0.5557    0.0079 H         1 <0>         0.1315
     29 H6          7.0970   -3.2374    0.9353 H         1 <0>         0.0809
     30 H7          5.6369   -3.8023    1.7822 H         1 <0>         0.0870
     31 H8          6.3469   -5.3477    0.1049 H         1 <0>         0.3967
     32 H9          2.8529   -1.2924    2.9772 H         1 <0>         0.1351
     33 H10         1.3000   -2.6470    4.3209 H         1 <0>         0.1473
     34 H11         1.5098   -5.7808    1.4341 H         1 <0>         0.1479
     35 H12         3.0544   -4.4352    0.0717 H         1 <0>         0.1415
     36 H13        -1.4685   -4.2476    2.7059 H         1 <0>         0.4169
     37 H14        -2.0974   -5.3258    3.8305 H         1 <0>         0.4222
@<TRIPOS>BOND
     1    1    6 ar
     2    1    2 ar
     3    1   24 1
     4    2    3 ar
     5    2   25 1
     6    3    4 ar
     7    3   26 1
     8    4    5 ar
     9    4    7 1
    10    5    6 ar
    11    5   27 1
    12    6   28 1
    13    7   11 2
    14    7    8 1
    15    8    9 2
    16    8   14 1
    17    9   10 1
    18    9   12 1
    19   10   11 1
    20   12   13 1
    21   12   29 1
    22   12   30 1
    23   13   31 1
    24   14   19 ar
    25   14   15 ar
    26   15   16 ar
    27   15   32 1
    28   16   17 ar
    29   16   33 1
    30   17   18 ar
    31   17   20 1
    32   18   19 ar
    33   18   34 1
    34   19   35 1
    35   20   21 2
    36   20   22 2
    37   20   23 1
    38   23   36 1
    39   23   37 1
@<TRIPOS>MOLECULE
ZINC22066293
   32    33     0     0     0
SMALL
USER_CHARGES
[4-[(E)-2-(3,5-dihydroxyphenyl)vinyl]phenyl] hydrogen sulfate
@<TRIPOS>ATOM
      1 C1         -3.7288   -2.1819    0.0332 C.ar      1 <0>        -0.0916
      2 C2         -4.9087   -2.8936    0.0362 C.ar      1 <0>        -0.1242
      3 C3         -4.8847   -4.2824    0.0286 C.ar      1 <0>         0.1343
      4 C4         -3.6725   -4.9604    0.0124 C.ar      1 <0>        -0.1154
      5 C5         -2.4874   -4.2573    0.0039 C.ar      1 <0>        -0.0875
      6 C6         -2.5065   -2.8597    0.0116 C.ar      1 <0>        -0.0828
      7 C7         -1.2420   -2.1033    0.0031 C.2       1 <0>        -0.0711
      8 C8         -1.2628   -0.7607    0.0105 C.2       1 <0>        -0.1370
      9 C9          0.0021   -0.0041    0.0020 C.ar      1 <0>         0.0386
     10 C10        -0.0169    1.3926    0.0097 C.ar      1 <0>        -0.1962
     11 C11         1.1741    2.0989    0.0021 C.ar      1 <0>         0.1971
     12 C12         2.3851    1.4215   -0.0126 C.ar      1 <0>        -0.2668
     13 C13         2.4091    0.0340   -0.0208 C.ar      1 <0>         0.1971
     14 C14         1.2236   -0.6813   -0.0133 C.ar      1 <0>        -0.2550
     15 O1          3.5983   -0.6237   -0.0356 O.3       1 <0>        -0.5120
     16 O2          1.1569    3.4578    0.0091 O.3       1 <0>        -0.5061
     17 O3         -6.0505   -4.9798    0.0373 O.3       1 <0>        -0.7163
     18 S1         -6.5671   -5.3046    1.4316 S.o2      1 <0>         2.7546
     19 O4         -7.6579   -6.1995    1.2624 O.2       1 <0>        -1.0530
     20 O5         -5.4306   -5.6293    2.2204 O.2       1 <0>        -1.0715
     21 O6         -7.1441   -4.0197    2.0084 O.3       1 <0>        -1.0891
     22 H1         -3.7484   -1.1021    0.0437 H         1 <0>         0.1328
     23 H2         -5.8536   -2.3707    0.0488 H         1 <0>         0.1418
     24 H3         -3.6588   -6.0403    0.0061 H         1 <0>         0.1342
     25 H4         -1.5454   -4.7853   -0.0083 H         1 <0>         0.1309
     26 H5         -0.2810   -2.6384   -0.0093 H         1 <0>         0.1249
     27 H6         -2.2238   -0.2256    0.0229 H         1 <0>         0.1311
     28 H7         -0.9589    1.9207    0.0170 H         1 <0>         0.1314
     29 H8          3.3119    1.9759   -0.0185 H         1 <0>         0.1286
     30 H9          1.2434   -1.7611   -0.0196 H         1 <0>         0.1306
     31 H10         3.6185   -1.7235   -0.0421 H         1 <0>         0.4353
     32 H11         2.1024    4.0198    0.0031 H         1 <0>         0.4325
@<TRIPOS>BOND
     1    1    6 ar
     2    1    2 ar
     3    1   22 1
     4    2    3 ar
     5    2   23 1
     6    3    4 ar
     7    3   17 1
     8    4    5 ar
     9    4   24 1
    10    5    6 ar
    11    5   25 1
    12    6    7 1
    13    7    8 2
    14    7   26 1
    15    8    9 1
    16    8   27 1
    17    9   14 ar
    18    9   10 ar
    19   10   11 ar
    20   10   28 1
    21   11   12 ar
    22   11   16 1
    23   12   13 ar
    24   12   29 1
    25   13   14 ar
    26   13   15 1
    27   14   30 1
    28   15   31 1
    29   16   32 1
    30   17   18 1
    31   18   19 2
    32   18   20 2
    33   18   21 1
@<TRIPOS>MOLECULE
ZINC35653092
   32    33     0     0     0
SMALL
USER_CHARGES

@<TRIPOS>ATOM
      1 C1         -0.0169    1.3936    0.0097 C.ar      1 <0>        -0.0945
      2 C2          1.1682    2.0965    0.0022 C.ar      1 <0>        -0.1440
      3 C3          2.3804    1.4185   -0.0131 C.ar      1 <0>         0.0972
      4 C4          2.4043    0.0297   -0.0212 C.ar      1 <0>        -0.1407
      5 C5          1.2244   -0.6820   -0.0142 C.ar      1 <0>        -0.0990
      6 C6          0.0021   -0.0041    0.0020 C.ar      1 <0>        -0.0543
      7 C7         -1.2624   -0.7604    0.0105 C.2       1 <0>        -0.1216
      8 C8         -1.2417   -2.1029    0.0031 C.2       1 <0>        -0.0825
      9 C9         -2.5067   -2.8595    0.0116 C.ar      1 <0>        -0.0389
     10 C10        -3.7284   -2.1820    0.0216 C.ar      1 <0>        -0.1411
     11 C11        -4.9138   -2.8972    0.0296 C.ar      1 <0>         0.1180
     12 C12        -4.8898   -4.2848    0.0277 C.ar      1 <0>        -0.1294
     13 C13        -3.6790   -4.9623    0.0183 C.ar      1 <0>         0.1364
     14 C14        -2.4878   -4.2560    0.0039 C.ar      1 <0>        -0.1179
     15 O1         -3.6619   -6.3212    0.0174 O.3       1 <0>        -0.7109
     16 S1         -3.6646   -6.9394   -1.3734 S.o2      1 <0>         2.7531
     17 O2         -4.0060   -8.3440   -1.2107 O.2       1 <0>        -1.0579
     18 O3         -4.6637   -6.2240   -2.1518 O.2       1 <0>        -1.0778
     19 O4         -2.3261   -6.7649   -1.9158 O.3       1 <0>        -1.0750
     20 O5         -6.1029   -2.2393    0.0398 O.3       1 <0>        -0.4963
     21 O6          3.5463    2.1158   -0.0204 O.3       1 <0>        -0.5007
     22 H1         -0.9588    1.9217    0.0260 H         1 <0>         0.1294
     23 H2          1.1546    3.1764    0.0077 H         1 <0>         0.1281
     24 H3          3.3492   -0.4932   -0.0334 H         1 <0>         0.1294
     25 H4          1.2440   -1.7618   -0.0209 H         1 <0>         0.1331
     26 H5         -2.2059   -0.2349    0.0227 H         1 <0>         0.1261
     27 H6         -0.2983   -2.6284   -0.0091 H         1 <0>         0.1281
     28 H7         -3.7481   -1.1022    0.0234 H         1 <0>         0.1351
     29 H8         -5.8166   -4.8392    0.0340 H         1 <0>         0.1425
     30 H9         -1.5459   -4.7841   -0.0083 H         1 <0>         0.1450
     31 H10        -6.4539   -2.0475   -0.8406 H         1 <0>         0.3925
     32 H11         3.8923    2.3129    0.8608 H         1 <0>         0.3885
@<TRIPOS>BOND
     1    1    6 ar
     2    1    2 ar
     3    1   22 1
     4    2    3 ar
     5    2   23 1
     6    3    4 ar
     7    3   21 1
     8    4    5 ar
     9    4   24 1
    10    5    6 ar
    11    5   25 1
    12    6    7 1
    13    7    8 2
    14    7   26 1
    15    8    9 1
    16    8   27 1
    17    9   14 ar
    18    9   10 ar
    19   10   11 ar
    20   10   28 1
    21   11   12 ar
    22   11   20 1
    23   12   13 ar
    24   12   29 1
    25   13   14 ar
    26   13   15 1
    27   14   30 1
    28   15   16 1
    29   16   17 2
    30   16   18 2
    31   16   19 1
    32   20   31 1
    33   21   32 1
@<TRIPOS>MOLECULE
ZINC02570895
   40    42     0     0     0
SMALL
USER_CHARGES

@<TRIPOS>ATOM
      1 C1          0.0405    1.5033    0.0105 C.3       1 <0>        -0.1224
      2 C2          0.0481   -0.0036    0.0022 C.ar      1 <0>        -0.0617
      3 C3         -0.4654   -0.6891   -1.0843 C.ar      1 <0>        -0.1180
      4 C4         -0.4609   -2.0687   -1.0981 C.ar      1 <0>        -0.0762
      5 C5          0.0630   -2.7726   -0.0133 C.ar      1 <0>        -0.0606
      6 C6          0.5793   -2.0754    1.0794 C.ar      1 <0>        -0.0985
      7 C7          0.5738   -0.6957    1.0787 C.ar      1 <0>        -0.1165
      8 C8          0.0704   -4.2518   -0.0214 C.2       1 <0>         0.1497
      9 C9          0.0778   -5.0559   -1.1264 C.2       1 <0>        -0.2047
     10 C10         0.0841   -6.3814   -0.6911 C.2       1 <0>        -0.0034
     11 N1          0.0806   -6.3920    0.6183 N.2       1 <0>        -0.2184
     12 N2          0.0772   -5.0674    1.0740 N.pl3     1 <0>        -0.3181
     13 C11         0.0780   -4.6538    2.4124 C.ar      1 <0>         0.1993
     14 C12        -0.7877   -3.6523    2.8316 C.ar      1 <0>        -0.1310
     15 C13        -0.7845   -3.2467    4.1518 C.ar      1 <0>        -0.0008
     16 C14         0.0799   -3.8365    5.0557 C.ar      1 <0>        -0.6729
     17 C15         0.9432   -4.8341    4.6414 C.ar      1 <0>         0.0013
     18 C16         0.9405   -5.2485    3.3238 C.ar      1 <0>        -0.1237
     19 S1          0.0817   -3.3155    6.7389 S.o2      1 <0>         2.7035
     20 O1          1.3615   -3.6412    7.2635 O.2       1 <0>        -0.9570
     21 O2         -0.4336   -1.9913    6.7547 O.2       1 <0>        -0.9571
     22 N3         -1.0144   -4.2595    7.5449 N.pl3     1 <0>        -1.2487
     23 C17         0.0927   -7.5984   -1.5799 C.3       1 <0>         0.5581
     24 F1          1.4144   -7.9678   -1.8518 F         1 <0>        -0.1637
     25 F2         -0.5625   -8.6523   -0.9339 F         1 <0>        -0.1639
     26 F3         -0.5656   -7.3049   -2.7789 F         1 <0>        -0.1610
     27 H1          0.9639    1.8738   -0.4347 H         1 <0>         0.0767
     28 H2         -0.8113    1.8655   -0.5652 H         1 <0>         0.0714
     29 H3         -0.0366    1.8607    1.0374 H         1 <0>         0.0715
     30 H4         -0.8709   -0.1431   -1.9232 H         1 <0>         0.1331
     31 H5         -0.8624   -2.6027   -1.9467 H         1 <0>         0.1336
     32 H6          0.9862   -2.6145    1.9221 H         1 <0>         0.1246
     33 H7          0.9772   -0.1548    1.9220 H         1 <0>         0.1315
     34 H8          0.0784   -4.7241   -2.1542 H         1 <0>         0.1732
     35 H9         -1.4626   -3.1908    2.1259 H         1 <0>         0.1459
     36 H10        -1.4576   -2.4679    4.4785 H         1 <0>         0.1580
     37 H11         1.6174   -5.2926    5.3496 H         1 <0>         0.1579
     38 H12         1.6117   -6.0309    3.0018 H         1 <0>         0.1479
     39 H13        -1.5085   -4.9443    7.0675 H         1 <0>         0.4179
     40 H14        -1.1624   -4.1277    8.4945 H         1 <0>         0.4235
@<TRIPOS>BOND
     1    1    2 1
     2    1   27 1
     3    1   28 1
     4    1   29 1
     5    2    7 ar
     6    2    3 ar
     7    3    4 ar
     8    3   30 1
     9    4    5 ar
    10    4   31 1
    11    5    6 ar
    12    5    8 1
    13    6    7 ar
    14    6   32 1
    15    7   33 1
    16    8   12 1
    17    8    9 2
    18    9   10 1
    19    9   34 1
    20   10   11 2
    21   10   23 1
    22   11   12 1
    23   12   13 1
    24   13   18 ar
    25   13   14 ar
    26   14   15 ar
    27   14   35 1
    28   15   16 ar
    29   15   36 1
    30   16   17 ar
    31   16   19 1
    32   17   18 ar
    33   17   37 1
    34   18   38 1
    35   19   20 2
    36   19   21 2
    37   19   22 1
    38   22   39 1
    39   22   40 1
    40   23   24 1
    41   23   25 1
    42   23   26 1
@<TRIPOS>MOLECULE
ZINC00007455
   36    38     0     0     0
SMALL
USER_CHARGES

@<TRIPOS>ATOM
      1 C1         -0.0225    1.8097    0.0120 C.3       1 <0>        -0.6496
      2 S1          0.0021   -0.0041    0.0020 S.o2      1 <0>         2.4981
      3 O1          0.8352   -0.4880    1.0465 O.2       1 <0>        -0.9340
      4 O2         -1.3147   -0.5105   -0.1678 O.2       1 <0>        -0.9341
      5 C2          0.8454   -0.4373   -1.4831 C.ar      1 <0>        -0.6507
      6 C3          0.1298   -0.6119   -2.6551 C.ar      1 <0>        -0.0202
      7 C4          0.7818   -0.9504   -3.8215 C.ar      1 <0>        -0.1172
      8 C5          2.1716   -1.1177   -3.8185 C.ar      1 <0>         0.0092
      9 C6          2.8876   -0.9392   -2.6290 C.ar      1 <0>        -0.1081
     10 C7          2.2206   -0.5956   -1.4726 C.ar      1 <0>        -0.0190
     11 C8          2.8747   -1.4788   -5.0567 C.2       1 <0>        -0.0568
     12 C9          3.7864   -0.7210   -5.7283 C.2       1 <0>        -0.1387
     13 C10         4.2326   -1.4690   -6.9092 C.2       1 <0>         0.5050
     14 O3          5.0462   -1.0718   -7.7204 O.2       1 <0>        -0.4360
     15 O4          3.6087   -2.6593   -6.9612 O.3       1 <0>        -0.3106
     16 C11         2.7349   -2.7668   -5.8340 C.3       1 <0>         0.0732
     17 C12         4.2486    0.6295   -5.3334 C.ar      1 <0>        -0.0365
     18 C13         3.3544    1.7001   -5.3220 C.ar      1 <0>        -0.0956
     19 C14         3.7910    2.9559   -4.9532 C.ar      1 <0>        -0.1186
     20 C15         5.1127    3.1546   -4.5957 C.ar      1 <0>        -0.1084
     21 C16         6.0044    2.0969   -4.6056 C.ar      1 <0>        -0.1162
     22 C17         5.5784    0.8350   -4.9660 C.ar      1 <0>        -0.0916
     23 H1          1.0001    2.1870    0.0043 H         1 <0>         0.1324
     24 H2         -0.5497    2.1708   -0.8711 H         1 <0>         0.1323
     25 H3         -0.5327    2.1613    0.9088 H         1 <0>         0.1353
     26 H4         -0.9425   -0.4828   -2.6556 H         1 <0>         0.1495
     27 H5          0.2220   -1.0866   -4.7350 H         1 <0>         0.1396
     28 H6          3.9600   -1.0668   -2.6182 H         1 <0>         0.1374
     29 H7          2.7720   -0.4536   -0.5549 H         1 <0>         0.1489
     30 H8          3.0268   -3.6125   -5.2113 H         1 <0>         0.1274
     31 H9          1.7060   -2.8891   -6.1723 H         1 <0>         0.1261
     32 H10         2.3226    1.5463   -5.6015 H         1 <0>         0.1218
     33 H11         3.0997    3.7856   -4.9439 H         1 <0>         0.1270
     34 H12         5.4498    4.1395   -4.3082 H         1 <0>         0.1262
     35 H13         7.0351    2.2584   -4.3262 H         1 <0>         0.1285
     36 H14         6.2742    0.0090   -4.9684 H         1 <0>         0.1241
@<TRIPOS>BOND
     1    1    2 1
     2    1   23 1
     3    1   24 1
     4    1   25 1
     5    2    3 2
     6    2    4 2
     7    2    5 1
     8    5   10 ar
     9    5    6 ar
    10    6    7 ar
    11    6   26 1
    12    7    8 ar
    13    7   27 1
    14    8    9 ar
    15    8   11 1
    16    9   10 ar
    17    9   28 1
    18   10   29 1
    19   11   16 1
    20   11   12 2
    21   12   13 1
    22   12   17 1
    23   13   14 2
    24   13   15 1
    25   15   16 1
    26   16   30 1
    27   16   31 1
    28   17   22 ar
    29   17   18 ar
    30   18   19 ar
    31   18   32 1
    32   19   20 ar
    33   19   33 1
    34   20   21 ar
    35   20   34 1
    36   21   22 ar
    37   21   35 1
    38   22   36 1
@<TRIPOS>MOLECULE
ZINC03975277
   23    24     0     0     0
SMALL
USER_CHARGES

@<TRIPOS>ATOM
      1 C1          1.1654    2.0956    0.0022 C.ar      1 <0>        -0.0583
      2 C2         -0.0167    1.3822    0.0096 C.ar      1 <0>        -0.0473
      3 C3          0.0021   -0.0041    0.0020 C.ar      1 <0>        -0.0763
      4 C4          1.2023   -0.6925   -0.0127 C.ar      1 <0>        -0.0424
      5 C5          2.3972    0.0061   -0.0203 C.ar      1 <0>         0.1296
      6 C6          2.3807    1.4118   -0.0130 C.ar      1 <0>        -0.0873
      7 C7          3.6649    2.1286   -0.0212 C.2       1 <0>        -0.0563
      8 C8          4.7834    1.4298    0.2985 C.2       1 <0>        -0.1687
      9 C9          4.6737   -0.0271    0.6656 C.3       1 <0>         0.1061
     10 H1          5.6032   -0.5327    0.4037 H         1 <0>         0.1807
     11 O1          3.5901   -0.6386   -0.0352 O.3       1 <0>        -0.2732
     12 C10         4.4368   -0.1527    2.1720 C.3       1 <0>         0.4283
     13 F1          4.3576   -1.5053    2.5204 F         1 <0>        -0.1790
     14 F2          5.4966    0.4454    2.8621 F         1 <0>        -0.1549
     15 F3          3.2396    0.4870    2.5107 F         1 <0>        -0.1839
     16 C11         6.0493    2.0678    0.2866 C.2       1 <0>         0.4879
     17 O2          6.1347    3.2444   -0.0103 O.co2     1 <0>        -0.6216
     18 Cl1         1.2094   -2.4284   -0.0222 Cl        1 <0>        -0.0420
     19 Cl2        -1.5342    2.2252    0.0214 Cl        1 <0>        -0.0596
     20 H2          1.1490    3.1755    0.0077 H         1 <0>         0.1501
     21 H3         -0.9287   -0.5518    0.0080 H         1 <0>         0.1503
     22 H4          3.7161    3.1776   -0.2733 H         1 <0>         0.1595
     23 O3          7.1595    1.3700    0.6046 O.co2     1 <0>        -0.7418
@<TRIPOS>BOND
     1    1    6 ar
     2    1    2 ar
     3    1   20 1
     4    2    3 ar
     5    2   19 1
     6    3    4 ar
     7    3   21 1
     8    4    5 ar
     9    4   18 1
    10    5   11 1
    11    5    6 ar
    12    6    7 1
    13    7    8 2
    14    7   22 1
    15    8    9 1
    16    8   16 1
    17    9   10 1
    18    9   11 1
    19    9   12 1
    20   12   13 1
    21   12   14 1
    22   12   15 1
    23   16   17 2
    24   16   23 1
@<TRIPOS>MOLECULE
ZINC05481517
   46    47     0     0     0
SMALL
USER_CHARGES

@<TRIPOS>ATOM
      1 C1         -0.0187    1.5258    0.0104 C.3       1 <0>        -0.1496
      2 C2          0.0021   -0.0041    0.0020 C.3       1 <0>        -0.0204
      3 C3          0.7421   -0.5109    1.2415 C.3       1 <0>        -0.1426
      4 C4         -1.4333   -0.5336    0.0129 C.3       1 <0>        -0.1428
      5 C5          0.7074   -0.4901   -1.2379 C.ar      1 <0>        -0.0921
      6 C6          1.2151    0.4185   -2.1418 C.ar      1 <0>        -0.0600
      7 C7          1.8688   -0.0328   -3.2899 C.ar      1 <0>        -0.0226
      8 C8          2.0055   -1.4034   -3.5176 C.ar      1 <0>        -0.0816
      9 C9          1.4951   -2.3054   -2.6087 C.ar      1 <0>        -0.0904
     10 C10         0.8502   -1.8524   -1.4654 C.ar      1 <0>         0.1437
     11 O1          0.3533   -2.7448   -0.5692 O.3       1 <0>        -0.4824
     12 C11         1.6421   -3.7851   -2.8534 C.3       1 <0>        -0.0206
     13 C12         2.3895   -4.0127   -4.1689 C.3       1 <0>        -0.1500
     14 C13         2.4296   -4.4165   -1.7036 C.3       1 <0>        -0.1430
     15 C14         0.2564   -4.4285   -2.9362 C.3       1 <0>        -0.1429
     16 C15         2.4142    0.9378   -4.2619 C.2       1 <0>         0.1124
     17 N1          2.4009    2.2644   -4.2406 N.2       1 <0>        -0.2662
     18 N2          2.9187    2.9513   -5.1631 N.2       1 <0>        -0.2793
     19 C16         3.5081    2.3871   -6.2109 C.2       1 <0>         0.0197
     20 S1          3.2878    0.6584   -5.7996 S.3       1 <0>         0.0399
     21 S2          4.2900    3.1283   -7.6051 S.3       1 <0>         0.0563
     22 C17         4.1209    4.9097   -7.3075 C.3       1 <0>        -0.1514
     23 H1          1.0039    1.9031    0.0027 H         1 <0>         0.0604
     24 H2         -0.5459    1.8868   -0.8726 H         1 <0>         0.0596
     25 H3         -0.5289    1.8773    0.9072 H         1 <0>         0.0620
     26 H4          0.2319   -0.1594    2.1383 H         1 <0>         0.0566
     27 H5          0.7568   -1.6008    1.2356 H         1 <0>         0.0755
     28 H6          1.7647   -0.1336    1.2338 H         1 <0>         0.0522
     29 H7         -1.9605   -0.1726   -0.8702 H         1 <0>         0.0555
     30 H8         -1.4185   -1.6235    0.0069 H         1 <0>         0.0583
     31 H9         -1.9435   -0.1821    0.9097 H         1 <0>         0.0631
     32 H10         1.1070    1.4780   -1.9623 H         1 <0>         0.1454
     33 H11         2.5103   -1.7564   -4.4047 H         1 <0>         0.1347
     34 H12        -0.5596   -3.0111   -0.7442 H         1 <0>         0.3867
     35 H13         3.3767   -3.5543   -4.1099 H         1 <0>         0.0590
     36 H14         2.4958   -5.0830   -4.3459 H         1 <0>         0.0634
     37 H15         1.8284   -3.5629   -4.9881 H         1 <0>         0.0583
     38 H16         1.8972   -4.2543   -0.7664 H         1 <0>         0.0764
     39 H17         2.5360   -5.4867   -1.8806 H         1 <0>         0.0567
     40 H18         3.4168   -3.9581   -1.6446 H         1 <0>         0.0522
     41 H19        -0.3046   -3.9788   -3.7554 H         1 <0>         0.0556
     42 H20         0.3628   -5.4988   -3.1133 H         1 <0>         0.0633
     43 H21        -0.2760   -4.2664   -1.9991 H         1 <0>         0.0588
     44 H22         3.0640    5.1686   -7.2435 H         1 <0>         0.0957
     45 H23         4.6161    5.1704   -6.3721 H         1 <0>         0.0956
     46 H24         4.5809    5.4604   -8.1280 H         1 <0>         0.1209
@<TRIPOS>BOND
     1    1    2 1
     2    1   23 1
     3    1   24 1
     4    1   25 1
     5    2    3 1
     6    2    4 1
     7    2    5 1
     8    3   26 1
     9    3   27 1
    10    3   28 1
    11    4   29 1
    12    4   30 1
    13    4   31 1
    14    5   10 ar
    15    5    6 ar
    16    6    7 ar
    17    6   32 1
    18    7    8 ar
    19    7   16 1
    20    8    9 ar
    21    8   33 1
    22    9   10 ar
    23    9   12 1
    24   10   11 1
    25   11   34 1
    26   12   13 1
    27   12   14 1
    28   12   15 1
    29   13   35 1
    30   13   36 1
    31   13   37 1
    32   14   38 1
    33   14   39 1
    34   14   40 1
    35   15   41 1
    36   15   42 1
    37   15   43 1
    38   16   20 1
    39   16   17 2
    40   17   18 1
    41   18   19 2
    42   19   20 1
    43   19   21 1
    44   21   22 1
    45   22   44 1
    46   22   45 1
    47   22   46 1
@<TRIPOS>MOLECULE
ZINC28218857
   37    38     0     0     0
SMALL
USER_CHARGES
(2S)-2-[4-[[(1R,2S)-2-hydroxycyclopentyl]methyl]phenyl]propanoic acid
@<TRIPOS>ATOM
      1 C1         -1.3493   -1.6626    1.2559 C.3       1 <0>        -0.1189
      2 C2         -1.2926   -0.7753    0.0108 C.3       1 <0>        -0.1068
      3 H1         -2.1333   -0.0659    0.0094 H         1 <0>         0.0753
      4 C3          0.0021   -0.0041    0.0020 C.ar      1 <0>        -0.0372
      5 C4         -0.0167    1.3781    0.0096 C.ar      1 <0>        -0.1258
      6 C5          1.1710    2.0855    0.0021 C.ar      1 <0>        -0.1213
      7 C6          2.3773    1.4107   -0.0150 C.ar      1 <0>        -0.1018
      8 C7          2.3960    0.0285   -0.0212 C.ar      1 <0>        -0.1203
      9 C8          1.2084   -0.6789   -0.0132 C.ar      1 <0>        -0.0799
     10 C9          3.6720    2.1819   -0.0238 C.3       1 <0>        -0.0687
     11 C10         4.0966    2.4492   -1.4692 C.3       1 <0>        -0.0805
     12 H2          4.0878    1.4718   -1.9738 H         1 <0>         0.0899
     13 C11         3.1493    3.4808   -2.1305 C.3       1 <0>        -0.1198
     14 C12         4.0228    4.0676   -3.2670 C.3       1 <0>        -0.1212
     15 C13         5.4345    4.1568   -2.6514 C.3       1 <0>        -0.1507
     16 C14         5.4815    3.1278   -1.5083 C.3       1 <0>         0.1177
     17 H3          5.7768    3.5680   -0.5445 H         1 <0>         0.0528
     18 O1          6.4960    2.1552   -1.7666 O.3       1 <0>        -0.6008
     19 C15        -1.3730   -1.6360   -1.2236 C.2       1 <0>         0.4684
     20 O2         -0.4714   -1.6245   -2.0279 O.co2     1 <0>        -0.6295
     21 O3         -2.4461   -2.4156   -1.4295 O.co2     1 <0>        -0.7697
     22 H4         -2.2944   -2.2255    1.2623 H         1 <0>         0.0638
     23 H5         -1.2907   -1.0343    2.1569 H         1 <0>         0.0422
     24 H6         -0.5036   -2.3660    1.2437 H         1 <0>         0.0483
     25 H7         -0.9592    1.9054    0.0170 H         1 <0>         0.1132
     26 H8          1.1563    3.1654    0.0077 H         1 <0>         0.1110
     27 H9          3.3386   -0.4987   -0.0327 H         1 <0>         0.1125
     28 H10         1.2231   -1.7588   -0.0184 H         1 <0>         0.1162
     29 H11         3.5323    3.1389    0.5003 H         1 <0>         0.0638
     30 H12         4.4515    1.5957    0.4849 H         1 <0>         0.0688
     31 H13         2.2524    2.9667   -2.5063 H         1 <0>         0.0760
     32 H14         2.8545    4.2367   -1.3878 H         1 <0>         0.0678
     33 H15         3.9934    3.3947   -4.1367 H         1 <0>         0.0675
     34 H16         3.6347    5.0558   -3.5548 H         1 <0>         0.0639
     35 H17         6.1853    3.9231   -3.4206 H         1 <0>         0.0710
     36 H18         5.6047    5.1745   -2.2702 H         1 <0>         0.0646
     37 H19         7.5501    2.4633   -1.8289 H         1 <0>         0.3981
@<TRIPOS>BOND
     1    1    2 1
     2    1   22 1
     3    1   23 1
     4    1   24 1
     5    2    3 1
     6    2    4 1
     7    2   19 1
     8    4    9 ar
     9    4    5 ar
    10    5    6 ar
    11    5   25 1
    12    6    7 ar
    13    6   26 1
    14    7    8 ar
    15    7   10 1
    16    8    9 ar
    17    8   27 1
    18    9   28 1
    19   10   11 1
    20   10   29 1
    21   10   30 1
    22   11   12 1
    23   11   16 1
    24   11   13 1
    25   13   14 1
    26   13   31 1
    27   13   32 1
    28   14   15 1
    29   14   33 1
    30   14   34 1
    31   15   16 1
    32   15   35 1
    33   15   36 1
    34   16   17 1
    35   16   18 1
    36   18   37 1
    37   19   20 2
    38   19   21 1
@<TRIPOS>MOLECULE
ZINC28220807
   37    38     0     0     0
SMALL
USER_CHARGES
(2R)-2-[4-[[(1R,2S)-2-hydroxycyclopentyl]methyl]phenyl]propanoic acid
@<TRIPOS>ATOM
      1 C1         -0.0187    1.5258    0.0104 C.3       1 <0>        -0.1187
      2 C2          0.0021   -0.0041    0.0020 C.3       1 <0>        -0.1070
      3 H1         -1.0243   -0.3997    0.0097 H         1 <0>         0.0754
      4 C3          0.7309   -0.5033    1.2229 C.ar      1 <0>        -0.0376
      5 C4          2.0534   -0.1572    1.4281 C.ar      1 <0>        -0.0804
      6 C5          2.7206   -0.6111    2.5504 C.ar      1 <0>        -0.1197
      7 C6          2.0683   -1.4198    3.4623 C.ar      1 <0>        -0.1017
      8 C7          0.7474   -1.7702    3.2545 C.ar      1 <0>        -0.1222
      9 C8          0.0787   -1.3120    2.1348 C.ar      1 <0>        -0.1246
     10 C9          2.7975   -1.9198    4.6827 C.3       1 <0>        -0.0690
     11 C10         3.4693   -3.2568    4.3634 C.3       1 <0>        -0.0792
     12 H2          2.6806   -3.9010    3.9475 H         1 <0>         0.0881
     13 C11         4.6567   -3.0482    3.3910 C.3       1 <0>        -0.1211
     14 C12         5.5406   -4.2916    3.6592 C.3       1 <0>        -0.1212
     15 C13         5.4348   -4.5093    5.1828 C.3       1 <0>        -0.1506
     16 C14         4.1179   -3.8514    5.6305 C.3       1 <0>         0.1177
     17 H3          4.2568   -3.1134    6.4343 H         1 <0>         0.0529
     18 O1          3.2533   -4.8310    6.2093 O.3       1 <0>        -0.6017
     19 C15         0.7074   -0.4901   -1.2379 C.2       1 <0>         0.4687
     20 O2          1.7002   -1.1719   -1.1401 O.co2     1 <0>        -0.6298
     21 O3          0.2329   -0.1655   -2.4508 O.co2     1 <0>        -0.7695
     22 H4         -0.5507    1.8901   -0.8808 H         1 <0>         0.0637
     23 H5          1.0133    1.9066    0.0026 H         1 <0>         0.0481
     24 H6         -0.5336    1.8805    0.9154 H         1 <0>         0.0422
     25 H7          2.5643    0.4710    0.7134 H         1 <0>         0.1161
     26 H8          3.7527   -0.3376    2.7126 H         1 <0>         0.1118
     27 H9          0.2379   -2.4023    3.9667 H         1 <0>         0.1117
     28 H10        -0.9532   -1.5860    1.9722 H         1 <0>         0.1133
     29 H11         3.5623   -1.1867    4.9789 H         1 <0>         0.0645
     30 H12         2.0820   -2.0566    5.5070 H         1 <0>         0.0680
     31 H13         4.2817   -3.0084    2.3577 H         1 <0>         0.0783
     32 H14         5.1669   -2.1041    3.6325 H         1 <0>         0.0684
     33 H15         5.1495   -5.1488    3.0915 H         1 <0>         0.0671
     34 H16         6.5732   -4.0826    3.3427 H         1 <0>         0.0646
     35 H17         5.4279   -5.5877    5.3995 H         1 <0>         0.0706
     36 H18         6.2964   -4.0408    5.6809 H         1 <0>         0.0648
     37 H19         3.5570   -5.3608    7.1242 H         1 <0>         0.3980
@<TRIPOS>BOND
     1    1    2 1
     2    1   22 1
     3    1   23 1
     4    1   24 1
     5    2    3 1
     6    2    4 1
     7    2   19 1
     8    4    9 ar
     9    4    5 ar
    10    5    6 ar
    11    5   25 1
    12    6    7 ar
    13    6   26 1
    14    7    8 ar
    15    7   10 1
    16    8    9 ar
    17    8   27 1
    18    9   28 1
    19   10   11 1
    20   10   29 1
    21   10   30 1
    22   11   12 1
    23   11   16 1
    24   11   13 1
    25   13   14 1
    26   13   31 1
    27   13   32 1
    28   14   15 1
    29   14   33 1
    30   14   34 1
    31   15   16 1
    32   15   35 1
    33   15   36 1
    34   16   17 1
    35   16   18 1
    36   18   37 1
    37   19   20 2
    38   19   21 1
@<TRIPOS>MOLECULE
ZINC44127101
   29    30     0     0     0
SMALL
USER_CHARGES

@<TRIPOS>ATOM
      1 C1         -0.0187    1.5258    0.0104 C.3       1 <0>        -0.1479
      2 C2          0.0021   -0.0041    0.0020 C.3       1 <0>        -0.0787
      3 C3          0.7309   -0.5033    1.2229 C.ar      1 <0>        -0.1100
      4 C4          2.1007   -0.7088    1.1719 C.ar      1 <0>        -0.0904
      5 C5          2.7864   -1.1673    2.2811 C.ar      1 <0>        -0.1331
      6 C6          2.1025   -1.4243    3.4562 C.ar      1 <0>         0.1095
      7 C7          0.7128   -1.2152    3.5113 C.ar      1 <0>        -0.1089
      8 C8          0.0323   -0.7478    2.3866 C.ar      1 <0>        -0.0705
      9 C9          0.0112   -1.4942    4.7722 C.2       1 <0>        -0.0529
     10 C10         0.7586   -1.6149    5.9015 C.2       1 <0>        -0.2059
     11 C11         2.2533   -1.4412    5.8287 C.3       1 <0>         0.1103
     12 H1          2.7231   -2.0282    6.6179 H         1 <0>         0.1697
     13 O1          2.7454   -1.8757    4.5606 O.3       1 <0>        -0.2897
     14 C12         2.6008    0.0362    6.0222 C.3       1 <0>         0.4266
     15 F1          2.1401    0.4638    7.2720 F         1 <0>        -0.1602
     16 F2          3.9884    0.2015    5.9553 F         1 <0>        -0.1843
     17 F3          1.9918    0.7941    5.0163 F         1 <0>        -0.1821
     18 C13         0.1362   -1.9014    7.1377 C.2       1 <0>         0.5209
     19 O2         -1.0797   -2.0417    7.1935 O.co2     1 <0>        -0.6833
     20 O3          0.8127   -2.0096    8.1536 O.co2     1 <0>        -0.6832
     21 H2          1.0039    1.9031    0.0027 H         1 <0>         0.0549
     22 H3         -0.5459    1.8868   -0.8726 H         1 <0>         0.0548
     23 H4         -0.5289    1.8773    0.9072 H         1 <0>         0.0567
     24 H5         -1.0205   -0.3814    0.0098 H         1 <0>         0.0707
     25 H6          0.5123   -0.3556   -0.8948 H         1 <0>         0.0695
     26 H7          2.6376   -0.5091    0.2563 H         1 <0>         0.1264
     27 H8          3.8536   -1.3250    2.2306 H         1 <0>         0.1316
     28 H9         -1.0343   -0.5828    2.4256 H         1 <0>         0.1295
     29 H10        -1.0632   -1.6002    4.8007 H         1 <0>         0.1502
@<TRIPOS>BOND
     1    1    2 1
     2    1   21 1
     3    1   22 1
     4    1   23 1
     5    2    3 1
     6    2   24 1
     7    2   25 1
     8    3    8 ar
     9    3    4 ar
    10    4    5 ar
    11    4   26 1
    12    5    6 ar
    13    5   27 1
    14    6   13 1
    15    6    7 ar
    16    7    8 ar
    17    7    9 1
    18    8   28 1
    19    9   10 2
    20    9   29 1
    21   10   11 1
    22   10   18 1
    23   11   12 1
    24   11   13 1
    25   11   14 1
    26   14   15 1
    27   14   16 1
    28   14   17 1
    29   18   19 2
    30   18   20 1
@<TRIPOS>MOLECULE
ZINC00020235
   30    32     0     0     0
SMALL
USER_CHARGES

@<TRIPOS>ATOM
      1 C1         -0.0187    1.5258    0.0104 C.3       1 <0>        -0.1171
      2 C2          0.0021   -0.0041    0.0020 C.3       1 <0>        -0.1328
      3 H1          0.5293   -0.3651    0.8851 H         1 <0>         0.0694
      4 C3         -1.4117   -0.5257    0.0127 C.ar      1 <0>         0.0064
      5 C4         -2.2731   -0.1977   -1.0231 C.ar      1 <0>        -0.1243
      6 C5         -3.5682   -0.6687   -1.0243 C.ar      1 <0>        -0.0657
      7 C6         -4.0113   -1.4771    0.0199 C.ar      1 <0>        -0.1233
      8 C7         -5.2981   -2.1317    0.3198 C.ar      1 <0>        -0.0836
      9 C8         -6.5268   -2.1740   -0.3353 C.ar      1 <0>        -0.0529
     10 C9         -7.5696   -2.8926    0.2108 C.ar      1 <0>        -0.0705
     11 C10        -7.3978   -3.5715    1.4086 C.ar      1 <0>        -0.0831
     12 C11        -6.1872   -3.5373    2.0661 C.ar      1 <0>        -0.1334
     13 C12        -5.1231   -2.8179    1.5304 C.ar      1 <0>         0.1440
     14 N1         -3.8247   -2.6135    1.9638 N.pl3     1 <0>        -0.6152
     15 H2         -3.4478   -2.9812    2.7784 H         1 <0>         0.4157
     16 C13        -3.1414   -1.8100    1.0687 C.ar      1 <0>         0.1398
     17 C14        -1.8355   -1.3291    1.0491 C.ar      1 <0>        -0.1489
     18 Cl1        -9.1021   -2.9475   -0.6028 Cl        1 <0>        -0.0788
     19 C15         0.7074   -0.4901   -1.2379 C.2       1 <0>         0.5049
     20 O1          1.4615   -1.4461   -1.1751 O.co2     1 <0>        -0.6960
     21 O2          0.5241    0.0728   -2.3037 O.co2     1 <0>        -0.6869
     22 H3          1.0039    1.9031    0.0027 H         1 <0>         0.0496
     23 H4         -0.5459    1.8868   -0.8726 H         1 <0>         0.0624
     24 H5         -0.5289    1.8773    0.9072 H         1 <0>         0.0376
     25 H6         -1.9280    0.4295   -1.8318 H         1 <0>         0.1399
     26 H7         -4.2375   -0.4117   -1.8320 H         1 <0>         0.1227
     27 H8         -6.6624   -1.6455   -1.2673 H         1 <0>         0.1341
     28 H9         -8.2200   -4.1312    1.8295 H         1 <0>         0.1348
     29 H10        -6.0641   -4.0689    2.9981 H         1 <0>         0.1300
     30 H11        -1.1552   -1.5822    1.8487 H         1 <0>         0.1213
@<TRIPOS>BOND
     1    1    2 1
     2    1   22 1
     3    1   23 1
     4    1   24 1
     5    2    3 1
     6    2    4 1
     7    2   19 1
     8    4   17 ar
     9    4    5 ar
    10    5    6 ar
    11    5   25 1
    12    6    7 ar
    13    6   26 1
    14    7   16 ar
    15    7    8 1
    16    8   13 ar
    17    8    9 ar
    18    9   10 ar
    19    9   27 1
    20   10   11 ar
    21   10   18 1
    22   11   12 ar
    23   11   28 1
    24   12   13 ar
    25   12   29 1
    26   13   14 1
    27   14   15 1
    28   14   16 1
    29   16   17 ar
    30   17   30 1
    31   19   20 2
    32   19   21 1
@<TRIPOS>MOLECULE
ZINC01869694
   30    32     0     0     0
SMALL
USER_CHARGES

@<TRIPOS>ATOM
      1 C1         -0.0187    1.5258    0.0104 C.3       1 <0>        -0.1183
      2 C2          0.0021   -0.0041    0.0020 C.3       1 <0>        -0.1354
      3 H1          0.5293   -0.3651    0.8851 H         1 <0>         0.0717
      4 C3          0.7074   -0.4901   -1.2379 C.ar      1 <0>         0.0185
      5 C4          0.2153   -0.1466   -2.4878 C.ar      1 <0>        -0.0995
      6 C5          0.8517   -0.5850   -3.6287 C.ar      1 <0>        -0.0684
      7 C6          1.9935   -1.3761   -3.5236 C.ar      1 <0>        -0.1231
      8 C7          2.8921   -1.9964   -4.5144 C.ar      1 <0>        -0.0824
      9 C8          2.9181   -2.0109   -5.9072 C.ar      1 <0>        -0.0534
     10 C9          3.9147   -2.6994   -6.5663 C.ar      1 <0>        -0.0707
     11 C10         4.8890   -3.3764   -5.8468 C.ar      1 <0>        -0.0842
     12 C11         4.8740   -3.3695   -4.4688 C.ar      1 <0>        -0.1340
     13 C12         3.8766   -2.6799   -3.7860 C.ar      1 <0>         0.1433
     14 N1          3.6208   -2.5056   -2.4370 N.pl3     1 <0>        -0.6159
     15 H2          4.1561   -2.8775   -1.7186 H         1 <0>         0.4147
     16 C13         2.4928   -1.7246   -2.2600 C.ar      1 <0>         0.1385
     17 C14         1.8392   -1.2674   -1.1195 C.ar      1 <0>        -0.1546
     18 Cl1         3.9502   -2.7196   -8.3019 Cl        1 <0>        -0.0799
     19 C15        -1.4117   -0.5257    0.0127 C.2       1 <0>         0.5010
     20 O1         -1.8097   -1.2271   -0.9017 O.co2     1 <0>        -0.6840
     21 O2         -2.1576   -0.2463    0.9358 O.co2     1 <0>        -0.6966
     22 H3          1.0039    1.9031    0.0027 H         1 <0>         0.0409
     23 H4         -0.5459    1.8868   -0.8726 H         1 <0>         0.0497
     24 H5         -0.5289    1.8773    0.9072 H         1 <0>         0.0611
     25 H6         -0.6703    0.4665   -2.5675 H         1 <0>         0.1256
     26 H7          0.4664   -0.3165   -4.6013 H         1 <0>         0.1205
     27 H8          2.1601   -1.4851   -6.4688 H         1 <0>         0.1336
     28 H9          5.6654   -3.9137   -6.3711 H         1 <0>         0.1342
     29 H10         5.6369   -3.9000   -3.9183 H         1 <0>         0.1293
     30 H11         2.2167   -1.5255   -0.1411 H         1 <0>         0.1178
@<TRIPOS>BOND
     1    1    2 1
     2    1   22 1
     3    1   23 1
     4    1   24 1
     5    2    3 1
     6    2    4 1
     7    2   19 1
     8    4   17 ar
     9    4    5 ar
    10    5    6 ar
    11    5   25 1
    12    6    7 ar
    13    6   26 1
    14    7   16 ar
    15    7    8 1
    16    8   13 ar
    17    8    9 ar
    18    9   10 ar
    19    9   27 1
    20   10   11 ar
    21   10   18 1
    22   11   12 ar
    23   11   28 1
    24   12   13 ar
    25   12   29 1
    26   13   14 1
    27   14   15 1
    28   14   16 1
    29   16   17 ar
    30   17   30 1
    31   19   20 2
    32   19   21 1
@<TRIPOS>MOLECULE
ZINC01544807
   25    25     0     0     0
SMALL
USER_CHARGES

@<TRIPOS>ATOM
      1 C1         -0.0186    1.5216    0.0104 C.3       1 <0>        -0.1431
      2 C2          1.2815    2.3325    0.0023 C.3       1 <0>        -0.0514
      3 S1          2.5388    1.2528    0.8324 S.3       1 <0>        -0.2169
      4 S2          1.7599   -0.5564    0.1294 S.3       1 <0>        -0.1609
      5 C3          0.0021   -0.0041    0.0020 C.3       1 <0>        -0.0264
      6 H1         -0.5658   -0.3846    0.8510 H         1 <0>         0.1110
      7 C4         -0.6091   -0.5219   -1.3015 C.3       1 <0>        -0.1052
      8 C5         -0.6997   -2.0484   -1.2512 C.3       1 <0>        -0.1224
      9 C6         -1.3109   -2.5663   -2.5547 C.3       1 <0>        -0.0906
     10 C7         -1.4015   -4.0928   -2.5044 C.3       1 <0>        -0.1841
     11 C8         -2.0035   -4.6029   -3.7883 C.2       1 <0>         0.4878
     12 O1         -2.3298   -3.8182   -4.6625 O.co2     1 <0>        -0.7002
     13 O2         -2.1642   -5.8002   -3.9528 O.co2     1 <0>        -0.7085
     14 H2         -0.5824    1.8293    0.8911 H         1 <0>         0.0829
     15 H3         -0.5991    1.8387   -0.8560 H         1 <0>         0.0968
     16 H4          1.5859    2.5478   -1.0219 H         1 <0>         0.1009
     17 H5          1.1519    3.2593    0.5612 H         1 <0>         0.1206
     18 H6         -1.6074   -0.1026   -1.4265 H         1 <0>         0.0826
     19 H7          0.0184   -0.2227   -2.1410 H         1 <0>         0.0785
     20 H8          0.2986   -2.4677   -1.1262 H         1 <0>         0.0609
     21 H9         -1.3272   -2.3477   -0.4116 H         1 <0>         0.0588
     22 H10        -2.3092   -2.1470   -2.6796 H         1 <0>         0.0592
     23 H11        -0.6834   -2.2671   -3.3942 H         1 <0>         0.0599
     24 H12        -0.4031   -4.5121   -2.3794 H         1 <0>         0.0552
     25 H13        -2.0289   -4.3920   -1.6648 H         1 <0>         0.0546
@<TRIPOS>BOND
     1    1    5 1
     2    1    2 1
     3    1   14 1
     4    1   15 1
     5    2    3 1
     6    2   16 1
     7    2   17 1
     8    3    4 1
     9    4    5 1
    10    5    6 1
    11    5    7 1
    12    7    8 1
    13    7   18 1
    14    7   19 1
    15    8    9 1
    16    8   20 1
    17    8   21 1
    18    9   10 1
    19    9   22 1
    20    9   23 1
    21   10   11 1
    22   10   24 1
    23   10   25 1
    24   11   12 2
    25   11   13 1
@<TRIPOS>MOLECULE
ZINC01548581
   50    50     0     0     0
SMALL
USER_CHARGES
1-(4-hydroxy-3,5-ditert-butyl-phenyl)hex-5-yn-1-one
@<TRIPOS>ATOM
      1 C1         -0.0127    1.0858    0.0080 C.3       1 <0>        -0.1489
      2 C2         -0.7288    1.5792    1.2668 C.3       1 <0>        -0.0213
      3 C3         -0.7496    3.1091    1.2752 C.3       1 <0>        -0.1425
      4 C4         -2.1642    1.0497    1.2777 C.3       1 <0>        -0.1423
      5 C5          0.0000    1.0800    2.4877 C.ar      1 <0>        -0.1053
      6 C6          1.1241    0.3077    2.3456 C.ar      1 <0>        -0.0529
      7 C7          1.8007   -0.1551    3.4810 C.ar      1 <0>        -0.1773
      8 C8          1.3249    0.1738    4.7563 C.ar      1 <0>        -0.0657
      9 C9          0.1999    0.9467    4.8874 C.ar      1 <0>        -0.1060
     10 C10        -0.4653    1.4082    3.7566 C.ar      1 <0>         0.1518
     11 O1         -1.5750    2.1769    3.8917 O.3       1 <0>        -0.4837
     12 C11        -0.3130    1.3019    6.2592 C.3       1 <0>        -0.0207
     13 C12         0.5963    0.6796    7.3206 C.3       1 <0>        -0.1489
     14 C13        -0.3209    2.8231    6.4227 C.3       1 <0>        -0.1432
     15 C14        -1.7354    0.7636    6.4270 C.3       1 <0>        -0.1430
     16 C15         3.0048   -0.9830    3.3347 C.2       1 <0>         0.3964
     17 O2          3.4149   -1.2670    2.2291 O.2       1 <0>        -0.4491
     18 C16         3.7309   -1.4797    4.5583 C.3       1 <0>        -0.1584
     19 C17         4.9411   -2.3123    4.1302 C.3       1 <0>        -0.1084
     20 C18         5.6783   -2.8166    5.3725 C.3       1 <0>        -0.0125
     21 C19         6.8426   -3.6176    4.9607 C.1       1 <0>        -0.1922
     22 C20         7.7712   -4.2565    4.6323 C.1       1 <0>        -0.2047
     23 H1          0.0021   -0.0041    0.0020 H         1 <0>         0.0589
     24 H2          1.0099    1.4631    0.0003 H         1 <0>         0.0596
     25 H3         -0.5399    1.4469   -0.8751 H         1 <0>         0.0617
     26 H4         -1.2768    3.4701    0.3922 H         1 <0>         0.0561
     27 H5         -1.2598    3.4606    2.1720 H         1 <0>         0.0751
     28 H6          0.2730    3.4864    1.2675 H         1 <0>         0.0516
     29 H7         -2.1494   -0.0402    1.2717 H         1 <0>         0.0549
     30 H8         -2.6744    1.4012    2.1745 H         1 <0>         0.0575
     31 H9         -2.6914    1.4107    0.3946 H         1 <0>         0.0627
     32 H10         1.4872    0.0571    1.3599 H         1 <0>         0.1413
     33 H11         1.8433   -0.1804    5.6351 H         1 <0>         0.1391
     34 H12        -2.3994    1.6734    3.9344 H         1 <0>         0.3870
     35 H13         1.6096    1.0631    7.2011 H         1 <0>         0.0596
     36 H14         0.2253    0.9365    8.3128 H         1 <0>         0.0621
     37 H15         0.6019   -0.4042    7.2042 H         1 <0>         0.0589
     38 H16        -0.9687    3.2665    5.6665 H         1 <0>         0.0751
     39 H17        -0.6919    3.0800    7.4149 H         1 <0>         0.0559
     40 H18         0.6924    3.2066    6.3031 H         1 <0>         0.0518
     41 H19        -1.7298   -0.3202    6.3106 H         1 <0>         0.0552
     42 H20        -2.1064    1.0205    7.4192 H         1 <0>         0.0625
     43 H21        -2.3832    1.2069    5.6708 H         1 <0>         0.0575
     44 H22         4.0388   -0.6995    5.1028 H         1 <0>         0.0924
     45 H23         3.0584   -2.0962    5.1546 H         1 <0>         0.1021
     46 H24         4.6055   -3.1627    3.5367 H         1 <0>         0.0742
     47 H25         5.6137   -1.6958    3.5339 H         1 <0>         0.0739
     48 H26         6.0139   -1.9662    5.9660 H         1 <0>         0.0875
     49 H27         5.0057   -3.4331    5.9688 H         1 <0>         0.0878
     50 H28         8.6017   -4.8279    4.3385 H         1 <0>         0.2172
@<TRIPOS>BOND
     1    1    2 1
     2    1   23 1
     3    1   24 1
     4    1   25 1
     5    2    3 1
     6    2    4 1
     7    2    5 1
     8    3   26 1
     9    3   27 1
    10    3   28 1
    11    4   29 1
    12    4   30 1
    13    4   31 1
    14    5   10 ar
    15    5    6 ar
    16    6    7 ar
    17    6   32 1
    18    7    8 ar
    19    7   16 1
    20    8    9 ar
    21    8   33 1
    22    9   10 ar
    23    9   12 1
    24   10   11 1
    25   11   34 1
    26   12   13 1
    27   12   14 1
    28   12   15 1
    29   13   35 1
    30   13   36 1
    31   13   37 1
    32   14   38 1
    33   14   39 1
    34   14   40 1
    35   15   41 1
    36   15   42 1
    37   15   43 1
    38   16   17 2
    39   16   18 1
    40   18   19 1
    41   18   44 1
    42   18   45 1
    43   19   20 1
    44   19   46 1
    45   19   47 1
    46   20   21 1
    47   20   48 1
    48   20   49 1
    49   21   22 3
    50   22   50 1
@<TRIPOS>MOLECULE
ZINC00001281
   29    30     0     0     0
SMALL
USER_CHARGES

@<TRIPOS>ATOM
      1 C1         -0.1806    1.0357    0.2000 C.ar      1 <0>        -0.1222
      2 C2          0.9245    1.8481    0.0217 C.ar      1 <0>        -0.1361
      3 C3          2.1862    1.2928   -0.0570 C.ar      1 <0>        -0.1180
      4 C4          2.3450   -0.0840    0.0433 C.ar      1 <0>         0.1573
      5 C5          1.2329   -0.8970    0.2224 C.ar      1 <0>        -0.0156
      6 C6         -0.0262   -0.3347    0.3002 C.ar      1 <0>        -0.1119
      7 C7          1.4001   -2.3907    0.3312 C.3       1 <0>        -0.1565
      8 C8          1.7182   -2.7580    1.7577 C.2       1 <0>         0.5052
      9 O1          1.8014   -1.8875    2.6073 O.co2     1 <0>        -0.6883
     10 O2          1.8923   -3.9257    2.0622 O.co2     1 <0>        -0.7010
     11 N1          3.6199   -0.6493   -0.0363 N.pl3     1 <0>        -0.6799
     12 C9          3.9705   -1.4310   -1.1417 C.ar      1 <0>         0.2371
     13 C10         3.3529   -1.2194   -2.3686 C.ar      1 <0>        -0.0923
     14 C11         3.7019   -1.9940   -3.4588 C.ar      1 <0>        -0.0712
     15 C12         4.6640   -2.9789   -3.3298 C.ar      1 <0>        -0.1540
     16 C13         5.2803   -3.1928   -2.1105 C.ar      1 <0>        -0.0674
     17 C14         4.9413   -2.4177   -1.0174 C.ar      1 <0>        -0.0897
     18 Cl1         5.7217   -2.6815    0.5107 Cl        1 <0>        -0.0512
     19 Cl2         2.1442    0.0160   -2.5315 Cl        1 <0>        -0.0473
     20 H1         -1.1659    1.4731    0.2657 H         1 <0>         0.1132
     21 H2          0.8003    2.9181   -0.0565 H         1 <0>         0.1137
     22 H3          3.0486    1.9277   -0.1966 H         1 <0>         0.1147
     23 H4         -0.8913   -0.9662    0.4394 H         1 <0>         0.1149
     24 H5          0.4765   -2.8828    0.0266 H         1 <0>         0.0630
     25 H6          2.2146   -2.7133   -0.3173 H         1 <0>         0.0663
     26 H7          4.2621   -0.4997    0.6751 H         1 <0>         0.4125
     27 H8          3.2224   -1.8301   -4.4125 H         1 <0>         0.1341
     28 H9          4.9344   -3.5828   -4.1833 H         1 <0>         0.1345
     29 H10         6.0307   -3.9634   -2.0133 H         1 <0>         0.1361
@<TRIPOS>BOND
     1    1    6 ar
     2    1    2 ar
     3    1   20 1
     4    2    3 ar
     5    2   21 1
     6    3    4 ar
     7    3   22 1
     8    4    5 ar
     9    4   11 1
    10    5    6 ar
    11    5    7 1
    12    6   23 1
    13    7    8 1
    14    7   24 1
    15    7   25 1
    16    8    9 2
    17    8   10 1
    18   11   12 1
    19   11   26 1
    20   12   17 ar
    21   12   13 ar
    22   13   14 ar
    23   13   19 1
    24   14   15 ar
    25   14   27 1
    26   15   16 ar
    27   15   28 1
    28   16   17 ar
    29   16   29 1
    30   17   18 1
@<TRIPOS>MOLECULE
ZINC05781224
   33    34     0     0     0
SMALL
USER_CHARGES
methyl 2-(2,6-dichloro-3-methyl-phenyl)aminobenzoate
@<TRIPOS>ATOM
      1 C1         -4.7388    5.9903    0.8076 C.3       1 <0>        -0.1215
      2 C2         -4.1940    4.6832    1.3231 C.ar      1 <0>        -0.0327
      3 C3         -4.3103    4.3676    2.6646 C.ar      1 <0>        -0.1471
      4 C4         -3.8117    3.1698    3.1423 C.ar      1 <0>        -0.0641
      5 C5         -3.1951    2.2827    2.2799 C.ar      1 <0>        -0.1055
      6 C6         -3.0716    2.5986    0.9324 C.ar      1 <0>         0.2510
      7 C7         -3.5793    3.8012    0.4548 C.ar      1 <0>        -0.0722
      8 Cl1        -3.4349    4.1980   -1.2291 Cl        1 <0>        -0.0534
      9 N1         -2.4432    1.7063    0.0578 N.pl3     1 <0>        -0.6865
     10 C8         -2.3492    0.3607    0.3879 C.ar      1 <0>         0.2290
     11 C9         -1.1214   -0.1889    0.7371 C.ar      1 <0>        -0.1335
     12 C10        -1.0317   -1.5247    1.0697 C.ar      1 <0>        -0.0748
     13 C11        -2.1593   -2.3310    1.0486 C.ar      1 <0>        -0.1372
     14 C12        -3.3840   -1.8063    0.6997 C.ar      1 <0>        -0.0519
     15 C13        -3.4932   -0.4534    0.3650 C.ar      1 <0>        -0.1389
     16 C14        -4.7998    0.1146   -0.0086 C.2       1 <0>         0.5015
     17 O1         -4.8736    1.2624   -0.4008 O.2       1 <0>        -0.4829
     18 O2         -5.9135   -0.6387    0.0845 O.3       1 <0>        -0.3576
     19 C15        -7.1662   -0.0136   -0.3006 C.3       1 <0>         0.0396
     20 Cl2        -2.5694    0.7790    2.8808 Cl        1 <0>        -0.0507
     21 H1         -3.9648    6.7554    0.8677 H         1 <0>         0.0794
     22 H2         -5.0509    5.8699   -0.2298 H         1 <0>         0.0753
     23 H3         -5.5946    6.2909    1.4120 H         1 <0>         0.0741
     24 H4         -4.7916    5.0586    3.3408 H         1 <0>         0.1381
     25 H5         -3.9037    2.9270    4.1907 H         1 <0>         0.1379
     26 H6         -2.0730    2.0273   -0.7794 H         1 <0>         0.4168
     27 H7         -0.2374    0.4312    0.7518 H         1 <0>         0.1356
     28 H8         -0.0760   -1.9460    1.3444 H         1 <0>         0.1327
     29 H9         -2.0768   -3.3764    1.3069 H         1 <0>         0.1330
     30 H10        -4.2588   -2.4394    0.6843 H         1 <0>         0.1393
     31 H11        -7.1106    0.2995   -1.3432 H         1 <0>         0.0629
     32 H12        -7.9810   -0.7272   -0.1784 H         1 <0>         0.1019
     33 H13        -7.3473    0.8563    0.3308 H         1 <0>         0.0624
@<TRIPOS>BOND
     1    1    2 1
     2    1   21 1
     3    1   22 1
     4    1   23 1
     5    2    7 ar
     6    2    3 ar
     7    3    4 ar
     8    3   24 1
     9    4    5 ar
    10    4   25 1
    11    5    6 ar
    12    5   20 1
    13    6    7 ar
    14    6    9 1
    15    7    8 1
    16    9   10 1
    17    9   26 1
    18   10   15 ar
    19   10   11 ar
    20   11   12 ar
    21   11   27 1
    22   12   13 ar
    23   12   28 1
    24   13   14 ar
    25   13   29 1
    26   14   15 ar
    27   14   30 1
    28   15   16 1
    29   16   17 2
    30   16   18 1
    31   18   19 1
    32   19   31 1
    33   19   32 1
    34   19   33 1
@<TRIPOS>MOLECULE
ZINC01636901
   33    35     0     0     0
SMALL
USER_CHARGES
1-phenothiazin-10-ylpropan-2-ol
@<TRIPOS>ATOM
      1 C1          0.1692   -2.0447    1.4339 C.3       1 <0>        -0.1851
      2 C2          0.0228   -0.5218    1.4416 C.3       1 <0>         0.0837
      3 H1          0.8637   -0.0786    1.9750 H         1 <0>         0.0562
      4 C3          0.0021   -0.0041    0.0020 C.3       1 <0>         0.1283
      5 N1         -0.0178    1.4608    0.0101 N.pl3     1 <0>        -0.5765
      6 C4         -1.2497    2.1238    0.0196 C.ar      1 <0>         0.2077
      7 C5         -2.3221    1.6237   -0.6963 C.ar      1 <0>        -0.1431
      8 C6         -3.5372    2.2859   -0.6780 C.ar      1 <0>        -0.0821
      9 C7         -3.6911    3.4462    0.0563 C.ar      1 <0>        -0.1373
     10 C8         -2.6261    3.9548    0.7820 C.ar      1 <0>        -0.0620
     11 C9         -1.4111    3.2969    0.7671 C.ar      1 <0>        -0.1445
     12 S1         -0.0353    3.9203    1.6820 S.3       1 <0>         0.0024
     13 C10         1.3395    3.3339    0.7417 C.ar      1 <0>        -0.1463
     14 C11         1.1956    2.1571    0.0022 C.ar      1 <0>         0.1891
     15 C12         2.2672    1.6864   -0.7405 C.ar      1 <0>        -0.1515
     16 C13         3.4644    2.3811   -0.7443 C.ar      1 <0>        -0.0826
     17 C14         3.6012    3.5443   -0.0110 C.ar      1 <0>        -0.1357
     18 C15         2.5367    4.0237    0.7349 C.ar      1 <0>        -0.0609
     19 O1         -1.1971   -0.1638    2.0941 O.3       1 <0>        -0.5558
     20 H2          0.1839   -2.4135    2.4595 H         1 <0>         0.0637
     21 H3         -0.6718   -2.4879    0.9005 H         1 <0>         0.0663
     22 H4          1.0997   -2.3178    0.9362 H         1 <0>         0.0672
     23 H5         -0.8878   -0.3767   -0.5053 H         1 <0>         0.0891
     24 H6          0.8920   -0.3525   -0.5222 H         1 <0>         0.0941
     25 H7         -2.2096    0.7173   -1.2727 H         1 <0>         0.1251
     26 H8         -4.3707    1.8930   -1.2412 H         1 <0>         0.1283
     27 H9         -4.6425    3.9573    0.0644 H         1 <0>         0.1297
     28 H10        -2.7451    4.8612    1.3569 H         1 <0>         0.1319
     29 H11         2.1681    0.7778   -1.3157 H         1 <0>         0.1283
     30 H12         4.2970    2.0118   -1.3246 H         1 <0>         0.1301
     31 H13         4.5387    4.0803   -0.0196 H         1 <0>         0.1312
     32 H14         2.6422    4.9326    1.3085 H         1 <0>         0.1337
     33 H15        -1.2536   -0.4606    3.0127 H         1 <0>         0.3772
@<TRIPOS>BOND
     1    1    2 1
     2    1   20 1
     3    1   21 1
     4    1   22 1
     5    2    3 1
     6    2    4 1
     7    2   19 1
     8    4    5 1
     9    4   23 1
    10    4   24 1
    11    5   14 1
    12    5    6 1
    13    6   11 ar
    14    6    7 ar
    15    7    8 ar
    16    7   25 1
    17    8    9 ar
    18    8   26 1
    19    9   10 ar
    20    9   27 1
    21   10   11 ar
    22   10   28 1
    23   11   12 1
    24   12   13 1
    25   13   18 ar
    26   13   14 ar
    27   14   15 ar
    28   15   16 ar
    29   15   29 1
    30   16   17 ar
    31   16   30 1
    32   17   18 ar
    33   17   31 1
    34   18   32 1
    35   19   33 1
@<TRIPOS>MOLECULE
ZINC03593541
   33    35     0     0     0
SMALL
USER_CHARGES
1-phenothiazin-10-ylpropan-2-ol
@<TRIPOS>ATOM
      1 C1          2.0397    1.1274   -1.2607 C.3       1 <0>        -0.1842
      2 C2          1.2864    1.5618   -0.0018 C.3       1 <0>         0.0850
      3 H1          1.1856    2.6471    0.0050 H         1 <0>         0.0993
      4 C3          2.0636    1.1140    1.2377 C.3       1 <0>         0.0888
      5 N1          1.3422    1.5299    2.4430 N.pl3     1 <0>        -0.5744
      6 C4          1.6222    2.7799    3.0054 C.ar      1 <0>         0.1892
      7 C5          2.9144    3.2729    3.0136 C.ar      1 <0>        -0.1508
      8 C6          3.1802    4.5118    3.5701 C.ar      1 <0>        -0.0829
      9 C7          2.1604    5.2671    4.1167 C.ar      1 <0>        -0.1349
     10 C8          0.8608    4.7869    4.1101 C.ar      1 <0>        -0.0613
     11 C9          0.5905    3.5506    3.5553 C.ar      1 <0>        -0.1460
     12 S1         -1.0557    2.9119    3.5315 S.3       1 <0>         0.0081
     13 C10        -0.7835    1.1674    3.5549 C.ar      1 <0>        -0.1417
     14 C11         0.3969    0.6634    3.0024 C.ar      1 <0>         0.2034
     15 C12         0.6228   -0.7041    3.0149 C.ar      1 <0>        -0.1556
     16 C13        -0.3164   -1.5553    3.5710 C.ar      1 <0>        -0.0821
     17 C14        -1.4821   -1.0515    4.1157 C.ar      1 <0>        -0.1367
     18 C15        -1.7181    0.3136    4.1086 C.ar      1 <0>        -0.0598
     19 O1         -0.0110    0.9628    0.0073 O.3       1 <0>        -0.5477
     20 H2          1.4860    1.4464   -2.1437 H         1 <0>         0.0700
     21 H3          3.0293    1.5842   -1.2677 H         1 <0>         0.0679
     22 H4          2.1405    0.0421   -1.2675 H         1 <0>         0.0605
     23 H5          2.1644    0.0287    1.2309 H         1 <0>         0.0847
     24 H6          3.0532    1.5708    1.2307 H         1 <0>         0.0899
     25 H7          3.7169    2.6884    2.5883 H         1 <0>         0.1278
     26 H8          4.1916    4.8907    3.5775 H         1 <0>         0.1302
     27 H9          2.3766    6.2325    4.5499 H         1 <0>         0.1314
     28 H10         0.0626    5.3764    4.5364 H         1 <0>         0.1340
     29 H11         1.5316   -1.1054    2.5912 H         1 <0>         0.1259
     30 H12        -0.1368   -2.6202    3.5794 H         1 <0>         0.1290
     31 H13        -2.2097   -1.7225    4.5478 H         1 <0>         0.1304
     32 H14        -2.6288    0.7087    4.5340 H         1 <0>         0.1329
     33 H15         0.0021   -0.0041    0.0020 H         1 <0>         0.3697
@<TRIPOS>BOND
     1    1    2 1
     2    1   20 1
     3    1   21 1
     4    1   22 1
     5    2    3 1
     6    2    4 1
     7    2   19 1
     8    4    5 1
     9    4   23 1
    10    4   24 1
    11    5   14 1
    12    5    6 1
    13    6   11 ar
    14    6    7 ar
    15    7    8 ar
    16    7   25 1
    17    8    9 ar
    18    8   26 1
    19    9   10 ar
    20    9   27 1
    21   10   11 ar
    22   10   28 1
    23   11   12 1
    24   12   13 1
    25   13   18 ar
    26   13   14 ar
    27   14   15 ar
    28   15   16 ar
    29   15   29 1
    30   16   17 ar
    31   16   30 1
    32   17   18 ar
    33   17   31 1
    34   18   32 1
    35   19   33 1
@<TRIPOS>MOLECULE
ZINC00056582
   35    36     0     0     0
SMALL
USER_CHARGES

@<TRIPOS>ATOM
      1 C1         -0.0184    1.5028    0.0103 C.3       1 <0>        -0.1049
      2 C2          0.0021   -0.0041    0.0020 C.ar      1 <0>        -0.0802
      3 C3          0.0058   -0.6885   -1.1962 C.ar      1 <0>        -0.1165
      4 C4          0.0259   -2.0791   -1.2097 C.ar      1 <0>         0.1488
      5 C5          0.0449   -2.7781   -0.0153 C.ar      1 <0>        -0.1553
      6 C6          0.0389   -2.0905    1.1864 C.ar      1 <0>        -0.0785
      7 C7          0.0230   -0.7049    1.1985 C.ar      1 <0>         0.0505
      8 O1          0.0225   -0.0339    2.3812 O.3       1 <0>        -0.4914
      9 C8          0.0545   -2.8521    2.4867 C.3       1 <0>        -0.1066
     10 C9          0.0784   -4.2852    0.0124 C.3       1 <0>        -0.0745
     11 C10        -0.3568   -4.8361   -1.3477 C.3       1 <0>        -0.1321
     12 C11         0.4167   -4.0876   -2.4407 C.3       1 <0>         0.0460
     13 O2          0.0230   -2.7150   -2.4113 O.3       1 <0>        -0.2734
     14 C12         1.9196   -4.1985   -2.1763 C.3       1 <0>        -0.1525
     15 C13         0.0927   -4.6798   -3.7880 C.2       1 <0>         0.5161
     16 O3         -0.4106   -3.9850   -4.6543 O.co2     1 <0>        -0.6706
     17 O4          0.3338   -5.8538   -4.0118 O.co2     1 <0>        -0.6816
     18 C14        -0.0125    0.0741   -2.4958 C.3       1 <0>        -0.1056
     19 H1          1.0042    1.8801    0.0026 H         1 <0>         0.0687
     20 H2         -0.5455    1.8639   -0.8728 H         1 <0>         0.0692
     21 H3         -0.5286    1.8543    0.9071 H         1 <0>         0.0628
     22 H4         -0.8609    0.1466    2.7307 H         1 <0>         0.3739
     23 H5          1.0859   -3.0205    2.7967 H         1 <0>         0.0686
     24 H6         -0.4653   -2.2755    3.2518 H         1 <0>         0.0629
     25 H7         -0.4456   -3.8112    2.3521 H         1 <0>         0.0671
     26 H8          1.0917   -4.6215    0.2325 H         1 <0>         0.0752
     27 H9         -0.5994   -4.6489    0.7847 H         1 <0>         0.0759
     28 H10        -0.1314   -5.9011   -1.4019 H         1 <0>         0.0870
     29 H11        -1.4271   -4.6792   -1.4822 H         1 <0>         0.0672
     30 H12         2.2128   -5.2483   -2.1804 H         1 <0>         0.0734
     31 H13         2.4658   -3.6656   -2.9547 H         1 <0>         0.0564
     32 H14         2.1510   -3.7605   -1.2053 H         1 <0>         0.0491
     33 H15         1.0107    0.2732   -2.8147 H         1 <0>         0.0645
     34 H16        -0.5217   -0.5171   -3.2569 H         1 <0>         0.0786
     35 H17        -0.5396    1.0179   -2.3559 H         1 <0>         0.0621
@<TRIPOS>BOND
     1    1    2 1
     2    1   19 1
     3    1   20 1
     4    1   21 1
     5    2    7 ar
     6    2    3 ar
     7    3    4 ar
     8    3   18 1
     9    4   13 1
    10    4    5 ar
    11    5    6 ar
    12    5   10 1
    13    6    7 ar
    14    6    9 1
    15    7    8 1
    16    8   22 1
    17    9   23 1
    18    9   24 1
    19    9   25 1
    20   10   11 1
    21   10   26 1
    22   10   27 1
    23   11   12 1
    24   11   28 1
    25   11   29 1
    26   12   13 1
    27   12   14 1
    28   12   15 1
    29   14   30 1
    30   14   31 1
    31   14   32 1
    32   15   16 2
    33   15   17 1
    34   18   33 1
    35   18   34 1
    36   18   35 1
@<TRIPOS>MOLECULE
ZINC03861683
   35    36     0     0     0
SMALL
USER_CHARGES

@<TRIPOS>ATOM
      1 C1         -0.0184    1.5028    0.0103 C.3       1 <0>        -0.1048
      2 C2          0.0021   -0.0041    0.0020 C.ar      1 <0>        -0.0802
      3 C3          0.0058   -0.6885   -1.1962 C.ar      1 <0>        -0.1165
      4 C4          0.0234   -2.0792   -1.2096 C.ar      1 <0>         0.1483
      5 C5          0.0353   -2.7782   -0.0153 C.ar      1 <0>        -0.1551
      6 C6          0.0347   -2.0906    1.1864 C.ar      1 <0>        -0.0785
      7 C7          0.0230   -0.7049    1.1985 C.ar      1 <0>         0.0504
      8 O1          0.0266   -0.0338    2.3812 O.3       1 <0>        -0.4910
      9 C8          0.0517   -2.8521    2.4867 C.3       1 <0>        -0.1051
     10 C9          0.0431   -4.2857    0.0126 C.3       1 <0>        -0.0733
     11 C10         0.4796   -4.8247   -1.3519 C.3       1 <0>        -0.1320
     12 C11        -0.3249   -4.0977   -2.4370 C.3       1 <0>         0.0452
     13 O2          0.0315   -2.7149   -2.4113 O.3       1 <0>        -0.2725
     14 C12        -1.8215   -4.2494   -2.1576 C.3       1 <0>        -0.1521
     15 C13         0.0017   -4.6811   -3.7876 C.2       1 <0>         0.5160
     16 O3         -0.2096   -5.8612   -4.0091 O.co2     1 <0>        -0.6816
     17 O4          0.4773   -3.9729   -4.6587 O.co2     1 <0>        -0.6704
     18 C14        -0.0098    0.0742   -2.4958 C.3       1 <0>        -0.1043
     19 H1          1.0042    1.8801    0.0026 H         1 <0>         0.0691
     20 H2         -0.5455    1.8639   -0.8728 H         1 <0>         0.0689
     21 H3         -0.5286    1.8543    0.9071 H         1 <0>         0.0626
     22 H4         -0.8557    0.1493    2.7322 H         1 <0>         0.3734
     23 H5          1.0833   -3.0237    2.7939 H         1 <0>         0.0687
     24 H6         -0.4642   -2.2739    3.2533 H         1 <0>         0.0633
     25 H7         -0.4518   -3.8097    2.3536 H         1 <0>         0.0655
     26 H8          0.7383   -4.6307    0.7781 H         1 <0>         0.0743
     27 H9         -0.9583   -4.6494    0.2427 H         1 <0>         0.0750
     28 H10         1.5438   -4.6388   -1.4970 H         1 <0>         0.0673
     29 H11         0.2827   -5.8955   -1.4040 H         1 <0>         0.0871
     30 H12        -2.0550   -3.8177   -1.1844 H         1 <0>         0.0488
     31 H13        -2.3897   -3.7317   -2.9304 H         1 <0>         0.0563
     32 H14        -2.0860   -5.3068   -2.1590 H         1 <0>         0.0734
     33 H15         1.0140    0.2714   -2.8136 H         1 <0>         0.0665
     34 H16        -0.5192   -0.5162   -3.2574 H         1 <0>         0.0756
     35 H17        -0.5354    1.0188   -2.3565 H         1 <0>         0.0617
@<TRIPOS>BOND
     1    1    2 1
     2    1   19 1
     3    1   20 1
     4    1   21 1
     5    2    7 ar
     6    2    3 ar
     7    3    4 ar
     8    3   18 1
     9    4   13 1
    10    4    5 ar
    11    5    6 ar
    12    5   10 1
    13    6    7 ar
    14    6    9 1
    15    7    8 1
    16    8   22 1
    17    9   23 1
    18    9   24 1
    19    9   25 1
    20   10   11 1
    21   10   26 1
    22   10   27 1
    23   11   12 1
    24   11   28 1
    25   11   29 1
    26   12   13 1
    27   12   14 1
    28   12   15 1
    29   14   30 1
    30   14   31 1
    31   14   32 1
    32   15   16 2
    33   15   17 1
    34   18   33 1
    35   18   34 1
    36   18   35 1
@<TRIPOS>MOLECULE
ZINC00105216
   30    31     0     0     0
SMALL
USER_CHARGES

@<TRIPOS>ATOM
      1 C1         -0.0187    1.5258    0.0104 C.3       1 <0>        -0.1185
      2 C2          0.0021   -0.0041    0.0020 C.3       1 <0>        -0.1364
      3 H1         -1.0205   -0.3814    0.0098 H         1 <0>         0.0713
      4 C3          0.7074   -0.4901   -1.2379 C.ar      1 <0>        -0.0233
      5 C4          2.0367   -0.1325   -1.4560 C.ar      1 <0>        -0.0492
      6 C5          2.7027   -0.5545   -2.5653 C.ar      1 <0>        -0.1340
      7 C6          2.0432   -1.3636   -3.5068 C.ar      1 <0>        -0.0210
      8 C7          2.6987   -1.8182   -4.6628 C.ar      1 <0>        -0.1462
      9 C8          2.0264   -2.6031   -5.5556 C.ar      1 <0>         0.1082
     10 C9          0.6925   -2.9604   -5.3345 C.ar      1 <0>        -0.2006
     11 C10         0.0299   -2.5361   -4.2254 C.ar      1 <0>        -0.0655
     12 C11         0.6914   -1.7275   -3.2846 C.ar      1 <0>        -0.0750
     13 C12         0.0385   -1.2762   -2.1250 C.ar      1 <0>        -0.1205
     14 O1          2.6617   -3.0423   -6.6736 O.3       1 <0>        -0.3228
     15 C13         1.9067   -3.8599   -7.5700 C.3       1 <0>         0.0296
     16 C14         0.7309   -0.5033    1.2229 C.2       1 <0>         0.5002
     17 O2          0.3210   -0.2204    2.3358 O.co2     1 <0>        -0.6976
     18 O3          1.7305   -1.1901    1.0978 O.co2     1 <0>        -0.6861
     19 H2          1.0039    1.9031    0.0027 H         1 <0>         0.0479
     20 H3         -0.5459    1.8868   -0.8726 H         1 <0>         0.0406
     21 H4         -0.5289    1.8773    0.9072 H         1 <0>         0.0604
     22 H5          2.5458    0.4890   -0.7342 H         1 <0>         0.1214
     23 H6          3.7325   -0.2690   -2.7216 H         1 <0>         0.1221
     24 H7          3.7285   -1.5483   -4.8448 H         1 <0>         0.1285
     25 H8          0.1814   -3.5818   -6.0549 H         1 <0>         0.1229
     26 H9         -1.0004   -2.8192   -4.0679 H         1 <0>         0.1257
     27 H10        -0.9902   -1.5485   -1.9405 H         1 <0>         0.1191
     28 H11         2.5306   -4.1410   -8.4184 H         1 <0>         0.0948
     29 H12         1.5744   -4.7583   -7.0499 H         1 <0>         0.0524
     30 H13         1.0391   -3.3040   -7.9254 H         1 <0>         0.0519
@<TRIPOS>BOND
     1    1    2 1
     2    1   19 1
     3    1   20 1
     4    1   21 1
     5    2    3 1
     6    2    4 1
     7    2   16 1
     8    4   13 ar
     9    4    5 ar
    10    5    6 ar
    11    5   22 1
    12    6    7 ar
    13    6   23 1
    14    7   12 ar
    15    7    8 ar
    16    8    9 ar
    17    8   24 1
    18    9   10 ar
    19    9   14 1
    20   10   11 ar
    21   10   25 1
    22   11   12 ar
    23   11   26 1
    24   12   13 ar
    25   13   27 1
    26   14   15 1
    27   15   28 1
    28   15   29 1
    29   15   30 1
    30   16   17 2
    31   16   18 1
@<TRIPOS>MOLECULE
ZINC03048056
   31    32     0     0     0
SMALL
USER_CHARGES

@<TRIPOS>ATOM
      1 C1         -0.0184    1.5028    0.0103 C.3       1 <0>        -0.1089
      2 C2          0.0021   -0.0041    0.0020 C.ar      1 <0>        -0.1403
      3 C3          0.0058   -0.6873   -1.2002 C.ar      1 <0>        -0.0646
      4 C4          0.0245   -2.0682   -1.2115 C.ar      1 <0>        -0.1815
      5 C5          0.0401   -2.7708   -0.0132 C.ar      1 <0>         0.2103
      6 C6          0.0368   -2.0813    1.1927 C.ar      1 <0>        -0.1976
      7 C7          0.0229   -0.7003    1.1966 C.ar      1 <0>        -0.0663
      8 N1          0.0585   -4.1674   -0.0209 N.pl3     1 <0>        -0.5430
      9 N2          0.0742   -4.8744    1.1885 N.am      1 <0>        -0.5181
     10 C8          0.0921   -6.2220    1.1811 C.2       1 <0>         0.5578
     11 O1          0.0945   -6.8240    0.1251 O.2       1 <0>        -0.5354
     12 C9          0.1087   -6.9681    2.4574 C.ar      1 <0>        -0.1292
     13 C10         0.1000   -6.2800    3.6717 C.ar      1 <0>        -0.0886
     14 C11         0.1151   -6.9823    4.8591 C.ar      1 <0>        -0.1243
     15 C12         0.1392   -8.3656    4.8479 C.ar      1 <0>        -0.0892
     16 C13         0.1483   -9.0538    3.6476 C.ar      1 <0>        -0.1243
     17 C14         0.1271   -8.3638    2.4532 C.ar      1 <0>        -0.0552
     18 H1          1.0042    1.8801    0.0026 H         1 <0>         0.0660
     19 H2         -0.5455    1.8639   -0.8728 H         1 <0>         0.0638
     20 H3         -0.5286    1.8543    0.9071 H         1 <0>         0.0631
     21 H4         -0.0064   -0.1405   -2.1315 H         1 <0>         0.1264
     22 H5          0.0266   -2.6012   -2.1507 H         1 <0>         0.1261
     23 H6          0.0488   -2.6245    2.1261 H         1 <0>         0.1133
     24 H7          0.0241   -0.1635    2.1338 H         1 <0>         0.1240
     25 H8          0.0605   -4.6478   -0.8636 H         1 <0>         0.4348
     26 H9          0.0723   -4.3940    2.0312 H         1 <0>         0.4212
     27 H10         0.0820   -5.2002    3.6818 H         1 <0>         0.1234
     28 H11         0.1085   -6.4511    5.7994 H         1 <0>         0.1325
     29 H12         0.1513   -8.9106    5.7802 H         1 <0>         0.1309
     30 H13         0.1675  -10.1336    3.6458 H         1 <0>         0.1339
     31 H14         0.1293   -8.9022    1.5170 H         1 <0>         0.1388
@<TRIPOS>BOND
     1    1    2 1
     2    1   18 1
     3    1   19 1
     4    1   20 1
     5    2    7 ar
     6    2    3 ar
     7    3    4 ar
     8    3   21 1
     9    4    5 ar
    10    4   22 1
    11    5    6 ar
    12    5    8 1
    13    6    7 ar
    14    6   23 1
    15    7   24 1
    16    8    9 1
    17    8   25 1
    18    9   10 am
    19    9   26 1
    20   10   11 2
    21   10   12 1
    22   12   17 ar
    23   12   13 ar
    24   13   14 ar
    25   13   27 1
    26   14   15 ar
    27   14   28 1
    28   15   16 ar
    29   15   29 1
    30   16   17 ar
    31   16   30 1
    32   17   31 1
@<TRIPOS>MOLECULE
ZINC00006787
   29    30     0     0     0
SMALL
USER_CHARGES

@<TRIPOS>ATOM
      1 C1         -0.0169    1.3936    0.0097 C.ar      1 <0>        -0.0880
      2 C2          1.1682    2.0965    0.0022 C.ar      1 <0>        -0.1444
      3 C3          2.3804    1.4185   -0.0131 C.ar      1 <0>         0.1088
      4 C4          2.4043    0.0297   -0.0212 C.ar      1 <0>        -0.1437
      5 C5          1.2244   -0.6820   -0.0142 C.ar      1 <0>        -0.0943
      6 C6          0.0021   -0.0041    0.0020 C.ar      1 <0>        -0.0701
      7 C7         -1.2624   -0.7604    0.0105 C.2       1 <0>        -0.0946
      8 C8         -1.2417   -2.1029    0.0031 C.2       1 <0>        -0.1125
      9 C9         -2.5067   -2.8595    0.0116 C.ar      1 <0>        -0.0208
     10 C10        -3.7282   -2.1821    0.0216 C.ar      1 <0>        -0.1505
     11 C11        -4.9138   -2.8974    0.0296 C.ar      1 <0>         0.1270
     12 C12        -4.8898   -4.2848    0.0277 C.ar      1 <0>        -0.1731
     13 C13        -3.6788   -4.9623    0.0183 C.ar      1 <0>         0.1263
     14 C14        -2.4878   -4.2561    0.0039 C.ar      1 <0>        -0.1438
     15 O1         -3.6617   -6.3213    0.0174 O.3       1 <0>        -0.4960
     16 O2         -6.1029   -2.2395    0.0398 O.3       1 <0>        -0.4960
     17 O3          3.5463    2.1158   -0.0204 O.3       1 <0>        -0.4996
     18 H1         -0.9588    1.9217    0.0260 H         1 <0>         0.1307
     19 H2          1.1546    3.1764    0.0077 H         1 <0>         0.1317
     20 H3          3.3492   -0.4932   -0.0334 H         1 <0>         0.1314
     21 H4          1.2440   -1.7618   -0.0209 H         1 <0>         0.1307
     22 H5         -2.2059   -0.2349    0.0227 H         1 <0>         0.1259
     23 H6         -0.2983   -2.6284   -0.0091 H         1 <0>         0.1276
     24 H7         -3.7479   -1.1023    0.0234 H         1 <0>         0.1351
     25 H8         -5.8166   -4.8392    0.0340 H         1 <0>         0.1362
     26 H9         -1.5459   -4.7843   -0.0083 H         1 <0>         0.1350
     27 H10        -3.6634   -6.7141   -0.8663 H         1 <0>         0.3942
     28 H11        -6.4539   -2.0477   -0.8406 H         1 <0>         0.3942
     29 H12         3.8923    2.3129    0.8608 H         1 <0>         0.3928
@<TRIPOS>BOND
     1    1    6 ar
     2    1    2 ar
     3    1   18 1
     4    2    3 ar
     5    2   19 1
     6    3    4 ar
     7    3   17 1
     8    4    5 ar
     9    4   20 1
    10    5    6 ar
    11    5   21 1
    12    6    7 1
    13    7    8 2
    14    7   22 1
    15    8    9 1
    16    8   23 1
    17    9   14 ar
    18    9   10 ar
    19   10   11 ar
    20   10   24 1
    21   11   12 ar
    22   11   16 1
    23   12   13 ar
    24   12   25 1
    25   13   14 ar
    26   13   15 1
    27   14   26 1
    28   15   27 1
    29   16   28 1
    30   17   29 1
@<TRIPOS>MOLECULE
ZINC06262659
   42    43     0     0     0
SMALL
USER_CHARGES

@<TRIPOS>ATOM
      1 C1         -0.0187    1.5258    0.0104 C.3       1 <0>        -0.1481
      2 C2          0.0021   -0.0041    0.0020 C.3       1 <0>        -0.0184
      3 C3          0.7421   -0.5109    1.2415 C.3       1 <0>        -0.1397
      4 C4         -1.4333   -0.5336    0.0129 C.3       1 <0>        -0.1402
      5 C5          0.7074   -0.4901   -1.2379 C.ar      1 <0>        -0.0908
      6 C6          1.2151    0.4185   -2.1418 C.ar      1 <0>        -0.0835
      7 C7          1.8688   -0.0328   -3.2899 C.ar      1 <0>         0.0302
      8 C8          2.0055   -1.4034   -3.5176 C.ar      1 <0>        -0.0988
      9 C9          1.4951   -2.3054   -2.6087 C.ar      1 <0>        -0.0894
     10 C10         0.8502   -1.8524   -1.4654 C.ar      1 <0>         0.1103
     11 O1          0.3533   -2.7448   -0.5692 O.3       1 <0>        -0.4853
     12 C11         1.6421   -3.7851   -2.8534 C.3       1 <0>        -0.0186
     13 C12         2.3895   -4.0127   -4.1689 C.3       1 <0>        -0.1486
     14 C13         2.4296   -4.4165   -1.7036 C.3       1 <0>        -0.1399
     15 C14         0.2564   -4.4285   -2.9362 C.3       1 <0>        -0.1400
     16 C15         2.4142    0.9378   -4.2619 C.2       1 <0>         0.0226
     17 N1          2.4009    2.2644   -4.2406 N.2       1 <0>        -0.2451
     18 N2          2.9187    2.9513   -5.1631 N.2       1 <0>        -0.3485
     19 C16         3.5081    2.3871   -6.2109 C.2       1 <0>         0.2833
     20 S1          3.2878    0.6584   -5.7996 S.3       1 <0>        -0.1451
     21 S2          4.2900    3.1283   -7.6051 S.3       1 <0>        -0.6615
     22 H1          1.0039    1.9031    0.0027 H         1 <0>         0.0612
     23 H2         -0.5459    1.8868   -0.8726 H         1 <0>         0.0605
     24 H3         -0.5289    1.8773    0.9072 H         1 <0>         0.0559
     25 H4          0.2319   -0.1594    2.1383 H         1 <0>         0.0508
     26 H5          0.7568   -1.6008    1.2356 H         1 <0>         0.0739
     27 H6          1.7647   -0.1336    1.2338 H         1 <0>         0.0513
     28 H7         -1.9605   -0.1726   -0.8702 H         1 <0>         0.0545
     29 H8         -1.4185   -1.6235    0.0069 H         1 <0>         0.0571
     30 H9         -1.9435   -0.1821    0.9097 H         1 <0>         0.0573
     31 H10         1.1070    1.4780   -1.9623 H         1 <0>         0.1403
     32 H11         2.5103   -1.7564   -4.4047 H         1 <0>         0.1328
     33 H12        -0.5596   -3.0111   -0.7442 H         1 <0>         0.3765
     34 H13         3.3767   -3.5543   -4.1099 H         1 <0>         0.0602
     35 H14         2.4958   -5.0830   -4.3459 H         1 <0>         0.0570
     36 H15         1.8284   -3.5629   -4.9881 H         1 <0>         0.0595
     37 H16         1.8972   -4.2543   -0.7664 H         1 <0>         0.0746
     38 H17         2.5360   -5.4867   -1.8806 H         1 <0>         0.0509
     39 H18         3.4168   -3.9581   -1.6446 H         1 <0>         0.0512
     40 H19        -0.3046   -3.9788   -3.7554 H         1 <0>         0.0545
     41 H20         0.3628   -5.4988   -3.1132 H         1 <0>         0.0575
     42 H21        -0.2760   -4.2664   -1.9991 H         1 <0>         0.0574
@<TRIPOS>BOND
     1    1    2 1
     2    1   22 1
     3    1   23 1
     4    1   24 1
     5    2    3 1
     6    2    4 1
     7    2    5 1
     8    3   25 1
     9    3   26 1
    10    3   27 1
    11    4   28 1
    12    4   29 1
    13    4   30 1
    14    5   10 ar
    15    5    6 ar
    16    6    7 ar
    17    6   31 1
    18    7    8 ar
    19    7   16 1
    20    8    9 ar
    21    8   32 1
    22    9   10 ar
    23    9   12 1
    24   10   11 1
    25   11   33 1
    26   12   13 1
    27   12   14 1
    28   12   15 1
    29   13   34 1
    30   13   35 1
    31   13   36 1
    32   14   37 1
    33   14   38 1
    34   14   39 1
    35   15   40 1
    36   15   41 1
    37   15   42 1
    38   16   20 1
    39   16   17 2
    40   17   18 1
    41   18   19 2
    42   19   20 1
    43   19   21 1
@<TRIPOS>MOLECULE
ZINC27998673
   34    36     0     0     0
SMALL
USER_CHARGES
4-(4-fluorophenyl)-5-(4-methylsulfonylphenyl)isothiazole
@<TRIPOS>ATOM
      1 C1          0.8352    2.3854   -0.4780 C.3       1 <0>        -0.6527
      2 S1         -0.9565    2.1078   -0.5361 S.o2      1 <0>         2.4977
      3 O1         -1.5858    3.1304   -1.2961 O.2       1 <0>        -0.9342
      4 O2         -1.2314    0.7382   -0.7969 O.2       1 <0>        -0.9344
      5 C2         -1.5093    2.3707    1.1161 C.ar      1 <0>        -0.6497
      6 C3         -1.5585    1.3097    2.0029 C.ar      1 <0>        -0.0191
      7 C4         -1.9849    1.5097    3.2995 C.ar      1 <0>        -0.1168
      8 C5         -2.3782    2.7839    3.7129 C.ar      1 <0>         0.0349
      9 C6         -2.3315    3.8489    2.8113 C.ar      1 <0>        -0.1037
     10 C7         -1.8976    3.6361    1.5192 C.ar      1 <0>        -0.0200
     11 C8         -2.8412    3.0044    5.0982 C.2       1 <0>        -0.0842
     12 C9         -2.4822    4.0049    6.0055 C.2       1 <0>        -0.1167
     13 C10        -3.0994    3.9390    7.2419 C.2       1 <0>         0.0908
     14 N1         -3.9563    2.9871    7.5043 N.2       1 <0>        -0.4130
     15 S2         -4.0159    2.0700    6.0627 S.3       1 <0>         0.2171
     16 C11        -1.5051    5.0668    5.6653 C.ar      1 <0>        -0.0404
     17 C12        -0.2251    4.7260    5.2306 C.ar      1 <0>        -0.0681
     18 C13         0.6792    5.7177    4.9106 C.ar      1 <0>        -0.1502
     19 C14         0.3204    7.0505    5.0309 C.ar      1 <0>         0.1071
     20 C15        -0.9488    7.3940    5.4675 C.ar      1 <0>        -0.1492
     21 C16        -1.8616    6.4093    5.7848 C.ar      1 <0>        -0.0739
     22 F1          1.2108    8.0181    4.7209 F         1 <0>        -0.1360
     23 H1          1.3108    1.5883    0.1124 H         1 <0>         0.1344
     24 H2          1.0403    3.3599   -0.0108 H         1 <0>         0.1335
     25 H3          1.2410    2.3763   -1.5004 H         1 <0>         0.1365
     26 H4         -1.2581    0.3237    1.6805 H         1 <0>         0.1503
     27 H5         -2.0190    0.6815    3.9918 H         1 <0>         0.1393
     28 H6         -2.6347    4.8370    3.1246 H         1 <0>         0.1377
     29 H7         -1.8607    4.4590    0.8208 H         1 <0>         0.1493
     30 H8         -2.8720    4.6788    7.9952 H         1 <0>         0.1842
     31 H9          0.0568    3.6873    5.1404 H         1 <0>         0.1323
     32 H10         1.6696    5.4546    4.5695 H         1 <0>         0.1394
     33 H11        -1.2239    8.4343    5.5601 H         1 <0>         0.1409
     34 H12        -2.8506    6.6780    6.1254 H         1 <0>         0.1368
@<TRIPOS>BOND
     1    1    2 1
     2    1   23 1
     3    1   24 1
     4    1   25 1
     5    2    3 2
     6    2    4 2
     7    2    5 1
     8    5   10 ar
     9    5    6 ar
    10    6    7 ar
    11    6   26 1
    12    7    8 ar
    13    7   27 1
    14    8    9 ar
    15    8   11 1
    16    9   10 ar
    17    9   28 1
    18   10   29 1
    19   11   15 1
    20   11   12 2
    21   12   13 1
    22   12   16 1
    23   13   14 2
    24   13   30 1
    25   14   15 1
    26   16   21 ar
    27   16   17 ar
    28   17   18 ar
    29   17   31 1
    30   18   19 ar
    31   18   32 1
    32   19   20 ar
    33   19   22 1
    34   20   21 ar
    35   20   33 1
    36   21   34 1
@<TRIPOS>MOLECULE
ZINC38141759
   32    32     0     0     0
SMALL
USER_CHARGES

@<TRIPOS>ATOM
      1 C1         -0.0187    1.5258    0.0104 C.3       1 <0>        -0.1161
      2 C2          0.0021   -0.0041    0.0020 C.3       1 <0>        -0.1322
      3 H1          0.5123   -0.3556   -0.8948 H         1 <0>         0.0665
      4 C3          0.7309   -0.5033    1.2229 C.ar      1 <0>        -0.0395
      5 C4          0.2630   -0.1872    2.4847 C.ar      1 <0>        -0.1030
      6 C5          0.9315   -0.6452    3.6046 C.ar      1 <0>        -0.1208
      7 C6          2.0678   -1.4195    3.4627 C.ar      1 <0>        -0.1043
      8 C7          2.5353   -1.7363    2.2010 C.ar      1 <0>        -0.1200
      9 C8          1.8643   -1.2820    1.0811 C.ar      1 <0>        -0.1243
     10 C9          2.7973   -1.9179    4.6836 C.3       1 <0>        -0.0680
     11 C10         2.2317   -3.2785    5.0956 C.3       1 <0>        -0.0934
     12 C11         2.5261   -4.3059    4.0007 C.3       1 <0>        -0.1501
     13 C12         2.8845   -3.7270    6.4047 C.3       1 <0>        -0.1454
     14 C13        -1.4117   -0.5257    0.0127 C.2       1 <0>         0.5043
     15 O1         -1.7102   -1.4919   -0.6684 O.co2     1 <0>        -0.6985
     16 O2         -2.2571    0.0185    0.7025 O.co2     1 <0>        -0.6908
     17 H2          1.0039    1.9031    0.0027 H         1 <0>         0.0363
     18 H3         -0.5459    1.8868   -0.8726 H         1 <0>         0.0472
     19 H4         -0.5289    1.8773    0.9072 H         1 <0>         0.0598
     20 H5         -0.6248    0.4177    2.5955 H         1 <0>         0.1300
     21 H6          0.5663   -0.3977    4.5903 H         1 <0>         0.1130
     22 H7          3.4233   -2.3410    2.0902 H         1 <0>         0.1123
     23 H8          2.2274   -1.5326    0.0953 H         1 <0>         0.1149
     24 H9          3.8586   -2.0192    4.4567 H         1 <0>         0.0652
     25 H10         2.6665   -1.2077    5.5001 H         1 <0>         0.0657
     26 H11         1.1540   -3.1964    5.2365 H         1 <0>         0.0710
     27 H12         2.1232   -5.2752    4.2942 H         1 <0>         0.0494
     28 H13         2.0610   -3.9864    3.0682 H         1 <0>         0.0643
     29 H14         3.6038   -4.3880    3.8598 H         1 <0>         0.0501
     30 H15         2.6748   -2.9951    7.1847 H         1 <0>         0.0522
     31 H16         2.4816   -4.6963    6.6982 H         1 <0>         0.0523
     32 H17         3.9623   -3.8091    6.2637 H         1 <0>         0.0520
@<TRIPOS>BOND
     1    1    2 1
     2    1   17 1
     3    1   18 1
     4    1   19 1
     5    2    3 1
     6    2    4 1
     7    2   14 1
     8    4    9 ar
     9    4    5 ar
    10    5    6 ar
    11    5   20 1
    12    6    7 ar
    13    6   21 1
    14    7    8 ar
    15    7   10 1
    16    8    9 ar
    17    8   22 1
    18    9   23 1
    19   10   11 1
    20   10   24 1
    21   10   25 1
    22   11   12 1
    23   11   13 1
    24   11   26 1
    25   12   27 1
    26   12   28 1
    27   12   29 1
    28   13   30 1
    29   13   31 1
    30   13   32 1
    31   14   15 2
    32   14   16 1
@<TRIPOS>MOLECULE
ZINC06019591
   36    38     0     0     0
SMALL
USER_CHARGES
3-(3,4-difluorophenyl)-4-(4-methylsulfonylphenyl)-5H-furan-2-one
@<TRIPOS>ATOM
      1 C1         -1.1345    2.0336   -1.2793 C.3       1 <0>        -0.6492
      2 S1         -0.0172    1.4168    0.0098 S.o2      1 <0>         2.4965
      3 O1          0.0021   -0.0041    0.0020 O.2       1 <0>        -0.9331
      4 O2          1.1953    2.1578    0.0022 O.2       1 <0>        -0.9327
      5 C2         -0.7978    1.8475    1.5296 C.ar      1 <0>        -0.6489
      6 C3         -0.5180    3.0648    2.1263 C.ar      1 <0>        -0.0188
      7 C4         -1.1280    3.4116    3.3128 C.ar      1 <0>        -0.1092
      8 C5         -2.0248    2.5245    3.9195 C.ar      1 <0>         0.0021
      9 C6         -2.2981    1.2933    3.3122 C.ar      1 <0>        -0.1153
     10 C7         -1.6831    0.9642    2.1231 C.ar      1 <0>        -0.0197
     11 C8         -2.6753    2.8834    5.1868 C.2       1 <0>        -0.0427
     12 C9         -2.0661    3.0736    6.3898 C.2       1 <0>        -0.1450
     13 C10        -3.0825    3.4192    7.3891 C.2       1 <0>         0.5070
     14 O3         -2.8566    3.6493    8.5612 O.2       1 <0>        -0.4341
     15 O4         -4.3013    3.4440    6.8200 O.3       1 <0>        -0.3118
     16 C11        -4.1509    3.1204    5.4101 C.3       1 <0>         0.0738
     17 C12        -0.6128    2.9517    6.6472 C.ar      1 <0>        -0.0183
     18 C13         0.0194    1.7148    6.5177 C.ar      1 <0>        -0.0759
     19 C14         1.3743    1.6062    6.7531 C.ar      1 <0>        -0.1213
     20 C15         2.1066    2.7208    7.1281 C.ar      1 <0>         0.0808
     21 C16         1.4825    3.9527    7.2642 C.ar      1 <0>         0.0738
     22 C17         0.1270    4.0720    7.0253 C.ar      1 <0>        -0.1000
     23 F1          2.2011    5.0366    7.6301 F         1 <0>        -0.1223
     24 F2          3.4323    2.6080    7.3625 F         1 <0>        -0.1224
     25 H1         -2.1080    1.5544   -1.1761 H         1 <0>         0.1326
     26 H2         -1.2479    3.1127   -1.1759 H         1 <0>         0.1325
     27 H3         -0.7188    1.8043   -2.2605 H         1 <0>         0.1355
     28 H4          0.1774    3.7464    1.6589 H         1 <0>         0.1500
     29 H5         -0.9120    4.3636    3.7748 H         1 <0>         0.1384
     30 H6         -2.9891    0.6034    3.7736 H         1 <0>         0.1412
     31 H7         -1.8928    0.0147    1.6532 H         1 <0>         0.1506
     32 H8         -4.4944    3.9515    4.7941 H         1 <0>         0.1308
     33 H9         -4.7155    2.2188    5.1724 H         1 <0>         0.1299
     34 H10        -0.5507    0.8440    6.2294 H         1 <0>         0.1421
     35 H11         1.8645    0.6495    6.6489 H         1 <0>         0.1538
     36 H12        -0.3588    5.0308    7.1308 H         1 <0>         0.1490
@<TRIPOS>BOND
     1    1    2 1
     2    1   25 1
     3    1   26 1
     4    1   27 1
     5    2    3 2
     6    2    4 2
     7    2    5 1
     8    5   10 ar
     9    5    6 ar
    10    6    7 ar
    11    6   28 1
    12    7    8 ar
    13    7   29 1
    14    8    9 ar
    15    8   11 1
    16    9   10 ar
    17    9   30 1
    18   10   31 1
    19   11   16 1
    20   11   12 2
    21   12   13 1
    22   12   17 1
    23   13   14 2
    24   13   15 1
    25   15   16 1
    26   16   32 1
    27   16   33 1
    28   17   22 ar
    29   17   18 ar
    30   18   19 ar
    31   18   34 1
    32   19   20 ar
    33   19   35 1
    34   20   21 ar
    35   20   24 1
    36   21   22 ar
    37   21   23 1
    38   22   36 1
@<TRIPOS>MOLECULE
ZINC12404515
   40    42     0     0     0
SMALL
USER_CHARGES

@<TRIPOS>ATOM
      1 C1         -0.0439    1.3635   -0.6440 C.3       1 <0>        -0.0874
      2 C2         -0.0025   -0.0397   -0.0960 C.2       1 <0>        -0.1309
      3 C3         -1.0756   -0.7895    0.2220 C.2       1 <0>        -0.0100
      4 C4         -0.6392   -2.0946    0.7226 C.ar      1 <0>        -0.0059
      5 C5         -1.3387   -3.2167    1.1780 C.ar      1 <0>        -0.1272
      6 C6         -0.6462   -4.3331    1.5994 C.ar      1 <0>         0.1014
      7 C7          0.7427   -4.3545    1.5760 C.ar      1 <0>        -0.1658
      8 C8          1.4511   -3.2580    1.1303 C.ar      1 <0>        -0.0710
      9 C9          0.7717   -2.1225    0.7012 C.ar      1 <0>        -0.0956
     10 C10         1.2127   -0.8159    0.1730 C.2       1 <0>        -0.0141
     11 C11         2.5125   -0.4047   -0.0252 C.2       1 <0>        -0.0858
     12 C12         3.6081   -1.3706    0.0692 C.ar      1 <0>        -0.0550
     13 C13         3.4905   -2.6298   -0.5385 C.ar      1 <0>        -0.0770
     14 C14         4.5151   -3.5269   -0.4481 C.ar      1 <0>        -0.1023
     15 C15         5.6770   -3.1939    0.2465 C.ar      1 <0>        -0.0838
     16 C16         5.7986   -1.9440    0.8520 C.ar      1 <0>        -0.1356
     17 C17         4.7817   -1.0381    0.7627 C.ar      1 <0>        -0.0863
     18 S1          6.9960   -4.3567    0.3601 S.3       1 <0>        -0.1220
     19 C18         8.2592   -3.4936    1.3348 C.3       1 <0>        -0.1438
     20 F1         -1.3249   -5.4153    2.0392 F         1 <0>        -0.1428
     21 C19        -2.5106   -0.3507    0.0836 C.3       1 <0>        -0.1489
     22 C20        -3.0571   -0.8291   -1.2368 C.2       1 <0>         0.4994
     23 O1         -2.3472   -1.4673   -1.9952 O.co2     1 <0>        -0.6840
     24 O2         -4.2093   -0.5780   -1.5467 O.co2     1 <0>        -0.7005
     25 H1          0.9730    1.7183   -0.8115 H         1 <0>         0.0583
     26 H2         -0.5907    1.3693   -1.5869 H         1 <0>         0.0728
     27 H3         -0.5440    2.0178    0.0700 H         1 <0>         0.0650
     28 H4         -2.4185   -3.2093    1.2002 H         1 <0>         0.1355
     29 H5          1.2713   -5.2353    1.9092 H         1 <0>         0.1331
     30 H6          2.5308   -3.2809    1.1149 H         1 <0>         0.1382
     31 H7          2.7230    0.6304   -0.2502 H         1 <0>         0.1360
     32 H8          2.5906   -2.8888   -1.0765 H         1 <0>         0.1358
     33 H9          4.4254   -4.4966   -0.9152 H         1 <0>         0.1302
     34 H10         6.7007   -1.6906    1.3890 H         1 <0>         0.1224
     35 H11         4.8786   -0.0685    1.2282 H         1 <0>         0.1283
     36 H12         8.5584   -2.5826    0.8165 H         1 <0>         0.0833
     37 H13         7.8517   -3.2380    2.3129 H         1 <0>         0.0835
     38 H14         9.1266   -4.1416    1.4606 H         1 <0>         0.1074
     39 H15        -3.1003   -0.7750    0.8961 H         1 <0>         0.0703
     40 H16        -2.5635    0.7372    0.1260 H         1 <0>         0.0748
@<TRIPOS>BOND
     1    1    2 1
     2    1   25 1
     3    1   26 1
     4    1   27 1
     5    2   10 1
     6    2    3 2
     7    3    4 1
     8    3   21 1
     9    4    9 ar
    10    4    5 ar
    11    5    6 ar
    12    5   28 1
    13    6    7 ar
    14    6   20 1
    15    7    8 ar
    16    7   29 1
    17    8    9 ar
    18    8   30 1
    19    9   10 1
    20   10   11 2
    21   11   12 1
    22   11   31 1
    23   12   17 ar
    24   12   13 ar
    25   13   14 ar
    26   13   32 1
    27   14   15 ar
    28   14   33 1
    29   15   16 ar
    30   15   18 1
    31   16   17 ar
    32   16   34 1
    33   17   35 1
    34   18   19 1
    35   19   36 1
    36   19   37 1
    37   19   38 1
    38   21   22 1
    39   21   39 1
    40   21   40 1
    41   22   23 2
    42   22   24 1
@<TRIPOS>MOLECULE
ZINC11678783
   47    48     0     0     0
SMALL
USER_CHARGES
(5E)-2-amino-5-[(3,5-ditert-butyl-4-hydroxy-phenyl)methylene]thiazol-4-one
@<TRIPOS>ATOM
      1 C1          0.3555   -2.5483    0.0833 C.3       1 <0>        -0.1485
      2 C2          1.6764   -1.8707   -0.2868 C.3       1 <0>        -0.0117
      3 C3          2.1617   -2.4025   -1.6368 C.3       1 <0>        -0.1415
      4 C4          2.7234   -2.1738    0.7870 C.3       1 <0>        -0.1424
      5 C5          1.4682   -0.3810   -0.3791 C.ar      1 <0>        -0.1251
      6 C6          0.2228    0.1546   -0.1411 C.ar      1 <0>        -0.0502
      7 C7          0.0308    1.5392   -0.2272 C.ar      1 <0>        -0.1375
      8 C8          1.1084    2.3714   -0.5555 C.ar      1 <0>        -0.0027
      9 C9          2.3495    1.8249   -0.7916 C.ar      1 <0>        -0.1758
     10 C10         2.5343    0.4497   -0.7051 C.ar      1 <0>         0.2002
     11 O1          3.7604   -0.0839   -0.9393 O.3       1 <0>        -0.5052
     12 C11         3.5100    2.7189   -1.1454 C.3       1 <0>        -0.0245
     13 C12         3.0417    4.1752   -1.1736 C.3       1 <0>        -0.1445
     14 C13         4.6148    2.5586   -0.0991 C.3       1 <0>        -0.1536
     15 C14         4.0516    2.3305   -2.5226 C.3       1 <0>        -0.1544
     16 C15        -1.2968    2.1158    0.0197 C.2       1 <0>         0.0720
     17 C16        -1.4132    3.2838    0.7007 C.2       1 <0>        -0.2457
     18 C17        -0.3837    4.0696    1.4205 C.2       1 <0>         0.5436
     19 O2          0.7806    3.7073    1.4763 O.2       1 <0>        -0.4538
     20 N1         -0.7927    5.1808    1.9923 N.2       1 <0>        -0.6702
     21 C18        -2.0535    5.5810    1.9459 C.2       1 <0>         0.5060
     22 S1         -2.8541    4.3035    0.9884 S.3       1 <0>        -0.0767
     23 N2         -2.6100    6.7036    2.4990 N.pl3     1 <0>        -0.7841
     24 H1          0.0066   -2.1659    1.0539 H         1 <0>         0.0573
     25 H2          0.5075   -3.6357    0.1507 H         1 <0>         0.0589
     26 H3         -0.3972   -2.3304   -0.6887 H         1 <0>         0.0578
     27 H4          3.1114   -1.9153   -1.9029 H         1 <0>         0.0709
     28 H5          1.4089   -2.1846   -2.4087 H         1 <0>         0.0499
     29 H6          2.3137   -3.4899   -1.5694 H         1 <0>         0.0534
     30 H7          3.6731   -1.6867    0.5210 H         1 <0>         0.0709
     31 H8          2.8753   -3.2612    0.8544 H         1 <0>         0.0534
     32 H9          2.3745   -1.7915    1.7576 H         1 <0>         0.0499
     33 H10        -0.6049   -0.4917    0.1114 H         1 <0>         0.1342
     34 H11         0.9659    3.4398   -0.6233 H         1 <0>         0.1297
     35 H12         4.6053    0.5715   -1.1974 H         1 <0>         0.4222
     36 H13         3.8887    4.8278   -1.4318 H         1 <0>         0.0585
     37 H14         2.6523    4.4544   -0.1834 H         1 <0>         0.0699
     38 H15         2.2474    4.2904   -1.9258 H         1 <0>         0.0552
     39 H16         5.4618    3.2111   -0.3574 H         1 <0>         0.0656
     40 H17         4.9514    1.5116   -0.0788 H         1 <0>         0.0568
     41 H18         4.2254    2.8378    0.8910 H         1 <0>         0.0689
     42 H19         4.8987    2.9830   -2.7808 H         1 <0>         0.0667
     43 H20         3.2573    2.4458   -3.2748 H         1 <0>         0.0644
     44 H21         4.3882    1.2835   -2.5023 H         1 <0>         0.0581
     45 H22        -2.1970    1.6011   -0.3473 H         1 <0>         0.1462
     46 H23        -3.6844    6.9036    2.3740 H         1 <0>         0.4553
     47 H24        -1.9825    7.4052    3.0683 H         1 <0>         0.4527
@<TRIPOS>BOND
     1    1    2 1
     2    1   24 1
     3    1   25 1
     4    1   26 1
     5    2    3 1
     6    2    4 1
     7    2    5 1
     8    3   27 1
     9    3   28 1
    10    3   29 1
    11    4   30 1
    12    4   31 1
    13    4   32 1
    14    5   10 ar
    15    5    6 ar
    16    6    7 ar
    17    6   33 1
    18    7    8 ar
    19    7   16 1
    20    8    9 ar
    21    8   34 1
    22    9   10 ar
    23    9   12 1
    24   10   11 1
    25   11   35 1
    26   12   13 1
    27   12   14 1
    28   12   15 1
    29   13   36 1
    30   13   37 1
    31   13   38 1
    32   14   39 1
    33   14   40 1
    34   14   41 1
    35   15   42 1
    36   15   43 1
    37   15   44 1
    38   16   17 2
    39   16   45 1
    40   17   22 1
    41   17   18 1
    42   18   19 2
    43   18   20 1
    44   20   21 2
    45   21   22 1
    46   21   23 1
    47   23   46 1
    48   23   47 1
@<TRIPOS>MOLECULE
ZINC13441232
   55    57     0     0     0
SMALL
USER_CHARGES
2-[1-(4-chlorobenzoyl)-5-methoxy-2-methyl-indol-3-yl]-N-[(1S)-2-methoxy-1-methyl-ethyl]acetamide
@<TRIPOS>ATOM
      1 C1         -1.1917   -3.5174   -0.0105 C.3       1 <0>        -0.1021
      2 C2         -0.4251   -2.2200   -0.0079 C.2       1 <0>         0.1168
      3 C3          0.9111   -2.1155   -0.0196 C.2       1 <0>        -0.1385
      4 C4          1.2335   -0.6844   -0.0124 C.ar      1 <0>        -0.0357
      5 C5          2.4278    0.0377   -0.0180 C.ar      1 <0>        -0.1098
      6 C6          2.3906    1.4188   -0.0075 C.ar      1 <0>         0.1115
      7 C7          1.1697    2.0871    0.0078 C.ar      1 <0>        -0.1757
      8 C8         -0.0148    1.3830    0.0138 C.ar      1 <0>        -0.0835
      9 C9          0.0028   -0.0062    0.0038 C.ar      1 <0>         0.0769
     10 N1         -0.9920   -0.9688    0.0062 N.am      1 <0>        -0.5050
     11 C10        -2.3159   -0.7166    0.0210 C.2       1 <0>         0.6027
     12 O1         -2.9060   -0.5062   -1.0203 O.2       1 <0>        -0.4285
     13 C11        -3.0493   -0.6961    1.3024 C.ar      1 <0>        -0.1658
     14 C12        -2.3586   -0.8381    2.5081 C.ar      1 <0>        -0.0418
     15 C13        -3.0484   -0.8123    3.7016 C.ar      1 <0>        -0.1205
     16 C14        -4.4250   -0.6575    3.7060 C.ar      1 <0>         0.0038
     17 C15        -5.1164   -0.5219    2.5133 C.ar      1 <0>        -0.1235
     18 C16        -4.4373   -0.5403    1.3135 C.ar      1 <0>        -0.0383
     19 Cl1        -5.2872   -0.6327    5.2125 Cl        1 <0>        -0.0526
     20 O2          3.5508    2.1277   -0.0124 O.3       1 <0>        -0.3169
     21 C17         3.4406    3.5524   -0.0009 C.3       1 <0>         0.0272
     22 C18         1.8975   -3.2547   -0.0373 C.3       1 <0>        -0.0663
     23 C19         2.2400   -3.6446    1.3776 C.2       1 <0>         0.5145
     24 O3          1.7330   -3.0554    2.3086 O.2       1 <0>        -0.5278
     25 N2          3.1097   -4.6480    1.6083 N.am      1 <0>        -0.7265
     26 C20         3.4426   -5.0271    2.9837 C.3       1 <0>         0.1474
     27 H1          3.4540   -4.1373    3.6131 H         1 <0>         0.0995
     28 C21         2.3950   -6.0104    3.5095 C.3       1 <0>        -0.1592
     29 C22         4.8219   -5.6886    3.0107 C.3       1 <0>         0.0503
     30 O4          4.7758   -6.9163    2.2808 O.3       1 <0>        -0.3881
     31 C23         6.0202   -7.6178    2.2442 C.3       1 <0>         0.0307
     32 H2         -1.3670   -3.8379    1.0165 H         1 <0>         0.0859
     33 H3         -2.1475   -3.3737   -0.5144 H         1 <0>         0.0684
     34 H4         -0.6151   -4.2791   -0.5354 H         1 <0>         0.0918
     35 H5          3.3755   -0.4800   -0.0309 H         1 <0>         0.1321
     36 H6          1.1506    3.1669    0.0156 H         1 <0>         0.1351
     37 H7         -0.9568    1.9111    0.0218 H         1 <0>         0.1221
     38 H8         -1.2859   -0.9634    2.5056 H         1 <0>         0.1448
     39 H9         -2.5150   -0.9175    4.6347 H         1 <0>         0.1450
     40 H10        -6.1896   -0.4012    2.5233 H         1 <0>         0.1462
     41 H11        -4.9774   -0.4342    0.3843 H         1 <0>         0.1475
     42 H12         2.8926    3.8816   -0.8837 H         1 <0>         0.0551
     43 H13         2.9081    3.8684    0.8961 H         1 <0>         0.0551
     44 H14         4.4372    3.9939   -0.0064 H         1 <0>         0.1002
     45 H15         1.4576   -4.1082   -0.5530 H         1 <0>         0.1031
     46 H16         2.8032   -2.9431   -0.5576 H         1 <0>         0.1047
     47 H17         3.5151   -5.1192    0.8637 H         1 <0>         0.4044
     48 H18         2.6427   -6.2924    4.5328 H         1 <0>         0.0624
     49 H19         1.4123   -5.5391    3.4903 H         1 <0>         0.0595
     50 H20         2.3836   -6.9002    2.8800 H         1 <0>         0.0666
     51 H21         5.5536   -5.0219    2.5544 H         1 <0>         0.0572
     52 H22         5.1081   -5.8901    4.0430 H         1 <0>         0.0651
     53 H23         6.7768   -6.9911    1.7719 H         1 <0>         0.0423
     54 H24         6.3312   -7.8594    3.2605 H         1 <0>         0.0425
     55 H25         5.9018   -8.5380    1.6721 H         1 <0>         0.0878
@<TRIPOS>BOND
     1    1    2 1
     2    1   32 1
     3    1   33 1
     4    1   34 1
     5    2   10 1
     6    2    3 2
     7    3    4 1
     8    3   22 1
     9    4    9 ar
    10    4    5 ar
    11    5    6 ar
    12    5   35 1
    13    6    7 ar
    14    6   20 1
    15    7    8 ar
    16    7   36 1
    17    8    9 ar
    18    8   37 1
    19    9   10 1
    20   10   11 am
    21   11   12 2
    22   11   13 1
    23   13   18 ar
    24   13   14 ar
    25   14   15 ar
    26   14   38 1
    27   15   16 ar
    28   15   39 1
    29   16   17 ar
    30   16   19 1
    31   17   18 ar
    32   17   40 1
    33   18   41 1
    34   20   21 1
    35   21   42 1
    36   21   43 1
    37   21   44 1
    38   22   23 1
    39   22   45 1
    40   22   46 1
    41   23   24 2
    42   23   25 am
    43   25   26 1
    44   25   47 1
    45   26   27 1
    46   26   28 1
    47   26   29 1
    48   28   48 1
    49   28   49 1
    50   28   50 1
    51   29   30 1
    52   29   51 1
    53   29   52 1
    54   30   31 1
    55   31   53 1
    56   31   54 1
    57   31   55 1
@<TRIPOS>MOLECULE
ZINC13441230
   55    57     0     0     0
SMALL
USER_CHARGES
2-[1-(4-chlorobenzoyl)-5-methoxy-2-methyl-indol-3-yl]-N-[(1R)-2-methoxy-1-methyl-ethyl]acetamide
@<TRIPOS>ATOM
      1 C1         -1.1865   -3.5156   -0.0080 C.3       1 <0>        -0.1030
      2 C2         -0.4223   -2.2168   -0.0066 C.2       1 <0>         0.1172
      3 C3          0.9137   -2.1098   -0.0185 C.2       1 <0>        -0.1390
      4 C4          1.2335   -0.6781   -0.0121 C.ar      1 <0>        -0.0355
      5 C5          2.4265    0.0461   -0.0186 C.ar      1 <0>        -0.1097
      6 C6          2.3869    1.4270   -0.0091 C.ar      1 <0>         0.1116
      7 C7          1.1648    2.0931    0.0076 C.ar      1 <0>        -0.1757
      8 C8         -0.0184    1.3870    0.0136 C.ar      1 <0>        -0.0836
      9 C9          0.0015   -0.0022    0.0039 C.ar      1 <0>         0.0770
     10 N1         -0.9915   -0.9666    0.0069 N.am      1 <0>        -0.5050
     11 C10        -2.3158   -0.7168    0.0210 C.2       1 <0>         0.6030
     12 O1         -2.9198   -0.7002    1.0753 O.2       1 <0>        -0.4286
     13 C11        -3.0329   -0.4635   -1.2447 C.ar      1 <0>        -0.1659
     14 C12        -2.3637   -0.5800   -2.4652 C.ar      1 <0>        -0.0418
     15 C13        -3.0404   -0.3482   -3.6440 C.ar      1 <0>        -0.1207
     16 C14        -4.3780    0.0112   -3.6189 C.ar      1 <0>         0.0038
     17 C15        -5.0456    0.1344   -2.4114 C.ar      1 <0>        -0.1235
     18 C16        -4.3816   -0.1008   -1.2262 C.ar      1 <0>        -0.0383
     19 Cl1        -5.2213    0.3079   -5.1070 Cl        1 <0>        -0.0526
     20 O2          3.5459    2.1380   -0.0153 O.3       1 <0>        -0.3169
     21 C17         3.4331    3.5625   -0.0049 C.3       1 <0>         0.0272
     22 C18         1.9022   -3.2472   -0.0348 C.3       1 <0>        -0.0663
     23 C19         2.2188   -3.6172   -1.4610 C.2       1 <0>         0.5145
     24 O3          1.6935   -3.0164   -2.3742 O.2       1 <0>        -0.5280
     25 N2          3.0857   -4.6157   -1.7215 N.am      1 <0>        -0.7265
     26 C20         3.3935   -4.9753   -3.1080 C.3       1 <0>         0.1474
     27 H1          3.3917   -4.0770   -3.7253 H         1 <0>         0.0995
     28 C21         2.3379   -5.9534   -3.6275 C.3       1 <0>        -0.1592
     29 C22         4.7732   -5.6338   -3.1698 C.3       1 <0>         0.0503
     30 O4          4.7428   -6.8714   -2.4560 O.3       1 <0>        -0.3881
     31 C23         5.9889   -7.5709   -2.4522 C.3       1 <0>         0.0306
     32 H2         -1.3808   -3.8218   -1.0359 H         1 <0>         0.0855
     33 H3         -0.5988   -4.2835    0.4950 H         1 <0>         0.0919
     34 H4         -2.1328   -3.3809    0.5160 H         1 <0>         0.0696
     35 H5          3.3751   -0.4700   -0.0312 H         1 <0>         0.1320
     36 H6          1.1438    3.1729    0.0152 H         1 <0>         0.1350
     37 H7         -0.9614    1.9135    0.0214 H         1 <0>         0.1220
     38 H8         -1.3197   -0.8557   -2.4858 H         1 <0>         0.1448
     39 H9         -2.5254   -0.4429   -4.5885 H         1 <0>         0.1450
     40 H10        -6.0884    0.4149   -2.3984 H         1 <0>         0.1462
     41 H11        -4.9033   -0.0052   -0.2854 H         1 <0>         0.1475
     42 H12         4.4289    4.0058   -0.0114 H         1 <0>         0.1002
     43 H13         2.8839    3.8900   -0.8877 H         1 <0>         0.0551
     44 H14         2.9006    3.8783    0.8922 H         1 <0>         0.0551
     45 H15         2.8169   -2.9410    0.4728 H         1 <0>         0.1048
     46 H16         1.4734   -4.1086    0.4774 H         1 <0>         0.1031
     47 H17         3.5058   -5.0962   -0.9911 H         1 <0>         0.4044
     48 H18         2.3398   -6.8517   -3.0102 H         1 <0>         0.0666
     49 H19         1.3550   -5.4844   -3.5835 H         1 <0>         0.0595
     50 H20         2.5670   -6.2210   -4.6591 H         1 <0>         0.0624
     51 H21         5.0404   -5.8206   -4.2099 H         1 <0>         0.0651
     52 H22         5.5122   -4.9719   -2.7181 H         1 <0>         0.0572
     53 H23         6.7531   -6.9493   -1.9856 H         1 <0>         0.0423
     54 H24         5.8828   -8.4990   -1.8905 H         1 <0>         0.0878
     55 H25         6.2812   -7.7980   -3.4774 H         1 <0>         0.0425
@<TRIPOS>BOND
     1    1    2 1
     2    1   32 1
     3    1   33 1
     4    1   34 1
     5    2   10 1
     6    2    3 2
     7    3    4 1
     8    3   22 1
     9    4    9 ar
    10    4    5 ar
    11    5    6 ar
    12    5   35 1
    13    6    7 ar
    14    6   20 1
    15    7    8 ar
    16    7   36 1
    17    8    9 ar
    18    8   37 1
    19    9   10 1
    20   10   11 am
    21   11   12 2
    22   11   13 1
    23   13   18 ar
    24   13   14 ar
    25   14   15 ar
    26   14   38 1
    27   15   16 ar
    28   15   39 1
    29   16   17 ar
    30   16   19 1
    31   17   18 ar
    32   17   40 1
    33   18   41 1
    34   20   21 1
    35   21   42 1
    36   21   43 1
    37   21   44 1
    38   22   23 1
    39   22   45 1
    40   22   46 1
    41   23   24 2
    42   23   25 am
    43   25   26 1
    44   25   47 1
    45   26   27 1
    46   26   28 1
    47   26   29 1
    48   28   48 1
    49   28   49 1
    50   28   50 1
    51   29   30 1
    52   29   51 1
    53   29   52 1
    54   30   31 1
    55   31   53 1
    56   31   54 1
    57   31   55 1
@<TRIPOS>MOLECULE
ZINC13441180
   49    51     0     0     0
SMALL
USER_CHARGES
2-[1-(4-chlorobenzoyl)-5-methoxy-2-methyl-indol-3-yl]-N-(2-hydroxyethyl)acetamide
@<TRIPOS>ATOM
      1 C1         -3.6560    0.5961    0.0453 C.3       1 <0>        -0.1018
      2 C2         -2.1505    0.6607    0.0285 C.2       1 <0>         0.1165
      3 C3         -1.4284    1.7899    0.0321 C.2       1 <0>        -0.1396
      4 C4         -0.0145    1.3997    0.0084 C.ar      1 <0>        -0.0359
      5 C5          1.1852    2.1127   -0.0007 C.ar      1 <0>        -0.1095
      6 C6          2.3856    1.4290   -0.0184 C.ar      1 <0>         0.1118
      7 C7          2.3995    0.0372   -0.0266 C.ar      1 <0>        -0.1754
      8 C8          1.2204   -0.6757   -0.0172 C.ar      1 <0>        -0.0839
      9 C9          0.0034   -0.0054    0.0001 C.ar      1 <0>         0.0770
     10 N1         -1.3143   -0.4291    0.0127 N.am      1 <0>        -0.5048
     11 C10        -1.7160   -1.7156    0.0091 C.2       1 <0>         0.6005
     12 O1         -1.9957   -2.2619   -1.0397 O.2       1 <0>        -0.4251
     13 C11        -1.8162   -2.4612    1.2797 C.ar      1 <0>        -0.1627
     14 C12        -1.5922   -1.8097    2.4947 C.ar      1 <0>        -0.0452
     15 C13        -1.6929   -2.5101    3.6780 C.ar      1 <0>        -0.1210
     16 C14        -2.0037   -3.8600    3.6629 C.ar      1 <0>         0.0027
     17 C15        -2.2213   -4.5131    2.4609 C.ar      1 <0>        -0.1217
     18 C16        -2.1297   -3.8223    1.2712 C.ar      1 <0>        -0.0383
     19 Cl1        -2.1215   -4.7366    5.1567 Cl        1 <0>        -0.0520
     20 O2          3.5577    2.1182   -0.0274 O.3       1 <0>        -0.3165
     21 C17         4.7622    1.3495   -0.0451 C.3       1 <0>         0.0272
     22 C18        -1.9681    3.1969    0.0484 C.3       1 <0>        -0.0649
     23 C19        -2.1696    3.6740   -1.3668 C.2       1 <0>         0.5092
     24 O3         -1.9014    2.9435   -2.2970 O.2       1 <0>        -0.5254
     25 N2         -2.6479    4.9125   -1.5987 N.am      1 <0>        -0.7293
     26 C20        -2.8437    5.3764   -2.9745 C.3       1 <0>         0.1193
     27 C21        -3.3917    6.8048   -2.9580 C.3       1 <0>         0.0631
     28 O4         -2.4137    7.6837   -2.3983 O.3       1 <0>        -0.5715
     29 H1         -4.0073    0.5742    1.0769 H         1 <0>         0.0850
     30 H2         -4.0629    1.4729   -0.4586 H         1 <0>         0.0898
     31 H3         -3.9868   -0.3054   -0.4704 H         1 <0>         0.0705
     32 H4          1.1753    3.1927    0.0056 H         1 <0>         0.1327
     33 H5          3.3428   -0.4886   -0.0400 H         1 <0>         0.1352
     34 H6          1.2421   -1.7555   -0.0237 H         1 <0>         0.1220
     35 H7         -1.3451   -0.7584    2.5075 H         1 <0>         0.1421
     36 H8         -1.5247   -2.0064    4.6184 H         1 <0>         0.1452
     37 H9         -2.4636   -5.5656    2.4556 H         1 <0>         0.1465
     38 H10        -2.3002   -4.3325    0.3347 H         1 <0>         0.1478
     39 H11         5.6213    2.0203   -0.0508 H         1 <0>         0.1003
     40 H12         4.8018    0.7158    0.8408 H         1 <0>         0.0551
     41 H13         4.7821    0.7260   -0.9390 H         1 <0>         0.0549
     42 H14        -2.9212    3.2143    0.5769 H         1 <0>         0.1031
     43 H15        -1.2595    3.8520    0.5553 H         1 <0>         0.1062
     44 H16        -2.8624    5.4968   -0.8547 H         1 <0>         0.4029
     45 H17        -1.8906    5.3589   -3.5030 H         1 <0>         0.0748
     46 H18        -3.5523    4.7213   -3.4814 H         1 <0>         0.0814
     47 H19        -3.6210    7.1178   -3.9766 H         1 <0>         0.0637
     48 H20        -4.2987    6.8391   -2.3544 H         1 <0>         0.0538
     49 H21        -2.6938    8.6083   -2.3565 H         1 <0>         0.3835
@<TRIPOS>BOND
     1    1    2 1
     2    1   29 1
     3    1   30 1
     4    1   31 1
     5    2   10 1
     6    2    3 2
     7    3    4 1
     8    3   22 1
     9    4    9 ar
    10    4    5 ar
    11    5    6 ar
    12    5   32 1
    13    6    7 ar
    14    6   20 1
    15    7    8 ar
    16    7   33 1
    17    8    9 ar
    18    8   34 1
    19    9   10 1
    20   10   11 am
    21   11   12 2
    22   11   13 1
    23   13   18 ar
    24   13   14 ar
    25   14   15 ar
    26   14   35 1
    27   15   16 ar
    28   15   36 1
    29   16   17 ar
    30   16   19 1
    31   17   18 ar
    32   17   37 1
    33   18   38 1
    34   20   21 1
    35   21   39 1
    36   21   40 1
    37   21   41 1
    38   22   23 1
    39   22   42 1
    40   22   43 1
    41   23   24 2
    42   23   25 am
    43   25   26 1
    44   25   44 1
    45   26   27 1
    46   26   45 1
    47   26   46 1
    48   27   28 1
    49   27   47 1
    50   27   48 1
    51   28   49 1
@<TRIPOS>MOLECULE
ZINC13441190
   52    54     0     0     0
SMALL
USER_CHARGES
2-[1-(4-chlorobenzoyl)-5-methoxy-2-methyl-indol-3-yl]-N-[(1R)-2-hydroxy-1-methyl-ethyl]acetamide
@<TRIPOS>ATOM
      1 C1         -1.1865   -3.5156   -0.0080 C.3       1 <0>        -0.1030
      2 C2         -0.4223   -2.2168   -0.0066 C.2       1 <0>         0.1172
      3 C3          0.9137   -2.1098   -0.0185 C.2       1 <0>        -0.1392
      4 C4          1.2335   -0.6781   -0.0121 C.ar      1 <0>        -0.0356
      5 C5          2.4265    0.0461   -0.0186 C.ar      1 <0>        -0.1098
      6 C6          2.3869    1.4270   -0.0091 C.ar      1 <0>         0.1116
      7 C7          1.1648    2.0931    0.0076 C.ar      1 <0>        -0.1757
      8 C8         -0.0184    1.3870    0.0136 C.ar      1 <0>        -0.0835
      9 C9          0.0015   -0.0022    0.0039 C.ar      1 <0>         0.0770
     10 N1         -0.9915   -0.9666    0.0069 N.am      1 <0>        -0.5049
     11 C10        -2.3158   -0.7168    0.0210 C.2       1 <0>         0.6029
     12 O1         -2.9198   -0.7002    1.0753 O.2       1 <0>        -0.4285
     13 C11        -3.0329   -0.4635   -1.2447 C.ar      1 <0>        -0.1659
     14 C12        -2.3637   -0.5800   -2.4652 C.ar      1 <0>        -0.0419
     15 C13        -3.0404   -0.3482   -3.6440 C.ar      1 <0>        -0.1207
     16 C14        -4.3780    0.0112   -3.6189 C.ar      1 <0>         0.0038
     17 C15        -5.0456    0.1344   -2.4114 C.ar      1 <0>        -0.1235
     18 C16        -4.3816   -0.1008   -1.2262 C.ar      1 <0>        -0.0383
     19 Cl1        -5.2213    0.3079   -5.1070 Cl        1 <0>        -0.0525
     20 O2          3.5459    2.1380   -0.0153 O.3       1 <0>        -0.3169
     21 C17         3.4331    3.5625   -0.0049 C.3       1 <0>         0.0272
     22 C18         1.9022   -3.2472   -0.0348 C.3       1 <0>        -0.0663
     23 C19         2.2188   -3.6172   -1.4610 C.2       1 <0>         0.5138
     24 O3          1.6935   -3.0164   -2.3742 O.2       1 <0>        -0.5283
     25 N2          3.0857   -4.6157   -1.7215 N.am      1 <0>        -0.7261
     26 C20         3.3935   -4.9753   -3.1080 C.3       1 <0>         0.1446
     27 H1          3.3917   -4.0770   -3.7253 H         1 <0>         0.0980
     28 C21         2.3379   -5.9534   -3.6275 C.3       1 <0>        -0.1589
     29 C22         4.7732   -5.6338   -3.1698 C.3       1 <0>         0.0662
     30 O4          4.7428   -6.8714   -2.4560 O.3       1 <0>        -0.5705
     31 H2         -1.3808   -3.8218   -1.0359 H         1 <0>         0.0854
     32 H3         -0.5988   -4.2835    0.4950 H         1 <0>         0.0918
     33 H4         -2.1328   -3.3809    0.5160 H         1 <0>         0.0697
     34 H5          3.3751   -0.4700   -0.0312 H         1 <0>         0.1320
     35 H6          1.1438    3.1729    0.0152 H         1 <0>         0.1351
     36 H7         -0.9614    1.9135    0.0214 H         1 <0>         0.1221
     37 H8         -1.3197   -0.8557   -2.4858 H         1 <0>         0.1447
     38 H9         -2.5254   -0.4429   -4.5885 H         1 <0>         0.1450
     39 H10        -6.0884    0.4149   -2.3984 H         1 <0>         0.1462
     40 H11        -4.9033   -0.0052   -0.2854 H         1 <0>         0.1476
     41 H12         2.9006    3.8783    0.8922 H         1 <0>         0.0552
     42 H13         4.4289    4.0058   -0.0114 H         1 <0>         0.1002
     43 H14         2.8839    3.8900   -0.8877 H         1 <0>         0.0551
     44 H15         2.8169   -2.9410    0.4728 H         1 <0>         0.1048
     45 H16         1.4734   -4.1086    0.4774 H         1 <0>         0.1030
     46 H17         3.5058   -5.0962   -0.9911 H         1 <0>         0.4044
     47 H18         2.3398   -6.8517   -3.0102 H         1 <0>         0.0663
     48 H19         1.3550   -5.4844   -3.5835 H         1 <0>         0.0585
     49 H20         2.5670   -6.2210   -4.6591 H         1 <0>         0.0620
     50 H21         5.0404   -5.8206   -4.2099 H         1 <0>         0.0615
     51 H22         5.5122   -4.9719   -2.7181 H         1 <0>         0.0534
     52 H23         5.5860   -7.3447   -2.4534 H         1 <0>         0.3834
@<TRIPOS>BOND
     1    1    2 1
     2    1   31 1
     3    1   32 1
     4    1   33 1
     5    2   10 1
     6    2    3 2
     7    3    4 1
     8    3   22 1
     9    4    9 ar
    10    4    5 ar
    11    5    6 ar
    12    5   34 1
    13    6    7 ar
    14    6   20 1
    15    7    8 ar
    16    7   35 1
    17    8    9 ar
    18    8   36 1
    19    9   10 1
    20   10   11 am
    21   11   12 2
    22   11   13 1
    23   13   18 ar
    24   13   14 ar
    25   14   15 ar
    26   14   37 1
    27   15   16 ar
    28   15   38 1
    29   16   17 ar
    30   16   19 1
    31   17   18 ar
    32   17   39 1
    33   18   40 1
    34   20   21 1
    35   21   41 1
    36   21   42 1
    37   21   43 1
    38   22   23 1
    39   22   44 1
    40   22   45 1
    41   23   24 2
    42   23   25 am
    43   25   26 1
    44   25   46 1
    45   26   27 1
    46   26   28 1
    47   26   29 1
    48   28   47 1
    49   28   48 1
    50   28   49 1
    51   29   30 1
    52   29   50 1
    53   29   51 1
    54   30   52 1
@<TRIPOS>MOLECULE
ZINC00000053
   20    20     0     0     0
SMALL
USER_CHARGES

@<TRIPOS>ATOM
      1 C1         -1.4238    1.4221    1.2577 C.3       1 <0>        -0.1370
      2 C2         -1.3441   -0.0813    1.1904 C.2       1 <0>         0.4790
      3 O1         -1.4532   -0.7378    2.1988 O.2       1 <0>        -0.5137
      4 O2         -1.1519   -0.6914    0.0093 O.3       1 <0>        -0.2785
      5 C3         -0.9822   -2.0375    0.0080 C.ar      1 <0>         0.1140
      6 C4          0.2935   -2.5790    0.0577 C.ar      1 <0>        -0.1438
      7 C5          0.4647   -3.9491    0.0557 C.ar      1 <0>        -0.1168
      8 C6         -0.6330   -4.7933    0.0047 C.ar      1 <0>        -0.1375
      9 C7         -1.9078   -4.2739   -0.0447 C.ar      1 <0>        -0.0755
     10 C8         -2.0966   -2.8882   -0.0379 C.ar      1 <0>        -0.1363
     11 C9         -3.4564   -2.3257   -0.0844 C.2       1 <0>         0.5228
     12 O3         -4.4256   -3.0711   -0.1243 O.co2     1 <0>        -0.6853
     13 O4         -3.6170   -1.1130   -0.0830 O.co2     1 <0>        -0.6764
     14 H1         -1.5815    1.7317    2.2908 H         1 <0>         0.0951
     15 H2         -0.4932    1.8522    0.8875 H         1 <0>         0.0914
     16 H3         -2.2544    1.7698    0.6434 H         1 <0>         0.1039
     17 H4          1.1543   -1.9280    0.0976 H         1 <0>         0.1207
     18 H5          1.4605   -4.3654    0.0938 H         1 <0>         0.1210
     19 H6         -0.4882   -5.8635    0.0032 H         1 <0>         0.1200
     20 H7         -2.7604   -4.9357   -0.0844 H         1 <0>         0.1328
@<TRIPOS>BOND
     1    1    2 1
     2    1   14 1
     3    1   15 1
     4    1   16 1
     5    2    3 2
     6    2    4 1
     7    4    5 1
     8    5   10 ar
     9    5    6 ar
    10    6    7 ar
    11    6   17 1
    12    7    8 ar
    13    7   18 1
    14    8    9 ar
    15    8   19 1
    16    9   10 ar
    17    9   20 1
    18   10   11 1
    19   11   12 2
    20   11   13 1
@<TRIPOS>MOLECULE
ZINC05557530
   54    56     0     0     0
SMALL
USER_CHARGES
2-[1-(4-chlorobenzoyl)-5-methoxy-2-methyl-indol-3-yl]-N-sec-butyl-acetamide
@<TRIPOS>ATOM
      1 C1          5.8426   -4.6163   -2.7686 C.3       1 <0>        -0.1536
      2 C2          4.7731   -5.6343   -3.1697 C.3       1 <0>        -0.1321
      3 C3          3.3935   -4.9758   -3.1079 C.3       1 <0>         0.1408
      4 H1          3.3917   -4.0775   -3.7253 H         1 <0>         0.0877
      5 C4          2.3378   -5.9538   -3.6274 C.3       1 <0>        -0.1639
      6 N1          3.0857   -4.6161   -1.7215 N.am      1 <0>        -0.7288
      7 C5          2.2189   -3.6175   -1.4609 C.2       1 <0>         0.5141
      8 O1          1.6936   -3.0167   -2.3742 O.2       1 <0>        -0.5264
      9 C6          1.9022   -3.2475   -0.0348 C.3       1 <0>        -0.0669
     10 C7          0.9139   -2.1100   -0.0185 C.2       1 <0>        -0.1390
     11 C8         -0.4221   -2.2169   -0.0066 C.2       1 <0>         0.1168
     12 N2         -0.9914   -0.9667    0.0069 N.am      1 <0>        -0.5051
     13 C9          0.0015   -0.0022    0.0039 C.ar      1 <0>         0.0771
     14 C10         1.2338   -0.6783   -0.0121 C.ar      1 <0>        -0.0355
     15 C11         2.4265    0.0456   -0.0190 C.ar      1 <0>        -0.1095
     16 C12         2.3868    1.4270   -0.0099 C.ar      1 <0>         0.1118
     17 C13         1.1652    2.0929    0.0076 C.ar      1 <0>        -0.1757
     18 C14        -0.0184    1.3866    0.0136 C.ar      1 <0>        -0.0838
     19 O2          3.5459    2.1380   -0.0165 O.3       1 <0>        -0.3168
     20 C15         3.4332    3.5625   -0.0065 C.3       1 <0>         0.0272
     21 C16        -2.3158   -0.7171    0.0214 C.2       1 <0>         0.6030
     22 O3         -2.9195   -0.7007    1.0758 O.2       1 <0>        -0.4286
     23 C17        -3.0331   -0.4635   -1.2441 C.ar      1 <0>        -0.1661
     24 C18        -2.3642   -0.5795   -2.4648 C.ar      1 <0>        -0.0418
     25 C19        -3.0411   -0.3470   -3.6433 C.ar      1 <0>        -0.1207
     26 C20        -4.3786    0.0127   -3.6178 C.ar      1 <0>         0.0039
     27 C21        -5.0460    0.1350   -2.4102 C.ar      1 <0>        -0.1235
     28 C22        -4.3819   -0.1009   -1.2252 C.ar      1 <0>        -0.0383
     29 Cl1        -5.2220    0.3109   -5.1056 Cl        1 <0>        -0.0524
     30 C23        -1.1864   -3.5157   -0.0084 C.3       1 <0>        -0.1026
     31 H2          5.8132   -3.7693   -3.4541 H         1 <0>         0.0555
     32 H3          5.6509   -4.2689   -1.7534 H         1 <0>         0.0554
     33 H4          6.8255   -5.0855   -2.8126 H         1 <0>         0.0564
     34 H5          4.8025   -6.4813   -2.4842 H         1 <0>         0.0677
     35 H6          4.9647   -5.9817   -4.1849 H         1 <0>         0.0778
     36 H7          2.3396   -6.8521   -3.0101 H         1 <0>         0.0562
     37 H8          1.3549   -5.4846   -3.5834 H         1 <0>         0.0601
     38 H9          2.5668   -6.2214   -4.6590 H         1 <0>         0.0645
     39 H10         3.5057   -5.0966   -0.9911 H         1 <0>         0.3989
     40 H11         2.8170   -2.9413    0.4728 H         1 <0>         0.1045
     41 H12         1.4734   -4.1088    0.4774 H         1 <0>         0.1022
     42 H13         3.3751   -0.4705   -0.0316 H         1 <0>         0.1321
     43 H14         1.1442    3.1727    0.0149 H         1 <0>         0.1352
     44 H15        -0.9614    1.9131    0.0214 H         1 <0>         0.1221
     45 H16         2.8838    3.8897   -0.8893 H         1 <0>         0.0551
     46 H17         2.9008    3.8785    0.8906 H         1 <0>         0.0551
     47 H18         4.4289    4.0058   -0.0133 H         1 <0>         0.1003
     48 H19        -1.3202   -0.8552   -2.4857 H         1 <0>         0.1447
     49 H20        -2.5263   -0.4410   -4.5880 H         1 <0>         0.1450
     50 H21        -6.0889    0.4154   -2.3968 H         1 <0>         0.1463
     51 H22        -4.9035   -0.0060   -0.2843 H         1 <0>         0.1476
     52 H23        -1.3803   -3.8218   -1.0364 H         1 <0>         0.0852
     53 H24        -0.5988   -4.2837    0.4946 H         1 <0>         0.0914
     54 H25        -2.1328   -3.3811    0.5153 H         1 <0>         0.0696
@<TRIPOS>BOND
     1    1    2 1
     2    1   31 1
     3    1   32 1
     4    1   33 1
     5    2    3 1
     6    2   34 1
     7    2   35 1
     8    3    4 1
     9    3    5 1
    10    3    6 1
    11    5   36 1
    12    5   37 1
    13    5   38 1
    14    6    7 am
    15    6   39 1
    16    7    8 2
    17    7    9 1
    18    9   10 1
    19    9   40 1
    20    9   41 1
    21   10   14 1
    22   10   11 2
    23   11   12 1
    24   11   30 1
    25   12   13 1
    26   12   21 am
    27   13   18 ar
    28   13   14 ar
    29   14   15 ar
    30   15   16 ar
    31   15   42 1
    32   16   17 ar
    33   16   19 1
    34   17   18 ar
    35   17   43 1
    36   18   44 1
    37   19   20 1
    38   20   45 1
    39   20   46 1
    40   20   47 1
    41   21   22 2
    42   21   23 1
    43   23   28 ar
    44   23   24 ar
    45   24   25 ar
    46   24   48 1
    47   25   26 ar
    48   25   49 1
    49   26   27 ar
    50   26   29 1
    51   27   28 ar
    52   27   50 1
    53   28   51 1
    54   30   52 1
    55   30   53 1
    56   30   54 1
@<TRIPOS>MOLECULE
ZINC05557532
   54    56     0     0     0
SMALL
USER_CHARGES
2-[1-(4-chlorobenzoyl)-5-methoxy-2-methyl-indol-3-yl]-N-sec-butyl-acetamide
@<TRIPOS>ATOM
      1 C1          5.8857   -4.6675    2.6033 C.3       1 <0>        -0.1535
      2 C2          4.8220   -5.6891    3.0104 C.3       1 <0>        -0.1321
      3 C3          3.4427   -5.0275    2.9835 C.3       1 <0>         0.1408
      4 H1          3.4542   -4.1377    3.6129 H         1 <0>         0.0877
      5 C4          2.3950   -6.0107    3.5094 C.3       1 <0>        -0.1639
      6 N1          3.1097   -4.6484    1.6081 N.am      1 <0>        -0.7289
      7 C5          2.2401   -3.6449    1.3774 C.2       1 <0>         0.5141
      8 O1          1.7332   -3.0557    2.3085 O.2       1 <0>        -0.5262
      9 C6          1.8975   -3.2549   -0.0374 C.3       1 <0>        -0.0669
     10 C7          0.9113   -2.1157   -0.0196 C.2       1 <0>        -0.1385
     11 C8         -0.4249   -2.2201   -0.0079 C.2       1 <0>         0.1164
     12 N2         -0.9920   -0.9689    0.0063 N.am      1 <0>        -0.5051
     13 C9          0.0028   -0.0062    0.0038 C.ar      1 <0>         0.0770
     14 C10         1.2338   -0.6846   -0.0125 C.ar      1 <0>        -0.0358
     15 C11         2.4277    0.0373   -0.0186 C.ar      1 <0>        -0.1096
     16 C12         2.3905    1.4187   -0.0084 C.ar      1 <0>         0.1118
     17 C13         1.1700    2.0868    0.0078 C.ar      1 <0>        -0.1757
     18 C14        -0.0148    1.3826    0.0138 C.ar      1 <0>        -0.0837
     19 O2          3.5508    2.1276   -0.0138 O.3       1 <0>        -0.3168
     20 C15         3.4406    3.5524   -0.0027 C.3       1 <0>         0.0272
     21 C16        -2.3159   -0.7169    0.0204 C.2       1 <0>         0.6027
     22 O3         -2.9056   -0.5070   -1.0212 O.2       1 <0>        -0.4285
     23 C17        -3.0498   -0.6958    1.3015 C.ar      1 <0>        -0.1658
     24 C18        -2.3595   -0.8372    2.5075 C.ar      1 <0>        -0.0419
     25 C19        -3.0498   -0.8110    3.7008 C.ar      1 <0>        -0.1205
     26 C20        -4.4264   -0.6563    3.7046 C.ar      1 <0>         0.0038
     27 C21        -5.1173   -0.5213    2.5116 C.ar      1 <0>        -0.1235
     28 C22        -4.4378   -0.5402    1.3121 C.ar      1 <0>        -0.0384
     29 Cl1        -5.2891   -0.6309    5.2108 Cl        1 <0>        -0.0524
     30 C23        -1.1915   -3.5176   -0.0099 C.3       1 <0>        -0.1017
     31 H2          6.8683   -5.1389    2.6225 H         1 <0>         0.0564
     32 H3          5.6758   -4.3060    1.5967 H         1 <0>         0.0554
     33 H4          5.8708   -3.8300    3.3007 H         1 <0>         0.0555
     34 H5          5.0319   -6.0507    4.0171 H         1 <0>         0.0778
     35 H6          4.8368   -6.5267    2.3130 H         1 <0>         0.0677
     36 H7          2.3835   -6.9005    2.8799 H         1 <0>         0.0561
     37 H8          2.6428   -6.2927    4.5327 H         1 <0>         0.0645
     38 H9          1.4124   -5.5393    3.4902 H         1 <0>         0.0602
     39 H10         3.5151   -5.1196    0.8635 H         1 <0>         0.3989
     40 H11         1.4575   -4.1085   -0.5531 H         1 <0>         0.1022
     41 H12         2.8032   -2.9434   -0.5578 H         1 <0>         0.1044
     42 H13         3.3755   -0.4804   -0.0315 H         1 <0>         0.1321
     43 H14         1.1510    3.1667    0.0153 H         1 <0>         0.1352
     44 H15        -0.9568    1.9107    0.0218 H         1 <0>         0.1221
     45 H16         4.4372    3.9939   -0.0085 H         1 <0>         0.1003
     46 H17         2.8924    3.8813   -0.8855 H         1 <0>         0.0552
     47 H18         2.9083    3.8686    0.8943 H         1 <0>         0.0551
     48 H19        -1.2868   -0.9624    2.5056 H         1 <0>         0.1447
     49 H20        -2.5167   -0.9154    4.6342 H         1 <0>         0.1450
     50 H21        -6.1905   -0.4007    2.5211 H         1 <0>         0.1462
     51 H22        -4.9776   -0.4345    0.3826 H         1 <0>         0.1475
     52 H23        -1.3667   -3.8376    1.0172 H         1 <0>         0.0857
     53 H24        -2.1473   -3.3741   -0.5138 H         1 <0>         0.0685
     54 H25        -0.6150   -4.2794   -0.5346 H         1 <0>         0.0913
@<TRIPOS>BOND
     1    1    2 1
     2    1   31 1
     3    1   32 1
     4    1   33 1
     5    2    3 1
     6    2   34 1
     7    2   35 1
     8    3    4 1
     9    3    5 1
    10    3    6 1
    11    5   36 1
    12    5   37 1
    13    5   38 1
    14    6    7 am
    15    6   39 1
    16    7    8 2
    17    7    9 1
    18    9   10 1
    19    9   40 1
    20    9   41 1
    21   10   14 1
    22   10   11 2
    23   11   12 1
    24   11   30 1
    25   12   13 1
    26   12   21 am
    27   13   18 ar
    28   13   14 ar
    29   14   15 ar
    30   15   16 ar
    31   15   42 1
    32   16   17 ar
    33   16   19 1
    34   17   18 ar
    35   17   43 1
    36   18   44 1
    37   19   20 1
    38   20   45 1
    39   20   46 1
    40   20   47 1
    41   21   22 2
    42   21   23 1
    43   23   28 ar
    44   23   24 ar
    45   24   25 ar
    46   24   48 1
    47   25   26 ar
    48   25   49 1
    49   26   27 ar
    50   26   29 1
    51   27   28 ar
    52   27   50 1
    53   28   51 1
    54   30   52 1
    55   30   53 1
    56   30   54 1
@<TRIPOS>MOLECULE
ZINC13441224
   52    54     0     0     0
SMALL
USER_CHARGES
2-[1-(4-chlorobenzoyl)-5-methoxy-2-methyl-indol-3-yl]-N-[(2S)-2-hydroxypropyl]acetamide
@<TRIPOS>ATOM
      1 C1         -1.3053    4.8648    0.0452 C.3       1 <0>        -0.1021
      2 C2         -0.5039    3.5887    0.0283 C.2       1 <0>         0.1165
      3 C3          0.8347    3.5206    0.0146 C.2       1 <0>        -0.1393
      4 C4          1.1958    2.0988    0.0010 C.ar      1 <0>        -0.0361
      5 C5          2.4091    1.4095   -0.0154 C.ar      1 <0>        -0.1099
      6 C6          2.4094    0.0279   -0.0251 C.ar      1 <0>         0.1118
      7 C7          1.2070   -0.6734   -0.0187 C.ar      1 <0>        -0.1754
      8 C8          0.0040   -0.0018   -0.0021 C.ar      1 <0>        -0.0835
      9 C9         -0.0162    1.3874    0.0079 C.ar      1 <0>         0.0768
     10 N1         -1.0367    2.3225    0.0190 N.am      1 <0>        -0.5049
     11 C10        -2.3533    2.0344    0.0226 C.2       1 <0>         0.6025
     12 O1         -2.9230    1.8087    1.0720 O.2       1 <0>        -0.4282
     13 C11        -3.1035    1.9932   -1.2485 C.ar      1 <0>        -0.1656
     14 C12        -2.4336    2.1532   -2.4637 C.ar      1 <0>        -0.0420
     15 C13        -3.1390    2.1079   -3.6475 C.ar      1 <0>        -0.1207
     16 C14        -4.5107    1.9157   -3.6329 C.ar      1 <0>         0.0038
     17 C15        -5.1817    1.7621   -2.4307 C.ar      1 <0>        -0.1234
     18 C16        -4.4868    1.7997   -1.2405 C.ar      1 <0>        -0.0383
     19 Cl1        -5.3927    1.8666   -5.1274 Cl        1 <0>        -0.0525
     20 O2          3.5884   -0.6491   -0.0407 O.3       1 <0>        -0.3167
     21 C17         3.5169   -2.0763   -0.0496 C.3       1 <0>         0.0271
     22 C18         1.7898    4.6862    0.0135 C.3       1 <0>        -0.0658
     23 C19         2.0942    5.0849   -1.4076 C.2       1 <0>         0.5130
     24 O3          1.5857    4.4818   -2.3287 O.2       1 <0>        -0.5280
     25 N2          2.9316    6.1115   -1.6548 N.am      1 <0>        -0.7301
     26 C20         3.2276    6.4991   -3.0363 C.3       1 <0>         0.0876
     27 C21         4.1973    7.6825   -3.0374 C.3       1 <0>         0.0910
     28 H1          3.7823    8.4929   -2.4381 H         1 <0>         0.1056
     29 C22         4.4092    8.1669   -4.4732 C.3       1 <0>        -0.1847
     30 O4          5.4492    7.2731   -2.4832 O.3       1 <0>        -0.5608
     31 H2         -1.5087    5.1797   -0.9783 H         1 <0>         0.0856
     32 H3         -2.2471    4.6954    0.5671 H         1 <0>         0.0689
     33 H4         -0.7399    5.6422    0.5590 H         1 <0>         0.0916
     34 H5          3.3425    1.9528   -0.0200 H         1 <0>         0.1323
     35 H6          1.2172   -1.7533   -0.0265 H         1 <0>         0.1353
     36 H7         -0.9234   -0.5554    0.0027 H         1 <0>         0.1223
     37 H8         -1.3648    2.3076   -2.4761 H         1 <0>         0.1446
     38 H9         -2.6215    2.2267   -4.5880 H         1 <0>         0.1449
     39 H10        -6.2512    1.6122   -2.4258 H         1 <0>         0.1463
     40 H11        -5.0109    1.6795   -0.3038 H         1 <0>         0.1476
     41 H12         4.5250   -2.4906   -0.0618 H         1 <0>         0.1005
     42 H13         2.9938   -2.4195    0.8430 H         1 <0>         0.0552
     43 H14         2.9772   -2.4075   -0.9369 H         1 <0>         0.0550
     44 H15         1.3368    5.5277    0.5378 H         1 <0>         0.1031
     45 H16         2.7135    4.3996    0.5163 H         1 <0>         0.1059
     46 H17         3.3384    6.5939   -0.9181 H         1 <0>         0.4046
     47 H18         3.6806    5.6576   -3.5606 H         1 <0>         0.0702
     48 H19         2.3039    6.7857   -3.5390 H         1 <0>         0.0759
     49 H20         3.4543    8.4792   -4.8959 H         1 <0>         0.0700
     50 H21         5.1000    9.0100   -4.4740 H         1 <0>         0.0707
     51 H22         4.8242    7.3565   -5.0725 H         1 <0>         0.0627
     52 H23         5.8769    6.5532   -2.9670 H         1 <0>         0.3788
@<TRIPOS>BOND
     1    1    2 1
     2    1   31 1
     3    1   32 1
     4    1   33 1
     5    2   10 1
     6    2    3 2
     7    3    4 1
     8    3   22 1
     9    4    9 ar
    10    4    5 ar
    11    5    6 ar
    12    5   34 1
    13    6    7 ar
    14    6   20 1
    15    7    8 ar
    16    7   35 1
    17    8    9 ar
    18    8   36 1
    19    9   10 1
    20   10   11 am
    21   11   12 2
    22   11   13 1
    23   13   18 ar
    24   13   14 ar
    25   14   15 ar
    26   14   37 1
    27   15   16 ar
    28   15   38 1
    29   16   17 ar
    30   16   19 1
    31   17   18 ar
    32   17   39 1
    33   18   40 1
    34   20   21 1
    35   21   41 1
    36   21   42 1
    37   21   43 1
    38   22   23 1
    39   22   44 1
    40   22   45 1
    41   23   24 2
    42   23   25 am
    43   25   26 1
    44   25   46 1
    45   26   27 1
    46   26   47 1
    47   26   48 1
    48   27   28 1
    49   27   29 1
    50   27   30 1
    51   29   49 1
    52   29   50 1
    53   29   51 1
    54   30   52 1
@<TRIPOS>MOLECULE
ZINC00131032
   32    33     0     0     0
SMALL
USER_CHARGES

@<TRIPOS>ATOM
      1 C1         -0.0169    1.3937    0.0097 C.ar      1 <0>        -0.0827
      2 C2          1.1700    2.0959    0.0021 C.ar      1 <0>        -0.0605
      3 C3          2.3777    1.4203   -0.0135 C.ar      1 <0>        -0.0306
      4 C4          2.4045    0.0367   -0.0212 C.ar      1 <0>        -0.0614
      5 C5          1.2260   -0.6794   -0.0138 C.ar      1 <0>        -0.0692
      6 C6          0.0021   -0.0041    0.0020 C.ar      1 <0>        -0.0333
      7 C7         -1.2609   -0.7614    0.0105 C.2       1 <0>         0.2077
      8 N1         -1.2395   -2.0638    0.0033 N.2       1 <0>        -0.4696
      9 C8         -2.4132   -2.7675    0.0112 C.ar      1 <0>         0.1360
     10 C9         -3.4477   -2.3970    0.8734 C.ar      1 <0>        -0.1699
     11 C10        -4.6279   -3.1108    0.8760 C.ar      1 <0>        -0.0039
     12 C11        -4.7884   -4.1917    0.0272 C.ar      1 <0>        -0.6836
     13 C12        -3.7677   -4.5647   -0.8293 C.ar      1 <0>        -0.0019
     14 C13        -2.5843   -3.8561   -0.8470 C.ar      1 <0>        -0.1215
     15 S1         -6.2996   -5.0978    0.0374 S.o2      1 <0>         2.7028
     16 O1         -5.9984   -6.3954   -0.4576 O.2       1 <0>        -0.9594
     17 O2         -6.8909   -4.8871    1.3122 O.2       1 <0>        -0.9582
     18 N2         -7.3031   -4.3889   -1.0729 N.pl3     1 <0>        -1.2474
     19 N3          3.6471    2.1814   -0.0225 N.pl3     1 <0>         0.0282
     20 O3          3.6272    3.3903   -0.0162 O.2       1 <0>        -0.1516
     21 O4          4.7039    1.5943   -0.0361 O.3       1 <0>        -0.1514
     22 H1         -0.9585    1.9223    0.0260 H         1 <0>         0.1560
     23 H2          1.1570    3.1758    0.0081 H         1 <0>         0.1609
     24 H3          3.3508   -0.4837   -0.0334 H         1 <0>         0.1596
     25 H4          1.2485   -1.7592   -0.0205 H         1 <0>         0.1597
     26 H5         -2.2050   -0.2369    0.0227 H         1 <0>         0.1259
     27 H6         -3.3236   -1.5537    1.5367 H         1 <0>         0.1366
     28 H7         -5.4285   -2.8256    1.5425 H         1 <0>         0.1486
     29 H8         -3.8994   -5.4099   -1.4887 H         1 <0>         0.1511
     30 H9         -1.7903   -4.1451   -1.5196 H         1 <0>         0.1430
     31 H10        -7.9631   -4.9236   -1.5411 H         1 <0>         0.4232
     32 H11        -7.2308   -3.4388   -1.2550 H         1 <0>         0.4170
@<TRIPOS>BOND
     1    1    6 ar
     2    1    2 ar
     3    1   22 1
     4    2    3 ar
     5    2   23 1
     6    3    4 ar
     7    3   19 1
     8    4    5 ar
     9    4   24 1
    10    5    6 ar
    11    5   25 1
    12    6    7 1
    13    7    8 2
    14    7   26 1
    15    8    9 1
    16    9   14 ar
    17    9   10 ar
    18   10   11 ar
    19   10   27 1
    20   11   12 ar
    21   11   28 1
    22   12   13 ar
    23   12   15 1
    24   13   14 ar
    25   13   29 1
    26   14   30 1
    27   15   16 2
    28   15   17 2
    29   15   18 1
    30   18   31 1
    31   18   32 1
    32   19   20 2
    33   19   21 1
@<TRIPOS>MOLECULE
ZINC13441182
   52    54     0     0     0
SMALL
USER_CHARGES
2-[1-(4-chlorobenzoyl)-5-methoxy-2-methyl-indol-3-yl]-N-(3-hydroxypropyl)acetamide
@<TRIPOS>ATOM
      1 C1         -3.6560    0.5961    0.0453 C.3       1 <0>        -0.1023
      2 C2         -2.1505    0.6607    0.0285 C.2       1 <0>         0.1178
      3 C3         -1.4284    1.7899    0.0321 C.2       1 <0>        -0.1411
      4 C4         -0.0145    1.3997    0.0084 C.ar      1 <0>        -0.0358
      5 C5          1.1852    2.1127   -0.0007 C.ar      1 <0>        -0.1101
      6 C6          2.3856    1.4290   -0.0184 C.ar      1 <0>         0.1121
      7 C7          2.3995    0.0372   -0.0266 C.ar      1 <0>        -0.1755
      8 C8          1.2204   -0.6757   -0.0172 C.ar      1 <0>        -0.0834
      9 C9          0.0034   -0.0054    0.0001 C.ar      1 <0>         0.0770
     10 N1         -1.3143   -0.4291    0.0127 N.am      1 <0>        -0.5046
     11 C10        -1.7160   -1.7156    0.0091 C.2       1 <0>         0.6003
     12 O1         -1.9957   -2.2619   -1.0397 O.2       1 <0>        -0.4249
     13 C11        -1.8162   -2.4612    1.2797 C.ar      1 <0>        -0.1629
     14 C12        -1.5922   -1.8097    2.4947 C.ar      1 <0>        -0.0452
     15 C13        -1.6929   -2.5101    3.6780 C.ar      1 <0>        -0.1209
     16 C14        -2.0037   -3.8600    3.6629 C.ar      1 <0>         0.0028
     17 C15        -2.2213   -4.5131    2.4609 C.ar      1 <0>        -0.1217
     18 C16        -2.1297   -3.8223    1.2712 C.ar      1 <0>        -0.0382
     19 Cl1        -2.1215   -4.7366    5.1567 Cl        1 <0>        -0.0518
     20 O2          3.5577    2.1182   -0.0274 O.3       1 <0>        -0.3167
     21 C17         4.7622    1.3495   -0.0451 C.3       1 <0>         0.0272
     22 C18        -1.9681    3.1969    0.0484 C.3       1 <0>        -0.0650
     23 C19        -2.1696    3.6740   -1.3668 C.2       1 <0>         0.5101
     24 O3         -1.9014    2.9435   -2.2970 O.2       1 <0>        -0.5226
     25 N2         -2.6479    4.9125   -1.5987 N.am      1 <0>        -0.7349
     26 C20        -2.8437    5.3764   -2.9745 C.3       1 <0>         0.1221
     27 C21        -3.3917    6.8048   -2.9580 C.3       1 <0>        -0.1330
     28 C22        -3.5962    7.2892   -4.3947 C.3       1 <0>         0.0783
     29 O4         -4.1080    8.6234   -4.3793 O.3       1 <0>        -0.5752
     30 H1         -4.0073    0.5742    1.0769 H         1 <0>         0.0854
     31 H2         -4.0629    1.4729   -0.4586 H         1 <0>         0.0900
     32 H3         -3.9868   -0.3054   -0.4704 H         1 <0>         0.0707
     33 H4          1.1753    3.1927    0.0056 H         1 <0>         0.1324
     34 H5          3.3428   -0.4886   -0.0400 H         1 <0>         0.1353
     35 H6          1.2421   -1.7555   -0.0237 H         1 <0>         0.1222
     36 H7         -1.3451   -0.7584    2.5075 H         1 <0>         0.1420
     37 H8         -1.5247   -2.0064    4.6184 H         1 <0>         0.1453
     38 H9         -2.4636   -5.5656    2.4556 H         1 <0>         0.1466
     39 H10        -2.3002   -4.3325    0.3347 H         1 <0>         0.1479
     40 H11         4.8018    0.7158    0.8408 H         1 <0>         0.0553
     41 H12         4.7821    0.7260   -0.9390 H         1 <0>         0.0550
     42 H13         5.6213    2.0203   -0.0508 H         1 <0>         0.1004
     43 H14        -2.9212    3.2143    0.5769 H         1 <0>         0.1040
     44 H15        -1.2595    3.8520    0.5553 H         1 <0>         0.1065
     45 H16        -2.8624    5.4968   -0.8547 H         1 <0>         0.4018
     46 H17        -1.8906    5.3589   -3.5030 H         1 <0>         0.0695
     47 H18        -3.5523    4.7213   -3.4814 H         1 <0>         0.0690
     48 H19        -4.3448    6.8223   -2.4295 H         1 <0>         0.0774
     49 H20        -2.6831    7.4599   -2.4511 H         1 <0>         0.0777
     50 H21        -2.6431    7.2718   -4.9232 H         1 <0>         0.0500
     51 H22        -4.3048    6.6341   -4.9016 H         1 <0>         0.0497
     52 H23        -4.2623    8.9956   -5.2583 H         1 <0>         0.3842
@<TRIPOS>BOND
     1    1    2 1
     2    1   30 1
     3    1   31 1
     4    1   32 1
     5    2   10 1
     6    2    3 2
     7    3    4 1
     8    3   22 1
     9    4    9 ar
    10    4    5 ar
    11    5    6 ar
    12    5   33 1
    13    6    7 ar
    14    6   20 1
    15    7    8 ar
    16    7   34 1
    17    8    9 ar
    18    8   35 1
    19    9   10 1
    20   10   11 am
    21   11   12 2
    22   11   13 1
    23   13   18 ar
    24   13   14 ar
    25   14   15 ar
    26   14   36 1
    27   15   16 ar
    28   15   37 1
    29   16   17 ar
    30   16   19 1
    31   17   18 ar
    32   17   38 1
    33   18   39 1
    34   20   21 1
    35   21   40 1
    36   21   41 1
    37   21   42 1
    38   22   23 1
    39   22   43 1
    40   22   44 1
    41   23   24 2
    42   23   25 am
    43   25   26 1
    44   25   45 1
    45   26   27 1
    46   26   46 1
    47   26   47 1
    48   27   28 1
    49   27   48 1
    50   27   49 1
    51   28   29 1
    52   28   50 1
    53   28   51 1
    54   29   52 1
@<TRIPOS>MOLECULE
ZINC00003767
   41    43     0     0     0
SMALL
USER_CHARGES

@<TRIPOS>ATOM
      1 C1         -0.0173    1.4248    0.0099 C.3       1 <0>         0.0271
      2 O1          0.0021   -0.0041    0.0020 O.3       1 <0>        -0.3216
      3 C2         -1.2004   -0.6375    0.0101 C.ar      1 <0>         0.1212
      4 C3         -2.3737    0.1039    0.0195 C.ar      1 <0>        -0.2052
      5 C4         -3.5956   -0.5361    0.0277 C.ar      1 <0>        -0.0536
      6 C5         -3.6513   -1.9286    0.0261 C.ar      1 <0>        -0.0366
      7 C6         -2.4714   -2.6703    0.0162 C.ar      1 <0>        -0.0663
      8 C7         -1.2526   -2.0245    0.0031 C.ar      1 <0>        -0.1563
      9 C8         -4.9640   -2.6201    0.0354 C.2       1 <0>        -0.2310
     10 C9         -5.8880   -2.5854    1.0286 C.2       1 <0>         0.1583
     11 O2         -6.9346   -3.3357    0.6577 O.3       1 <0>        -0.0784
     12 N1         -6.6880   -3.8813   -0.6233 N.2       1 <0>        -0.3283
     13 C10        -5.5130   -3.4669   -1.0308 C.2       1 <0>         0.1629
     14 C11        -4.8608   -3.7943   -2.3214 C.ar      1 <0>        -0.0587
     15 C12        -4.0613   -2.8472   -2.9601 C.ar      1 <0>        -0.0371
     16 C13        -3.4562   -3.1546   -4.1602 C.ar      1 <0>        -0.1510
     17 C14        -3.6423   -4.4059   -4.7328 C.ar      1 <0>         0.1372
     18 C15        -4.4379   -5.3512   -4.0991 C.ar      1 <0>        -0.2125
     19 C16        -5.0411   -5.0518   -2.8960 C.ar      1 <0>        -0.0466
     20 O3         -3.0451   -4.7057   -5.9155 O.3       1 <0>        -0.3164
     21 C17        -3.2791   -6.0110   -6.4480 C.3       1 <0>         0.0263
     22 C18        -5.7591   -1.8321    2.3274 C.3       1 <0>        -0.1349
     23 C19        -6.3186   -0.4428    2.1600 C.2       1 <0>         0.5068
     24 O4         -6.7794   -0.0966    1.0856 O.co2     1 <0>        -0.6796
     25 O5         -6.3105    0.3349    3.0990 O.co2     1 <0>        -0.6866
     26 H1          1.0053    1.8021    0.0021 H         1 <0>         0.0956
     27 H2         -0.5445    1.7859   -0.8732 H         1 <0>         0.0546
     28 H3         -0.5275    1.7763    0.9067 H         1 <0>         0.0565
     29 H4         -2.3300    1.1830    0.0207 H         1 <0>         0.1274
     30 H5         -4.5083    0.0414    0.0357 H         1 <0>         0.1421
     31 H6         -2.5114   -3.7496    0.0149 H         1 <0>         0.1243
     32 H7         -0.3379   -2.5987   -0.0087 H         1 <0>         0.1267
     33 H8         -3.9164   -1.8737   -2.5154 H         1 <0>         0.1383
     34 H9         -2.8371   -2.4213   -4.6556 H         1 <0>         0.1357
     35 H10        -4.5811   -6.3234   -4.5471 H         1 <0>         0.1315
     36 H11        -5.6559   -5.7891   -2.4013 H         1 <0>         0.1306
     37 H12        -2.7459   -6.1191   -7.3924 H         1 <0>         0.0990
     38 H13        -2.9228   -6.7607   -5.7416 H         1 <0>         0.0560
     39 H14        -4.3473   -6.1487   -6.6160 H         1 <0>         0.0560
     40 H15        -6.3125   -2.3551    3.1073 H         1 <0>         0.0884
     41 H16        -4.7077   -1.7689    2.6080 H         1 <0>         0.0982
@<TRIPOS>BOND
     1    1    2 1
     2    1   26 1
     3    1   27 1
     4    1   28 1
     5    2    3 1
     6    3    8 ar
     7    3    4 ar
     8    4    5 ar
     9    4   29 1
    10    5    6 ar
    11    5   30 1
    12    6    7 ar
    13    6    9 1
    14    7    8 ar
    15    7   31 1
    16    8   32 1
    17    9   13 1
    18    9   10 2
    19   10   11 1
    20   10   22 1
    21   11   12 1
    22   12   13 2
    23   13   14 1
    24   14   19 ar
    25   14   15 ar
    26   15   16 ar
    27   15   33 1
    28   16   17 ar
    29   16   34 1
    30   17   18 ar
    31   17   20 1
    32   18   19 ar
    33   18   35 1
    34   19   36 1
    35   20   21 1
    36   21   37 1
    37   21   38 1
    38   21   39 1
    39   22   23 1
    40   22   40 1
    41   22   41 1
    42   23   24 2
    43   23   25 1
@<TRIPOS>MOLECULE
ZINC05195818
   53    55     0     0     0
SMALL
USER_CHARGES

@<TRIPOS>ATOM
      1 C1          1.8494    1.5479    0.1386 C.3       1 <0>        -0.1235
      2 C2          2.1353    0.0688    0.1775 C.2       1 <0>        -0.1284
      3 C3          2.1550   -0.5646    1.3241 C.2       1 <0>        -0.1620
      4 C4          1.7739    0.1577    2.5906 C.3       1 <0>        -0.0432
      5 C5          0.5958   -0.5330    3.2278 C.ar      1 <0>        -0.1601
      6 C6         -0.6987   -0.1531    2.8909 C.ar      1 <0>         0.1965
      7 C7         -1.7934   -0.7752    3.4704 C.ar      1 <0>        -0.1813
      8 C8         -1.6098   -1.7922    4.3971 C.ar      1 <0>         0.1865
      9 C9         -0.3010   -2.1828    4.7300 C.ar      1 <0>        -0.2632
     10 C10         0.8018   -1.5487    4.1433 C.ar      1 <0>         0.2210
     11 O1          2.0626   -1.9248    4.4747 O.3       1 <0>        -0.4718
     12 C11        -0.1195   -3.2793    5.6981 C.2       1 <0>         0.4416
     13 O2          0.9620   -3.5236    6.2024 O.2       1 <0>        -0.4216
     14 C12        -1.3295   -4.0638    6.0200 C.ar      1 <0>        -0.2196
     15 C13        -2.5782   -3.5636    5.6159 C.ar      1 <0>         0.1695
     16 O3         -2.6788   -2.3866    4.9643 O.3       1 <0>        -0.2211
     17 C14        -3.7231   -4.2970    5.9014 C.ar      1 <0>        -0.1659
     18 C15        -3.6275   -5.4986    6.5806 C.ar      1 <0>         0.1549
     19 C16        -2.3844   -5.9886    6.9874 C.ar      1 <0>         0.0532
     20 C17        -1.2374   -5.2742    6.7080 C.ar      1 <0>         0.0073
     21 C18         0.1069   -5.7984    7.1429 C.3       1 <0>        -0.0612
     22 C19         0.4254   -5.2814    8.5222 C.2       1 <0>        -0.1450
     23 C20         0.6495   -6.1224    9.5013 C.2       1 <0>        -0.1258
     24 C21         0.5418   -7.6060    9.2598 C.3       1 <0>        -0.1235
     25 C22         1.0150   -5.6062   10.8691 C.3       1 <0>        -0.1171
     26 O4         -2.3045   -7.1693    7.6586 O.3       1 <0>        -0.4702
     27 O5         -4.7527   -6.2079    6.8546 O.3       1 <0>        -0.4784
     28 O6         -0.8925    0.8385    1.9847 O.3       1 <0>        -0.4833
     29 C23         2.3986   -0.6817   -1.1025 C.3       1 <0>        -0.1197
     30 H1          2.5480    2.0703    0.7923 H         1 <0>         0.0664
     31 H2          1.9641    1.9134   -0.8818 H         1 <0>         0.0609
     32 H3          0.8295    1.7298    0.4773 H         1 <0>         0.0724
     33 H4          2.4443   -1.6045    1.3616 H         1 <0>         0.1100
     34 H5          2.6171    0.1495    3.2813 H         1 <0>         0.0829
     35 H6          1.5072    1.1880    2.3551 H         1 <0>         0.0910
     36 H7         -2.7927   -0.4673    3.2003 H         1 <0>         0.1531
     37 H8          2.4324   -1.4419    5.2265 H         1 <0>         0.4029
     38 H9         -4.6900   -3.9285    5.5922 H         1 <0>         0.1546
     39 H10         0.0839   -6.8880    7.1597 H         1 <0>         0.0853
     40 H11         0.8719   -5.4618    6.4432 H         1 <0>         0.1055
     41 H12         0.4689   -4.2176    8.7034 H         1 <0>         0.1067
     42 H13         1.4812   -7.9765    8.8496 H         1 <0>         0.0631
     43 H14         0.3315   -8.1130   10.2015 H         1 <0>         0.0599
     44 H15        -0.2652   -7.8015    8.5537 H         1 <0>         0.0752
     45 H16         0.1079   -5.4508   11.4532 H         1 <0>         0.0656
     46 H17         1.6519   -6.3328   11.3735 H         1 <0>         0.0627
     47 H18         1.5496   -4.6614   10.7701 H         1 <0>         0.0610
     48 H19        -2.2000   -7.9412    7.0856 H         1 <0>         0.3846
     49 H20        -4.9960   -6.8412    6.1655 H         1 <0>         0.3980
     50 H21        -0.9542    0.5294    1.0705 H         1 <0>         0.4008
     51 H22         2.3406    0.0066   -1.9457 H         1 <0>         0.0626
     52 H23         3.3928   -1.1270   -1.0647 H         1 <0>         0.0654
     53 H24         1.6529   -1.4675   -1.2230 H         1 <0>         0.0648
@<TRIPOS>BOND
     1    1    2 1
     2    1   30 1
     3    1   31 1
     4    1   32 1
     5    2    3 2
     6    2   29 1
     7    3    4 1
     8    3   33 1
     9    4    5 1
    10    4   34 1
    11    4   35 1
    12    5   10 ar
    13    5    6 ar
    14    6    7 ar
    15    6   28 1
    16    7    8 ar
    17    7   36 1
    18    8   16 1
    19    8    9 ar
    20    9   10 ar
    21    9   12 1
    22   10   11 1
    23   11   37 1
    24   12   13 2
    25   12   14 1
    26   14   20 ar
    27   14   15 ar
    28   15   16 1
    29   15   17 ar
    30   17   18 ar
    31   17   38 1
    32   18   19 ar
    33   18   27 1
    34   19   20 ar
    35   19   26 1
    36   20   21 1
    37   21   22 1
    38   21   39 1
    39   21   40 1
    40   22   23 2
    41   22   41 1
    42   23   24 1
    43   23   25 1
    44   24   42 1
    45   24   43 1
    46   24   44 1
    47   25   45 1
    48   25   46 1
    49   25   47 1
    50   26   48 1
    51   27   49 1
    52   28   50 1
    53   29   51 1
    54   29   52 1
    55   29   53 1
@<TRIPOS>MOLECULE
ZINC05195818
   52    54     0     0     0
SMALL
USER_CHARGES

@<TRIPOS>ATOM
      1 C1         -0.8001    1.0338   -0.2881 C.3       1 <0>        -0.1180
      2 C2         -0.7065   -0.4686   -0.2173 C.2       1 <0>        -0.1428
      3 C3         -0.4244   -1.0545    0.9199 C.2       1 <0>        -0.1489
      4 C4         -0.3109   -0.2370    2.1808 C.3       1 <0>        -0.0380
      5 C5         -1.2269   -0.8070    3.2330 C.ar      1 <0>        -0.1827
      6 C6         -2.5400   -0.3554    3.3283 C.ar      1 <0>         0.1872
      7 C7         -3.3964   -0.8690    4.2905 C.ar      1 <0>        -0.1952
      8 C8         -2.9518   -1.8420    5.1717 C.ar      1 <0>         0.1931
      9 C9         -1.6232   -2.3040    5.0804 C.ar      1 <0>        -0.2271
     10 C10        -0.7630   -1.7793    4.0956 C.ar      1 <0>         0.2240
     11 O1          0.5149   -2.2234    3.9992 O.3       1 <0>        -0.4627
     12 C11        -1.1667   -3.2971    5.9789 C.2       1 <0>         0.3783
     13 C12        -2.0694   -3.7921    6.9428 C.2       1 <0>        -0.3009
     14 C13        -1.6617   -4.7809    7.8600 C.2       1 <0>         0.0111
     15 C14        -2.5392   -5.2517    8.7862 C.2       1 <0>        -0.0211
     16 C15        -3.8597   -4.7522    8.8322 C.2       1 <0>         0.3035
     17 O2         -4.7142   -5.2184    9.7428 O.2       1 <0>        -0.6636
     18 C16        -4.2739   -3.7712    7.9274 C.2       1 <0>        -0.3005
     19 C17        -3.3888   -3.2874    6.9824 C.2       1 <0>         0.1905
     20 O3         -3.7878   -2.3391    6.1078 O.3       1 <0>        -0.2256
     21 O4         -2.1441   -6.2069    9.6709 O.3       1 <0>        -0.4831
     22 C18        -0.2541   -5.3171    7.8143 C.3       1 <0>        -0.0611
     23 C19         0.6605   -4.3928    8.5761 C.2       1 <0>        -0.0927
     24 C20         1.4378   -4.8692    9.5168 C.2       1 <0>        -0.1774
     25 C21         1.5495   -6.3583    9.7196 C.3       1 <0>        -0.1127
     26 C22         2.2204   -3.9282   10.3961 C.3       1 <0>        -0.1040
     27 O5          0.0986   -3.7587    5.9149 O.3       1 <0>        -0.5481
     28 O6         -2.9864    0.5972    2.4714 O.3       1 <0>        -0.4876
     29 C23        -0.9376   -1.2970   -1.4548 C.3       1 <0>        -0.1158
     30 H1          0.1233    1.4735    0.0889 H         1 <0>         0.0633
     31 H2         -0.9523    1.3401   -1.3230 H         1 <0>         0.0567
     32 H3         -1.6390    1.3746    0.3188 H         1 <0>         0.0710
     33 H4         -0.2730   -2.1233    0.9537 H         1 <0>         0.1095
     34 H5          0.7176   -0.2650    2.5407 H         1 <0>         0.0798
     35 H6         -0.5948    0.7944    1.9720 H         1 <0>         0.0857
     36 H7         -4.4128   -0.5094    4.3537 H         1 <0>         0.1460
     37 H8          1.1458   -1.7258    4.5372 H         1 <0>         0.3950
     38 H9         -5.2844   -3.3920    7.9659 H         1 <0>         0.1222
     39 H10        -2.8350   -6.4791   10.2904 H         1 <0>         0.3894
     40 H11        -0.2279   -6.3083    8.2669 H         1 <0>         0.0722
     41 H12         0.0765   -5.3821    6.7777 H         1 <0>         0.1135
     42 H13         0.6750   -3.3375    8.3465 H         1 <0>         0.0987
     43 H14         0.9966   -6.8744    8.9347 H         1 <0>         0.0705
     44 H15         2.5982   -6.6529    9.6791 H         1 <0>         0.0509
     45 H16         1.1345   -6.6248   10.6916 H         1 <0>         0.0553
     46 H17         1.6252   -3.6697   11.2719 H         1 <0>         0.0576
     47 H18         3.1440   -4.4118   10.7143 H         1 <0>         0.0516
     48 H19         2.4580   -3.0225    9.8381 H         1 <0>         0.0539
     49 H20        -3.3730    0.2446    1.6582 H         1 <0>         0.3942
     50 H21        -1.1580   -0.6399   -2.2961 H         1 <0>         0.0591
     51 H22        -0.0432   -1.8802   -1.6739 H         1 <0>         0.0626
     52 H23        -1.7788   -1.9702   -1.2895 H         1 <0>         0.0635
@<TRIPOS>BOND
     1    1    2 1
     2    1   30 1
     3    1   31 1
     4    1   32 1
     5    2    3 2
     6    2   29 1
     7    3    4 1
     8    3   33 1
     9    4    5 1
    10    4   34 1
    11    4   35 1
    12    5   10 ar
    13    5    6 ar
    14    6    7 ar
    15    6   28 1
    16    7    8 ar
    17    7   36 1
    18    8   20 1
    19    8    9 ar
    20    9   10 ar
    21    9   12 1
    22   10   11 1
    23   11   37 1
    24   12   13 2
    25   12   27 1
    26   13   19 1
    27   13   14 1
    28   14   15 2
    29   14   22 1
    30   15   16 1
    31   15   21 1
    32   16   17 2
    33   16   18 1
    34   18   19 2
    35   18   38 1
    36   19   20 1
    37   21   39 1
    38   22   23 1
    39   22   40 1
    40   22   41 1
    41   23   24 2
    42   23   42 1
    43   24   25 1
    44   24   26 1
    45   25   43 1
    46   25   44 1
    47   25   45 1
    48   26   46 1
    49   26   47 1
    50   26   48 1
    51   28   49 1
    52   29   50 1
    53   29   51 1
    54   29   52 1
@<TRIPOS>MOLECULE
ZINC01764952
   26    28     0     0     0
SMALL
USER_CHARGES
2-(2,4-dioxo-1H-pyrimidin-5-yl)isoindoline-1,3-dione
@<TRIPOS>ATOM
      1 C1          5.9052    6.7190   -0.0754 C.ar      1 <0>        -0.0941
      2 C2          6.6228    5.5426    0.0325 C.ar      1 <0>        -0.0908
      3 C3          5.9672    4.3226    0.0930 C.ar      1 <0>        -0.0421
      4 C4          4.5831    4.2836    0.0449 C.ar      1 <0>        -0.1327
      5 C5          3.8513    5.4834   -0.0651 C.ar      1 <0>        -0.1389
      6 C6          4.5200    6.6954   -0.1239 C.ar      1 <0>        -0.0401
      7 C7          2.4272    5.0876   -0.0900 C.2       1 <0>         0.5773
      8 O1          1.4822    5.8455   -0.1778 O.2       1 <0>        -0.4543
      9 N1          2.3531    3.7474    0.0002 N.am      1 <0>        -0.5030
     10 C8          3.5786    3.1998    0.0885 C.2       1 <0>         0.5780
     11 O2          3.8196    2.0133    0.1851 O.2       1 <0>        -0.4402
     12 C9          1.1507    3.0148    0.0073 C.2       1 <0>        -0.0588
     13 C10         0.3281    3.0342   -1.0678 C.2       1 <0>         0.2115
     14 N2         -0.8384    2.3133   -1.0412 N.am      1 <0>        -0.6295
     15 H1         -1.4450    2.3235   -1.8361 H         1 <0>         0.4535
     16 C11        -1.1744    1.5927    0.0439 C.2       1 <0>         0.6999
     17 O3         -2.2161    0.9654    0.0466 O.2       1 <0>        -0.5263
     18 N3         -0.3732    1.5506    1.1243 N.am      1 <0>        -0.6534
     19 H2         -0.6368    1.0023    1.9179 H         1 <0>         0.4464
     20 C12         0.7831    2.2439    1.1423 C.2       1 <0>         0.5590
     21 O4          1.5056    2.2091    2.1220 O.2       1 <0>        -0.4903
     22 H3          6.4274    7.6633   -0.1220 H         1 <0>         0.1454
     23 H4          7.7017    5.5740    0.0696 H         1 <0>         0.1455
     24 H5          6.5329    3.4065    0.1769 H         1 <0>         0.1451
     25 H6          3.9645    7.6177   -0.2082 H         1 <0>         0.1450
     26 H7          0.5886    3.6141   -1.9408 H         1 <0>         0.1881
@<TRIPOS>BOND
     1    1    6 ar
     2    1    2 ar
     3    1   22 1
     4    2    3 ar
     5    2   23 1
     6    3    4 ar
     7    3   24 1
     8    4   10 1
     9    4    5 ar
    10    5    6 ar
    11    5    7 1
    12    6   25 1
    13    7    8 2
    14    7    9 am
    15    9   10 am
    16    9   12 1
    17   10   11 2
    18   12   20 1
    19   12   13 2
    20   13   14 1
    21   13   26 1
    22   14   15 1
    23   14   16 am
    24   16   17 2
    25   16   18 am
    26   18   19 1
    27   18   20 am
    28   20   21 2
@<TRIPOS>MOLECULE
ZINC01410328
   30    32     0     0     0
SMALL
USER_CHARGES
2-[(3S)-2-oxo-3-piperidyl]isoindoline-1,3-dione
@<TRIPOS>ATOM
      1 C1          0.6111    6.0496    0.0260 C.ar      1 <0>        -0.0938
      2 C2         -0.7710    6.0308    0.0391 C.ar      1 <0>        -0.0938
      3 C3         -1.4573    4.8265    0.0396 C.ar      1 <0>        -0.0432
      4 C4         -0.7520    3.6339    0.0273 C.ar      1 <0>        -0.1384
      5 C5          0.6572    3.6531    0.0145 C.ar      1 <0>        -0.1379
      6 C6          1.3299    4.8645    0.0142 C.ar      1 <0>        -0.0425
      7 C7          1.0809    2.2370    0.0038 C.2       1 <0>         0.5808
      8 O1          2.2288    1.8406   -0.0083 O.2       1 <0>        -0.4578
      9 N1         -0.0178    1.4608    0.0101 N.am      1 <0>        -0.5626
     10 C8         -1.1372    2.2068    0.0189 C.2       1 <0>         0.5780
     11 O2         -2.2739    1.7793    0.0222 O.2       1 <0>        -0.4564
     12 C9          0.0021   -0.0041    0.0020 C.3       1 <0>         0.1318
     13 H1          1.0349   -0.3521   -0.0128 H         1 <0>         0.1398
     14 C10        -0.6915   -0.5289    1.2616 C.3       1 <0>        -0.1396
     15 C11        -0.9044   -2.0395    1.1036 C.3       1 <0>        -0.1326
     16 C12        -1.9274   -2.2758   -0.0081 C.3       1 <0>         0.1047
     17 N2         -1.5558   -1.5377   -1.2087 N.am      1 <0>        -0.7087
     18 C13        -0.7110   -0.5059   -1.2207 C.2       1 <0>         0.5148
     19 O3         -0.5080    0.0575   -2.2753 O.2       1 <0>        -0.5386
     20 H2          1.1346    6.9943    0.0255 H         1 <0>         0.1448
     21 H3         -1.3199    6.9609    0.0486 H         1 <0>         0.1446
     22 H4         -2.5373    4.8179    0.0491 H         1 <0>         0.1435
     23 H5          2.4097    4.8852    0.0047 H         1 <0>         0.1445
     24 H6         -0.0654   -0.3357    2.1327 H         1 <0>         0.0879
     25 H7         -1.6544   -0.0331    1.3839 H         1 <0>         0.0898
     26 H8         -1.2781   -2.4559    2.0391 H         1 <0>         0.0977
     27 H9          0.0386   -2.5189    0.8409 H         1 <0>         0.0794
     28 H10        -2.9093   -1.9440    0.3294 H         1 <0>         0.0733
     29 H11        -1.9698   -3.3404   -0.2384 H         1 <0>         0.0849
     30 H12        -1.9473   -1.8144   -2.0519 H         1 <0>         0.4058
@<TRIPOS>BOND
     1    1    6 ar
     2    1    2 ar
     3    1   20 1
     4    2    3 ar
     5    2   21 1
     6    3    4 ar
     7    3   22 1
     8    4   10 1
     9    4    5 ar
    10    5    6 ar
    11    5    7 1
    12    6   23 1
    13    7    8 2
    14    7    9 am
    15    9   10 am
    16    9   12 1
    17   10   11 2
    18   12   13 1
    19   12   18 1
    20   12   14 1
    21   14   15 1
    22   14   24 1
    23   14   25 1
    24   15   16 1
    25   15   26 1
    26   15   27 1
    27   16   17 1
    28   16   28 1
    29   16   29 1
    30   17   18 am
    31   17   30 1
    32   18   19 2
@<TRIPOS>MOLECULE
ZINC01410329
   30    32     0     0     0
SMALL
USER_CHARGES
2-[(3R)-2-oxo-3-piperidyl]isoindoline-1,3-dione
@<TRIPOS>ATOM
      1 C1         -3.4874    2.8517    0.0485 C.ar      1 <0>        -0.0937
      2 C2         -3.0362    4.1582    0.0509 C.ar      1 <0>        -0.0938
      3 C3         -1.6775    4.4325    0.0401 C.ar      1 <0>        -0.0431
      4 C4         -0.7661    3.3889    0.0267 C.ar      1 <0>        -0.1385
      5 C5         -1.2262    2.0566    0.0184 C.ar      1 <0>        -0.1378
      6 C6         -2.5873    1.7976    0.0357 C.ar      1 <0>        -0.0426
      7 C7         -0.0144    1.2103    0.0087 C.2       1 <0>         0.5807
      8 O1          0.0021   -0.0041    0.0020 O.2       1 <0>        -0.4577
      9 N1          1.0671    2.0103    0.0027 N.am      1 <0>        -0.5625
     10 C8          0.7097    3.3071    0.0126 C.2       1 <0>         0.5780
     11 O2          1.4720    4.2525    0.0096 O.2       1 <0>        -0.4566
     12 C9          2.4518    1.5321   -0.0122 C.3       1 <0>         0.1319
     13 H1          2.4585    0.4421   -0.0144 H         1 <0>         0.1398
     14 C10         3.1794    2.0425    1.2340 C.3       1 <0>        -0.1401
     15 C11         4.6789    1.7695    1.0656 C.3       1 <0>        -0.1325
     16 C12         5.2136    2.6519   -0.0630 C.3       1 <0>         0.1049
     17 N2          4.3850    2.5144   -1.2542 N.am      1 <0>        -0.7087
     18 C13         3.1403    2.0359   -1.2481 C.2       1 <0>         0.5145
     19 O3          2.5317    2.0060   -2.2968 O.2       1 <0>        -0.5387
     20 H2         -4.5485    2.6507    0.0571 H         1 <0>         0.1449
     21 H3         -3.7472    4.9711    0.0617 H         1 <0>         0.1446
     22 H4         -1.3308    5.4553    0.0417 H         1 <0>         0.1435
     23 H5         -2.9455    0.7787    0.0339 H         1 <0>         0.1445
     24 H6          3.0116    3.1139    1.3439 H         1 <0>         0.0901
     25 H7          2.8076    1.5205    2.1157 H         1 <0>         0.0879
     26 H8          5.2002    2.0063    1.9932 H         1 <0>         0.0977
     27 H9          4.8338    0.7196    0.8169 H         1 <0>         0.0793
     28 H10         5.2094    3.6927    0.2606 H         1 <0>         0.0734
     29 H11         6.2356    2.3553   -0.2989 H         1 <0>         0.0849
     30 H12         4.7627    2.7880   -2.1048 H         1 <0>         0.4058
@<TRIPOS>BOND
     1    1    6 ar
     2    1    2 ar
     3    1   20 1
     4    2    3 ar
     5    2   21 1
     6    3    4 ar
     7    3   22 1
     8    4   10 1
     9    4    5 ar
    10    5    6 ar
    11    5    7 1
    12    6   23 1
    13    7    8 2
    14    7    9 am
    15    9   10 am
    16    9   12 1
    17   10   11 2
    18   12   13 1
    19   12   18 1
    20   12   14 1
    21   14   15 1
    22   14   24 1
    23   14   25 1
    24   15   16 1
    25   15   26 1
    26   15   27 1
    27   16   17 1
    28   16   28 1
    29   16   29 1
    30   17   18 am
    31   17   30 1
    32   18   19 2
@<TRIPOS>MOLECULE
ZINC00231911
   35    36     0     0     0
SMALL
USER_CHARGES

@<TRIPOS>ATOM
      1 C1         -0.0173    1.4248    0.0099 C.3       1 <0>         0.0216
      2 O1          0.0021   -0.0041    0.0020 O.3       1 <0>        -0.3032
      3 C2         -1.1998   -0.6372    0.0101 C.ar      1 <0>         0.1325
      4 C3         -2.3730    0.1049    0.0196 C.ar      1 <0>        -0.2077
      5 C4         -3.5950   -0.5316    0.0282 C.ar      1 <0>        -0.0278
      6 C5         -3.6551   -1.9292    0.0270 C.ar      1 <0>        -0.1159
      7 C6         -2.4723   -2.6764    0.0170 C.ar      1 <0>        -0.0664
      8 C7         -1.2516   -2.0303    0.0031 C.ar      1 <0>         0.0665
      9 O2         -0.0998   -2.7533   -0.0118 O.3       1 <0>        -0.4828
     10 C8         -4.9583   -2.6113    0.0368 C.2       1 <0>         0.2332
     11 N1         -6.0593   -1.9133    0.0465 N.2       1 <0>        -0.4973
     12 C9         -7.2718   -2.5480    0.0556 C.ar      1 <0>         0.1502
     13 C10        -7.5023   -3.6325   -0.7937 C.ar      1 <0>        -0.1777
     14 C11        -8.7268   -4.2674   -0.7794 C.ar      1 <0>        -0.0024
     15 C12        -9.7256   -3.8320    0.0735 C.ar      1 <0>        -0.6908
     16 C13        -9.5041   -2.7582    0.9176 C.ar      1 <0>        -0.0012
     17 C14        -8.2824   -2.1178    0.9183 C.ar      1 <0>        -0.1297
     18 S1        -11.2870   -4.6483    0.0843 S.o2      1 <0>         2.7033
     19 O3        -12.2327   -3.7095    0.5779 O.2       1 <0>        -0.9618
     20 O4        -11.4263   -5.2753   -1.1833 O.2       1 <0>        -0.9604
     21 N2        -11.1966   -5.8633    1.2059 N.pl3     1 <0>        -1.2481
     22 H1          1.0053    1.8021    0.0021 H         1 <0>         0.1053
     23 H2         -0.5445    1.7859   -0.8732 H         1 <0>         0.0599
     24 H3         -0.5275    1.7763    0.9067 H         1 <0>         0.0595
     25 H4         -2.3278    1.1840    0.0205 H         1 <0>         0.1395
     26 H5         -4.5061    0.0483    0.0363 H         1 <0>         0.1430
     27 H6         -2.5137   -3.7556    0.0161 H         1 <0>         0.1450
     28 H7          0.2417   -2.9672    0.8673 H         1 <0>         0.3892
     29 H8         -5.0030   -3.6904    0.0359 H         1 <0>         0.1156
     30 H9         -6.7239   -3.9730   -1.4604 H         1 <0>         0.1348
     31 H10        -8.9065   -5.1062   -1.4356 H         1 <0>         0.1460
     32 H11       -10.2883   -2.4233    1.5805 H         1 <0>         0.1482
     33 H12        -8.1094   -1.2826    1.5808 H         1 <0>         0.1406
     34 H13       -11.9933   -6.1427    1.6835 H         1 <0>         0.4222
     35 H14       -10.3470   -6.2955    1.3852 H         1 <0>         0.4169
@<TRIPOS>BOND
     1    1    2 1
     2    1   22 1
     3    1   23 1
     4    1   24 1
     5    2    3 1
     6    3    8 ar
     7    3    4 ar
     8    4    5 ar
     9    4   25 1
    10    5    6 ar
    11    5   26 1
    12    6    7 ar
    13    6   10 1
    14    7    8 ar
    15    7   27 1
    16    8    9 1
    17    9   28 1
    18   10   11 2
    19   10   29 1
    20   11   12 1
    21   12   17 ar
    22   12   13 ar
    23   13   14 ar
    24   13   30 1
    25   14   15 ar
    26   14   31 1
    27   15   16 ar
    28   15   18 1
    29   16   17 ar
    30   16   32 1
    31   17   33 1
    32   18   19 2
    33   18   20 2
    34   18   21 1
    35   21   34 1
    36   21   35 1
@<TRIPOS>MOLECULE
ZINC29134496
   40    42     0     0     0
SMALL
USER_CHARGES
(3aS,6S,7R,8S,8aR)-8-hydroxy-6,8-dimethyl-3-methylene-spiro[4,5,6,8a-tetrahydro-3aH-cyclohepta[b]furan-7,5'-tetrahydrofuran]-2,2'-dione
@<TRIPOS>ATOM
      1 C1         -5.0567    1.7751   -2.7506 C.3       1 <0>        -0.1487
      2 C2         -5.2432    0.7027   -1.6814 C.3       1 <0>        -0.0887
      3 H1         -6.1065    0.0621   -1.9145 H         1 <0>         0.0817
      4 C3         -4.0802   -0.1867   -1.6927 C.3       1 <0>        -0.1117
      5 C4         -2.7618    0.4379   -1.3271 C.3       1 <0>        -0.1248
      6 C5         -2.5754    0.9694    0.0195 C.3       1 <0>        -0.0810
      7 H2         -2.8389    0.0553    0.5718 H         1 <0>         0.1270
      8 C6         -3.3873    2.1484    0.5209 C.3       1 <0>         0.0894
      9 H3         -3.3990    2.0679    1.6179 H         1 <0>         0.1110
     10 C7         -4.8822    2.2363    0.2918 C.3       1 <0>         0.1513
     11 C8         -5.6501    1.2192   -0.3464 C.3       1 <0>         0.1309
     12 C9         -7.1839    1.5236   -0.4323 C.3       1 <0>        -0.1663
     13 C10        -7.8058    0.8908    0.7825 C.3       1 <0>        -0.1594
     14 C11        -6.8232   -0.2056    1.1621 C.2       1 <0>         0.4605
     15 O1         -6.9783   -1.2126    1.9290 O.2       1 <0>        -0.4861
     16 O2         -5.6282    0.0105    0.5932 O.3       1 <0>        -0.3342
     17 C12        -5.1229    3.6461   -0.2396 C.3       1 <0>        -0.1795
     18 O3         -5.3919    2.2917    1.6633 O.3       1 <0>        -0.5929
     19 O4         -2.6928    3.3185    0.1747 O.3       1 <0>        -0.2664
     20 C13        -1.4505    3.0908    0.0058 C.2       1 <0>         0.5065
     21 O5         -0.5225    4.0043   -0.1060 O.2       1 <0>        -0.5113
     22 C14        -1.1727    1.7248    0.0170 C.2       1 <0>        -0.2458
     23 C15        -0.0126    1.0758    0.0080 C.2       1 <0>        -0.0271
     24 H4         -4.7581    1.3010   -3.6972 H         1 <0>         0.0748
     25 H5         -4.2749    2.4797   -2.4307 H         1 <0>         0.0663
     26 H6         -6.0027    2.3177   -2.8946 H         1 <0>         0.0633
     27 H7         -4.2374   -1.0049   -0.9745 H         1 <0>         0.0755
     28 H8         -3.9480   -0.6047   -2.7016 H         1 <0>         0.0822
     29 H9         -1.9594   -0.3058   -1.4417 H         1 <0>         0.0808
     30 H10        -2.5655    1.2941   -1.9893 H         1 <0>         0.0569
     31 H11        -7.3420    2.6122   -0.4363 H         1 <0>         0.1117
     32 H12        -7.5925    1.0904   -1.3572 H         1 <0>         0.1084
     33 H13        -7.9135    1.6462    1.5749 H         1 <0>         0.1230
     34 H14        -8.7962    0.4901    0.5208 H         1 <0>         0.1282
     35 H15        -6.1968    3.7871   -0.4318 H         1 <0>         0.0690
     36 H16        -4.5615    3.7861   -1.1751 H         1 <0>         0.0795
     37 H17        -4.7840    4.3814    0.5050 H         1 <0>         0.0907
     38 H18        -6.4745    2.3615    1.8453 H         1 <0>         0.3930
     39 H19         0.9325    1.6386    0.0066 H         1 <0>         0.1302
     40 H20         0.0023   -0.0241    0.0019 H         1 <0>         0.1321
@<TRIPOS>BOND
     1    1    2 1
     2    1   24 1
     3    1   25 1
     4    1   26 1
     5    2    3 1
     6    2   11 1
     7    2    4 1
     8    4    5 1
     9    4   27 1
    10    4   28 1
    11    5    6 1
    12    5   29 1
    13    5   30 1
    14    6    7 1
    15    6   22 1
    16    6    8 1
    17    8    9 1
    18    8   10 1
    19    8   19 1
    20   10   11 1
    21   10   17 1
    22   10   18 1
    23   11   16 1
    24   11   12 1
    25   12   13 1
    26   12   31 1
    27   12   32 1
    28   13   14 1
    29   13   33 1
    30   13   34 1
    31   14   15 2
    32   14   16 1
    33   17   35 1
    34   17   36 1
    35   17   37 1
    36   18   38 1
    37   19   20 1
    38   20   21 2
    39   20   22 1
    40   22   23 2
    41   23   39 1
    42   23   40 1
@<TRIPOS>MOLECULE
ZINC00288493
   31    32     0     0     0
SMALL
USER_CHARGES

@<TRIPOS>ATOM
      1 C1         -0.0167    1.3785    0.0096 C.ar      1 <0>        -0.1122
      2 C2          1.1657    2.0892    0.0021 C.ar      1 <0>        -0.0736
      3 C3          2.3876    1.4105   -0.0131 C.ar      1 <0>        -0.0742
      4 C4          2.4039    0.0131   -0.0207 C.ar      1 <0>        -0.1082
      5 C5          1.2108   -0.6881   -0.0131 C.ar      1 <0>         0.0983
      6 C6          0.0021   -0.0041    0.0020 C.ar      1 <0>        -0.1188
      7 O1          1.2219   -2.0471   -0.0209 O.3       1 <0>        -0.4966
      8 C7          3.6525    2.1648   -0.0216 C.2       1 <0>         0.2256
      9 N1          3.6342    3.4673   -0.0149 N.2       1 <0>        -0.4892
     10 C8          4.8095    4.1682   -0.0228 C.ar      1 <0>         0.1467
     11 C9          5.8598    3.7863    0.8149 C.ar      1 <0>        -0.1761
     12 C10         7.0418    4.4971    0.8014 C.ar      1 <0>        -0.0028
     13 C11         7.1883    5.5864   -0.0392 C.ar      1 <0>        -0.6893
     14 C12         6.1520    5.9704   -0.8718 C.ar      1 <0>        -0.0013
     15 C13         4.9664    5.2653   -0.8729 C.ar      1 <0>        -0.1277
     16 S1          8.7014    6.4893   -0.0490 S.o2      1 <0>         2.7035
     17 O2          8.3937    7.7925   -0.5246 O.2       1 <0>        -0.9612
     18 O3          9.3168    6.2641    1.2119 O.2       1 <0>        -0.9601
     19 N2          9.6816    5.7898   -1.1858 N.pl3     1 <0>        -1.2480
     20 H1         -0.9602    1.9038    0.0260 H         1 <0>         0.1343
     21 H2          1.1473    3.1690    0.0077 H         1 <0>         0.1396
     22 H3          3.3444   -0.5177   -0.0329 H         1 <0>         0.1367
     23 H4         -0.9271   -0.5544    0.0083 H         1 <0>         0.1338
     24 H5          1.2337   -2.4454    0.8602 H         1 <0>         0.3936
     25 H6          4.5953    1.6381   -0.0334 H         1 <0>         0.1162
     26 H7          5.7466    2.9368    1.4720 H         1 <0>         0.1348
     27 H8          7.8548    4.2030    1.4487 H         1 <0>         0.1465
     28 H9          6.2731    6.8216   -1.5254 H         1 <0>         0.1490
     29 H10         4.1599    5.5635   -1.5263 H         1 <0>         0.1414
     30 H11        10.3337    6.3279   -1.6612 H         1 <0>         0.4224
     31 H12         9.6037    4.8418   -1.3762 H         1 <0>         0.4170
@<TRIPOS>BOND
     1    1    6 ar
     2    1    2 ar
     3    1   20 1
     4    2    3 ar
     5    2   21 1
     6    3    4 ar
     7    3    8 1
     8    4    5 ar
     9    4   22 1
    10    5    6 ar
    11    5    7 1
    12    6   23 1
    13    7   24 1
    14    8    9 2
    15    8   25 1
    16    9   10 1
    17   10   15 ar
    18   10   11 ar
    19   11   12 ar
    20   11   26 1
    21   12   13 ar
    22   12   27 1
    23   13   14 ar
    24   13   16 1
    25   14   15 ar
    26   14   28 1
    27   15   29 1
    28   16   17 2
    29   16   18 2
    30   16   19 1
    31   19   30 1
    32   19   31 1
