@<TRIPOS>MOLECULE
ZINC02570895
   40    42     0     0     0
SMALL
USER_CHARGES

@<TRIPOS>ATOM
      1 C1          0.0405    1.5033    0.0105 C.3       1 <0>        -0.1224
      2 C2          0.0481   -0.0036    0.0022 C.ar      1 <0>        -0.0617
      3 C3         -0.4654   -0.6891   -1.0843 C.ar      1 <0>        -0.1180
      4 C4         -0.4609   -2.0687   -1.0981 C.ar      1 <0>        -0.0762
      5 C5          0.0630   -2.7726   -0.0133 C.ar      1 <0>        -0.0606
      6 C6          0.5793   -2.0754    1.0794 C.ar      1 <0>        -0.0985
      7 C7          0.5738   -0.6957    1.0787 C.ar      1 <0>        -0.1165
      8 C8          0.0704   -4.2518   -0.0214 C.2       1 <0>         0.1497
      9 C9          0.0778   -5.0559   -1.1264 C.2       1 <0>        -0.2047
     10 C10         0.0841   -6.3814   -0.6911 C.2       1 <0>        -0.0034
     11 N1          0.0806   -6.3920    0.6183 N.2       1 <0>        -0.2184
     12 N2          0.0772   -5.0674    1.0740 N.pl3     1 <0>        -0.3181
     13 C11         0.0780   -4.6538    2.4124 C.ar      1 <0>         0.1993
     14 C12        -0.7877   -3.6523    2.8316 C.ar      1 <0>        -0.1310
     15 C13        -0.7845   -3.2467    4.1518 C.ar      1 <0>        -0.0008
     16 C14         0.0799   -3.8365    5.0557 C.ar      1 <0>        -0.6729
     17 C15         0.9432   -4.8341    4.6414 C.ar      1 <0>         0.0013
     18 C16         0.9405   -5.2485    3.3238 C.ar      1 <0>        -0.1237
     19 S1          0.0817   -3.3155    6.7389 S.o2      1 <0>         2.7035
     20 O1          1.3615   -3.6412    7.2635 O.2       1 <0>        -0.9570
     21 O2         -0.4336   -1.9913    6.7547 O.2       1 <0>        -0.9571
     22 N3         -1.0144   -4.2595    7.5449 N.pl3     1 <0>        -1.2487
     23 C17         0.0927   -7.5984   -1.5799 C.3       1 <0>         0.5581
     24 F1          1.4144   -7.9678   -1.8518 F         1 <0>        -0.1637
     25 F2         -0.5625   -8.6523   -0.9339 F         1 <0>        -0.1639
     26 F3         -0.5656   -7.3049   -2.7789 F         1 <0>        -0.1610
     27 H1          0.9639    1.8738   -0.4347 H         1 <0>         0.0767
     28 H2         -0.8113    1.8655   -0.5652 H         1 <0>         0.0714
     29 H3         -0.0366    1.8607    1.0374 H         1 <0>         0.0715
     30 H4         -0.8709   -0.1431   -1.9232 H         1 <0>         0.1331
     31 H5         -0.8624   -2.6027   -1.9467 H         1 <0>         0.1336
     32 H6          0.9862   -2.6145    1.9221 H         1 <0>         0.1246
     33 H7          0.9772   -0.1548    1.9220 H         1 <0>         0.1315
     34 H8          0.0784   -4.7241   -2.1542 H         1 <0>         0.1732
     35 H9         -1.4626   -3.1908    2.1259 H         1 <0>         0.1459
     36 H10        -1.4576   -2.4679    4.4785 H         1 <0>         0.1580
     37 H11         1.6174   -5.2926    5.3496 H         1 <0>         0.1579
     38 H12         1.6117   -6.0309    3.0018 H         1 <0>         0.1479
     39 H13        -1.5085   -4.9443    7.0675 H         1 <0>         0.4179
     40 H14        -1.1624   -4.1277    8.4945 H         1 <0>         0.4235
@<TRIPOS>BOND
     1    1    2 1
     2    1   27 1
     3    1   28 1
     4    1   29 1
     5    2    7 ar
     6    2    3 ar
     7    3    4 ar
     8    3   30 1
     9    4    5 ar
    10    4   31 1
    11    5    6 ar
    12    5    8 1
    13    6    7 ar
    14    6   32 1
    15    7   33 1
    16    8   12 1
    17    8    9 2
    18    9   10 1
    19    9   34 1
    20   10   11 2
    21   10   23 1
    22   11   12 1
    23   12   13 1
    24   13   18 ar
    25   13   14 ar
    26   14   15 ar
    27   14   35 1
    28   15   16 ar
    29   15   36 1
    30   16   17 ar
    31   16   19 1
    32   17   18 ar
    33   17   37 1
    34   18   38 1
    35   19   20 2
    36   19   21 2
    37   19   22 1
    38   22   39 1
    39   22   40 1
    40   23   24 1
    41   23   25 1
    42   23   26 1
@<TRIPOS>MOLECULE
ZINC00007455
   36    38     0     0     0
SMALL
USER_CHARGES

@<TRIPOS>ATOM
      1 C1         -0.0225    1.8097    0.0120 C.3       1 <0>        -0.6496
      2 S1          0.0021   -0.0041    0.0020 S.o2      1 <0>         2.4981
      3 O1          0.8352   -0.4880    1.0465 O.2       1 <0>        -0.9340
      4 O2         -1.3147   -0.5105   -0.1678 O.2       1 <0>        -0.9341
      5 C2          0.8454   -0.4373   -1.4831 C.ar      1 <0>        -0.6507
      6 C3          0.1298   -0.6119   -2.6551 C.ar      1 <0>        -0.0202
      7 C4          0.7818   -0.9504   -3.8215 C.ar      1 <0>        -0.1172
      8 C5          2.1716   -1.1177   -3.8185 C.ar      1 <0>         0.0092
      9 C6          2.8876   -0.9392   -2.6290 C.ar      1 <0>        -0.1081
     10 C7          2.2206   -0.5956   -1.4726 C.ar      1 <0>        -0.0190
     11 C8          2.8747   -1.4788   -5.0567 C.2       1 <0>        -0.0568
     12 C9          3.7864   -0.7210   -5.7283 C.2       1 <0>        -0.1387
     13 C10         4.2326   -1.4690   -6.9092 C.2       1 <0>         0.5050
     14 O3          5.0462   -1.0718   -7.7204 O.2       1 <0>        -0.4360
     15 O4          3.6087   -2.6593   -6.9612 O.3       1 <0>        -0.3106
     16 C11         2.7349   -2.7668   -5.8340 C.3       1 <0>         0.0732
     17 C12         4.2486    0.6295   -5.3334 C.ar      1 <0>        -0.0365
     18 C13         3.3544    1.7001   -5.3220 C.ar      1 <0>        -0.0956
     19 C14         3.7910    2.9559   -4.9532 C.ar      1 <0>        -0.1186
     20 C15         5.1127    3.1546   -4.5957 C.ar      1 <0>        -0.1084
     21 C16         6.0044    2.0969   -4.6056 C.ar      1 <0>        -0.1162
     22 C17         5.5784    0.8350   -4.9660 C.ar      1 <0>        -0.0916
     23 H1          1.0001    2.1870    0.0043 H         1 <0>         0.1324
     24 H2         -0.5497    2.1708   -0.8711 H         1 <0>         0.1323
     25 H3         -0.5327    2.1613    0.9088 H         1 <0>         0.1353
     26 H4         -0.9425   -0.4828   -2.6556 H         1 <0>         0.1495
     27 H5          0.2220   -1.0866   -4.7350 H         1 <0>         0.1396
     28 H6          3.9600   -1.0668   -2.6182 H         1 <0>         0.1374
     29 H7          2.7720   -0.4536   -0.5549 H         1 <0>         0.1489
     30 H8          3.0268   -3.6125   -5.2113 H         1 <0>         0.1274
     31 H9          1.7060   -2.8891   -6.1723 H         1 <0>         0.1261
     32 H10         2.3226    1.5463   -5.6015 H         1 <0>         0.1218
     33 H11         3.0997    3.7856   -4.9439 H         1 <0>         0.1270
     34 H12         5.4498    4.1395   -4.3082 H         1 <0>         0.1262
     35 H13         7.0351    2.2584   -4.3262 H         1 <0>         0.1285
     36 H14         6.2742    0.0090   -4.9684 H         1 <0>         0.1241
@<TRIPOS>BOND
     1    1    2 1
     2    1   23 1
     3    1   24 1
     4    1   25 1
     5    2    3 2
     6    2    4 2
     7    2    5 1
     8    5   10 ar
     9    5    6 ar
    10    6    7 ar
    11    6   26 1
    12    7    8 ar
    13    7   27 1
    14    8    9 ar
    15    8   11 1
    16    9   10 ar
    17    9   28 1
    18   10   29 1
    19   11   16 1
    20   11   12 2
    21   12   13 1
    22   12   17 1
    23   13   14 2
    24   13   15 1
    25   15   16 1
    26   16   30 1
    27   16   31 1
    28   17   22 ar
    29   17   18 ar
    30   18   19 ar
    31   18   32 1
    32   19   20 ar
    33   19   33 1
    34   20   21 ar
    35   20   34 1
    36   21   22 ar
    37   21   35 1
    38   22   36 1
@<TRIPOS>MOLECULE
ZINC05481517
   46    47     0     0     0
SMALL
USER_CHARGES

@<TRIPOS>ATOM
      1 C1         -0.0187    1.5258    0.0104 C.3       1 <0>        -0.1496
      2 C2          0.0021   -0.0041    0.0020 C.3       1 <0>        -0.0204
      3 C3          0.7421   -0.5109    1.2415 C.3       1 <0>        -0.1426
      4 C4         -1.4333   -0.5336    0.0129 C.3       1 <0>        -0.1428
      5 C5          0.7074   -0.4901   -1.2379 C.ar      1 <0>        -0.0921
      6 C6          1.2151    0.4185   -2.1418 C.ar      1 <0>        -0.0600
      7 C7          1.8688   -0.0328   -3.2899 C.ar      1 <0>        -0.0226
      8 C8          2.0055   -1.4034   -3.5176 C.ar      1 <0>        -0.0816
      9 C9          1.4951   -2.3054   -2.6087 C.ar      1 <0>        -0.0904
     10 C10         0.8502   -1.8524   -1.4654 C.ar      1 <0>         0.1437
     11 O1          0.3533   -2.7448   -0.5692 O.3       1 <0>        -0.4824
     12 C11         1.6421   -3.7851   -2.8534 C.3       1 <0>        -0.0206
     13 C12         2.3895   -4.0127   -4.1689 C.3       1 <0>        -0.1500
     14 C13         2.4296   -4.4165   -1.7036 C.3       1 <0>        -0.1430
     15 C14         0.2564   -4.4285   -2.9362 C.3       1 <0>        -0.1429
     16 C15         2.4142    0.9378   -4.2619 C.2       1 <0>         0.1124
     17 N1          2.4009    2.2644   -4.2406 N.2       1 <0>        -0.2662
     18 N2          2.9187    2.9513   -5.1631 N.2       1 <0>        -0.2793
     19 C16         3.5081    2.3871   -6.2109 C.2       1 <0>         0.0197
     20 S1          3.2878    0.6584   -5.7996 S.3       1 <0>         0.0399
     21 S2          4.2900    3.1283   -7.6051 S.3       1 <0>         0.0563
     22 C17         4.1209    4.9097   -7.3075 C.3       1 <0>        -0.1514
     23 H1          1.0039    1.9031    0.0027 H         1 <0>         0.0604
     24 H2         -0.5459    1.8868   -0.8726 H         1 <0>         0.0596
     25 H3         -0.5289    1.8773    0.9072 H         1 <0>         0.0620
     26 H4          0.2319   -0.1594    2.1383 H         1 <0>         0.0566
     27 H5          0.7568   -1.6008    1.2356 H         1 <0>         0.0755
     28 H6          1.7647   -0.1336    1.2338 H         1 <0>         0.0522
     29 H7         -1.9605   -0.1726   -0.8702 H         1 <0>         0.0555
     30 H8         -1.4185   -1.6235    0.0069 H         1 <0>         0.0583
     31 H9         -1.9435   -0.1821    0.9097 H         1 <0>         0.0631
     32 H10         1.1070    1.4780   -1.9623 H         1 <0>         0.1454
     33 H11         2.5103   -1.7564   -4.4047 H         1 <0>         0.1347
     34 H12        -0.5596   -3.0111   -0.7442 H         1 <0>         0.3867
     35 H13         3.3767   -3.5543   -4.1099 H         1 <0>         0.0590
     36 H14         2.4958   -5.0830   -4.3459 H         1 <0>         0.0634
     37 H15         1.8284   -3.5629   -4.9881 H         1 <0>         0.0583
     38 H16         1.8972   -4.2543   -0.7664 H         1 <0>         0.0764
     39 H17         2.5360   -5.4867   -1.8806 H         1 <0>         0.0567
     40 H18         3.4168   -3.9581   -1.6446 H         1 <0>         0.0522
     41 H19        -0.3046   -3.9788   -3.7554 H         1 <0>         0.0556
     42 H20         0.3628   -5.4988   -3.1133 H         1 <0>         0.0633
     43 H21        -0.2760   -4.2664   -1.9991 H         1 <0>         0.0588
     44 H22         3.0640    5.1686   -7.2435 H         1 <0>         0.0957
     45 H23         4.6161    5.1704   -6.3721 H         1 <0>         0.0956
     46 H24         4.5809    5.4604   -8.1280 H         1 <0>         0.1209
@<TRIPOS>BOND
     1    1    2 1
     2    1   23 1
     3    1   24 1
     4    1   25 1
     5    2    3 1
     6    2    4 1
     7    2    5 1
     8    3   26 1
     9    3   27 1
    10    3   28 1
    11    4   29 1
    12    4   30 1
    13    4   31 1
    14    5   10 ar
    15    5    6 ar
    16    6    7 ar
    17    6   32 1
    18    7    8 ar
    19    7   16 1
    20    8    9 ar
    21    8   33 1
    22    9   10 ar
    23    9   12 1
    24   10   11 1
    25   11   34 1
    26   12   13 1
    27   12   14 1
    28   12   15 1
    29   13   35 1
    30   13   36 1
    31   13   37 1
    32   14   38 1
    33   14   39 1
    34   14   40 1
    35   15   41 1
    36   15   42 1
    37   15   43 1
    38   16   20 1
    39   16   17 2
    40   17   18 1
    41   18   19 2
    42   19   20 1
    43   19   21 1
    44   21   22 1
    45   22   44 1
    46   22   45 1
    47   22   46 1
@<TRIPOS>MOLECULE
ZINC00001281
   29    30     0     0     0
SMALL
USER_CHARGES

@<TRIPOS>ATOM
      1 C1         -0.1806    1.0357    0.2000 C.ar      1 <0>        -0.1222
      2 C2          0.9245    1.8481    0.0217 C.ar      1 <0>        -0.1361
      3 C3          2.1862    1.2928   -0.0570 C.ar      1 <0>        -0.1180
      4 C4          2.3450   -0.0840    0.0433 C.ar      1 <0>         0.1573
      5 C5          1.2329   -0.8970    0.2224 C.ar      1 <0>        -0.0156
      6 C6         -0.0262   -0.3347    0.3002 C.ar      1 <0>        -0.1119
      7 C7          1.4001   -2.3907    0.3312 C.3       1 <0>        -0.1565
      8 C8          1.7182   -2.7580    1.7577 C.2       1 <0>         0.5052
      9 O1          1.8014   -1.8875    2.6073 O.co2     1 <0>        -0.6883
     10 O2          1.8923   -3.9257    2.0622 O.co2     1 <0>        -0.7010
     11 N1          3.6199   -0.6493   -0.0363 N.pl3     1 <0>        -0.6799
     12 C9          3.9705   -1.4310   -1.1417 C.ar      1 <0>         0.2371
     13 C10         3.3529   -1.2194   -2.3686 C.ar      1 <0>        -0.0923
     14 C11         3.7019   -1.9940   -3.4588 C.ar      1 <0>        -0.0712
     15 C12         4.6640   -2.9789   -3.3298 C.ar      1 <0>        -0.1540
     16 C13         5.2803   -3.1928   -2.1105 C.ar      1 <0>        -0.0674
     17 C14         4.9413   -2.4177   -1.0174 C.ar      1 <0>        -0.0897
     18 Cl1         5.7217   -2.6815    0.5107 Cl        1 <0>        -0.0512
     19 Cl2         2.1442    0.0160   -2.5315 Cl        1 <0>        -0.0473
     20 H1         -1.1659    1.4731    0.2657 H         1 <0>         0.1132
     21 H2          0.8003    2.9181   -0.0565 H         1 <0>         0.1137
     22 H3          3.0486    1.9277   -0.1966 H         1 <0>         0.1147
     23 H4         -0.8913   -0.9662    0.4394 H         1 <0>         0.1149
     24 H5          0.4765   -2.8828    0.0266 H         1 <0>         0.0630
     25 H6          2.2146   -2.7133   -0.3173 H         1 <0>         0.0663
     26 H7          4.2621   -0.4997    0.6751 H         1 <0>         0.4125
     27 H8          3.2224   -1.8301   -4.4125 H         1 <0>         0.1341
     28 H9          4.9344   -3.5828   -4.1833 H         1 <0>         0.1345
     29 H10         6.0307   -3.9634   -2.0133 H         1 <0>         0.1361
@<TRIPOS>BOND
     1    1    6 ar
     2    1    2 ar
     3    1   20 1
     4    2    3 ar
     5    2   21 1
     6    3    4 ar
     7    3   22 1
     8    4    5 ar
     9    4   11 1
    10    5    6 ar
    11    5    7 1
    12    6   23 1
    13    7    8 1
    14    7   24 1
    15    7   25 1
    16    8    9 2
    17    8   10 1
    18   11   12 1
    19   11   26 1
    20   12   17 ar
    21   12   13 ar
    22   13   14 ar
    23   13   19 1
    24   14   15 ar
    25   14   27 1
    26   15   16 ar
    27   15   28 1
    28   16   17 ar
    29   16   29 1
    30   17   18 1
@<TRIPOS>MOLECULE
ZINC01722325
   35    38     0     0     0
SMALL
USER_CHARGES
7,9-diphenyl-8-thiabicyclo[4.3.0]nona-2,4,6,9-tetraene
@<TRIPOS>ATOM
      1 C1          0.0090   -0.0059   -0.2695 C.ar      1 <0>        -0.1119
      2 C2          0.9999   -0.4000    0.6128 C.ar      1 <0>        -0.1155
      3 C3          2.1878    0.2970    0.6772 C.ar      1 <0>        -0.1036
      4 C4          2.3899    1.4050   -0.1520 C.ar      1 <0>        -0.0074
      5 C5          1.3839    1.7967   -1.0412 C.ar      1 <0>        -0.0964
      6 C6          0.2016    1.0893   -1.0938 C.ar      1 <0>        -0.1162
      7 C7          3.6556    2.1555   -0.0891 C.2       1 <0>        -0.1428
      8 C8          3.8366    3.5549   -0.0192 C.ar      1 <0>        -0.0686
      9 C9          2.7907    4.5234    0.0162 C.ar      1 <0>        -0.0932
     10 C10         3.0772    5.8423    0.0897 C.ar      1 <0>        -0.1152
     11 C11         4.3960    6.2963    0.1383 C.ar      1 <0>        -0.1151
     12 C12         5.4368    5.4344    0.1132 C.ar      1 <0>        -0.0933
     13 C13         5.2125    4.0283    0.0367 C.ar      1 <0>        -0.0685
     14 C14         6.2199    3.0383    0.0044 C.2       1 <0>        -0.1429
     15 S1          5.3128    1.5127   -0.0913 S.3       1 <0>         0.1807
     16 C15         7.6801    3.2264    0.0414 C.ar      1 <0>        -0.0074
     17 C16         8.2880    4.1741   -0.7883 C.ar      1 <0>        -0.0963
     18 C17         9.6551    4.3479   -0.7440 C.ar      1 <0>        -0.1162
     19 C18        10.4268    3.5795    0.1103 C.ar      1 <0>        -0.1118
     20 C19         9.8332    2.6358    0.9308 C.ar      1 <0>        -0.1156
     21 C20         8.4667    2.4541    0.9023 C.ar      1 <0>        -0.1036
     22 H1         -0.9193   -0.5560   -0.3154 H         1 <0>         0.1259
     23 H2          0.8405   -1.2531    1.2557 H         1 <0>         0.1277
     24 H3          2.9601   -0.0118    1.3662 H         1 <0>         0.1244
     25 H4          1.5327    2.6512   -1.6847 H         1 <0>         0.1267
     26 H5         -0.5763    1.3907   -1.7796 H         1 <0>         0.1281
     27 H6          1.7607    4.2006   -0.0201 H         1 <0>         0.1242
     28 H7          2.2695    6.5590    0.1109 H         1 <0>         0.1234
     29 H8          4.5887    7.3574    0.1967 H         1 <0>         0.1234
     30 H9          6.4472    5.8140    0.1517 H         1 <0>         0.1242
     31 H10         7.6877    4.7713   -1.4586 H         1 <0>         0.1268
     32 H11        10.1256    5.0822   -1.3811 H         1 <0>         0.1280
     33 H12        11.4976    3.7171    0.1372 H         1 <0>         0.1259
     34 H13        10.4419    2.0405    1.5952 H         1 <0>         0.1277
     35 H14         8.0049    1.7177    1.5433 H         1 <0>         0.1244
@<TRIPOS>BOND
     1    1    6 ar
     2    1    2 ar
     3    1   22 1
     4    2    3 ar
     5    2   23 1
     6    3    4 ar
     7    3   24 1
     8    4    5 ar
     9    4    7 1
    10    5    6 ar
    11    5   25 1
    12    6   26 1
    13    7   15 1
    14    7    8 2
    15    8   13 ar
    16    8    9 ar
    17    9   10 ar
    18    9   27 1
    19   10   11 ar
    20   10   28 1
    21   11   12 ar
    22   11   29 1
    23   12   13 ar
    24   12   30 1
    25   13   14 2
    26   14   15 1
    27   14   16 1
    28   16   21 ar
    29   16   17 ar
    30   17   18 ar
    31   17   31 1
    32   18   19 ar
    33   18   32 1
    34   19   20 ar
    35   19   33 1
    36   20   21 ar
    37   20   34 1
    38   21   35 1
@<TRIPOS>MOLECULE
ZINC00899093
   33    35     0     0     0
SMALL
USER_CHARGES
5,7-dihydroxy-8-methoxy-2-phenyl-chromen-4-one
@<TRIPOS>ATOM
      1 C1         -0.0739    6.1642   -1.2366 C.3       1 <0>         0.0297
      2 O1         -0.0598    5.5082    0.0329 O.3       1 <0>        -0.3100
      3 C2         -0.0552    4.1465    0.0250 C.ar      1 <0>         0.0349
      4 C3          1.1500    3.4556    0.0097 C.ar      1 <0>         0.1737
      5 C4          1.1690    2.0658    0.0020 C.ar      1 <0>        -0.1924
      6 C5         -0.0163    1.3537    0.0095 C.ar      1 <0>         0.2159
      7 C6         -1.2355    2.0417    0.0190 C.ar      1 <0>        -0.2533
      8 C7         -1.2553    3.4475    0.0327 C.ar      1 <0>         0.1632
      9 O2         -2.4369    4.1015    0.0471 O.3       1 <0>        -0.2079
     10 C8         -3.6137    3.4558    0.0370 C.2       1 <0>         0.2071
     11 C9         -3.7033    2.0998    0.0299 C.2       1 <0>        -0.3128
     12 C10        -2.5201    1.3215    0.0206 C.2       1 <0>         0.4246
     13 O3         -2.5633    0.1020    0.0136 O.2       1 <0>        -0.4506
     14 C11        -4.8590    4.2496    0.0473 C.ar      1 <0>        -0.0755
     15 C12        -6.0996    3.6083    0.0438 C.ar      1 <0>        -0.0794
     16 C13        -7.2588    4.3558    0.0602 C.ar      1 <0>        -0.1209
     17 C14        -7.1944    5.7380    0.0670 C.ar      1 <0>        -0.0920
     18 C15        -5.9686    6.3800    0.0643 C.ar      1 <0>        -0.1229
     19 C16        -4.8015    5.6449    0.0547 C.ar      1 <0>        -0.0781
     20 O4          0.0021   -0.0041    0.0020 O.3       1 <0>        -0.4713
     21 O5          2.3208    4.1447    0.0027 O.3       1 <0>        -0.4747
     22 H1         -0.0763    7.2440   -1.0875 H         1 <0>         0.1021
     23 H2          0.8118    5.8776   -1.8036 H         1 <0>         0.0464
     24 H3         -0.9681    5.8715   -1.7869 H         1 <0>         0.0487
     25 H4          2.1125    1.5403   -0.0095 H         1 <0>         0.1559
     26 H5         -4.6703    1.6189    0.0318 H         1 <0>         0.1649
     27 H6         -6.1513    2.5296    0.0336 H         1 <0>         0.1362
     28 H7         -8.2188    3.8612    0.0623 H         1 <0>         0.1348
     29 H8         -8.1051    6.3185    0.0749 H         1 <0>         0.1310
     30 H9         -5.9256    7.4591    0.0701 H         1 <0>         0.1327
     31 H10        -3.8454    6.1472    0.0533 H         1 <0>         0.1353
     32 H11         0.0158   -0.4021    0.8832 H         1 <0>         0.4051
     33 H12         2.6516    4.3490   -0.8827 H         1 <0>         0.3997
@<TRIPOS>BOND
     1    1    2 1
     2    1   22 1
     3    1   23 1
     4    1   24 1
     5    2    3 1
     6    3    8 ar
     7    3    4 ar
     8    4    5 ar
     9    4   21 1
    10    5    6 ar
    11    5   25 1
    12    6    7 ar
    13    6   20 1
    14    7   12 1
    15    7    8 ar
    16    8    9 1
    17    9   10 1
    18   10   11 2
    19   10   14 1
    20   11   12 1
    21   11   26 1
    22   12   13 2
    23   14   19 ar
    24   14   15 ar
    25   15   16 ar
    26   15   27 1
    27   16   17 ar
    28   16   28 1
    29   17   18 ar
    30   17   29 1
    31   18   19 ar
    32   18   30 1
    33   19   31 1
    34   20   32 1
    35   21   33 1
@<TRIPOS>MOLECULE
ZINC06262659
   42    43     0     0     0
SMALL
USER_CHARGES

@<TRIPOS>ATOM
      1 C1         -0.0187    1.5258    0.0104 C.3       1 <0>        -0.1481
      2 C2          0.0021   -0.0041    0.0020 C.3       1 <0>        -0.0184
      3 C3          0.7421   -0.5109    1.2415 C.3       1 <0>        -0.1397
      4 C4         -1.4333   -0.5336    0.0129 C.3       1 <0>        -0.1402
      5 C5          0.7074   -0.4901   -1.2379 C.ar      1 <0>        -0.0908
      6 C6          1.2151    0.4185   -2.1418 C.ar      1 <0>        -0.0835
      7 C7          1.8688   -0.0328   -3.2899 C.ar      1 <0>         0.0302
      8 C8          2.0055   -1.4034   -3.5176 C.ar      1 <0>        -0.0988
      9 C9          1.4951   -2.3054   -2.6087 C.ar      1 <0>        -0.0894
     10 C10         0.8502   -1.8524   -1.4654 C.ar      1 <0>         0.1103
     11 O1          0.3533   -2.7448   -0.5692 O.3       1 <0>        -0.4853
     12 C11         1.6421   -3.7851   -2.8534 C.3       1 <0>        -0.0186
     13 C12         2.3895   -4.0127   -4.1689 C.3       1 <0>        -0.1486
     14 C13         2.4296   -4.4165   -1.7036 C.3       1 <0>        -0.1399
     15 C14         0.2564   -4.4285   -2.9362 C.3       1 <0>        -0.1400
     16 C15         2.4142    0.9378   -4.2619 C.2       1 <0>         0.0226
     17 N1          2.4009    2.2644   -4.2406 N.2       1 <0>        -0.2451
     18 N2          2.9187    2.9513   -5.1631 N.2       1 <0>        -0.3485
     19 C16         3.5081    2.3871   -6.2109 C.2       1 <0>         0.2833
     20 S1          3.2878    0.6584   -5.7996 S.3       1 <0>        -0.1451
     21 S2          4.2900    3.1283   -7.6051 S.3       1 <0>        -0.6615
     22 H1          1.0039    1.9031    0.0027 H         1 <0>         0.0612
     23 H2         -0.5459    1.8868   -0.8726 H         1 <0>         0.0605
     24 H3         -0.5289    1.8773    0.9072 H         1 <0>         0.0559
     25 H4          0.2319   -0.1594    2.1383 H         1 <0>         0.0508
     26 H5          0.7568   -1.6008    1.2356 H         1 <0>         0.0739
     27 H6          1.7647   -0.1336    1.2338 H         1 <0>         0.0513
     28 H7         -1.9605   -0.1726   -0.8702 H         1 <0>         0.0545
     29 H8         -1.4185   -1.6235    0.0069 H         1 <0>         0.0571
     30 H9         -1.9435   -0.1821    0.9097 H         1 <0>         0.0573
     31 H10         1.1070    1.4780   -1.9623 H         1 <0>         0.1403
     32 H11         2.5103   -1.7564   -4.4047 H         1 <0>         0.1328
     33 H12        -0.5596   -3.0111   -0.7442 H         1 <0>         0.3765
     34 H13         3.3767   -3.5543   -4.1099 H         1 <0>         0.0602
     35 H14         2.4958   -5.0830   -4.3459 H         1 <0>         0.0570
     36 H15         1.8284   -3.5629   -4.9881 H         1 <0>         0.0595
     37 H16         1.8972   -4.2543   -0.7664 H         1 <0>         0.0746
     38 H17         2.5360   -5.4867   -1.8806 H         1 <0>         0.0509
     39 H18         3.4168   -3.9581   -1.6446 H         1 <0>         0.0512
     40 H19        -0.3046   -3.9788   -3.7554 H         1 <0>         0.0545
     41 H20         0.3628   -5.4988   -3.1132 H         1 <0>         0.0575
     42 H21        -0.2760   -4.2664   -1.9991 H         1 <0>         0.0574
@<TRIPOS>BOND
     1    1    2 1
     2    1   22 1
     3    1   23 1
     4    1   24 1
     5    2    3 1
     6    2    4 1
     7    2    5 1
     8    3   25 1
     9    3   26 1
    10    3   27 1
    11    4   28 1
    12    4   29 1
    13    4   30 1
    14    5   10 ar
    15    5    6 ar
    16    6    7 ar
    17    6   31 1
    18    7    8 ar
    19    7   16 1
    20    8    9 ar
    21    8   32 1
    22    9   10 ar
    23    9   12 1
    24   10   11 1
    25   11   33 1
    26   12   13 1
    27   12   14 1
    28   12   15 1
    29   13   34 1
    30   13   35 1
    31   13   36 1
    32   14   37 1
    33   14   38 1
    34   14   39 1
    35   15   40 1
    36   15   41 1
    37   15   42 1
    38   16   20 1
    39   16   17 2
    40   17   18 1
    41   18   19 2
    42   19   20 1
    43   19   21 1
@<TRIPOS>MOLECULE
ZINC39793933
   39    41     0     0     0
SMALL
USER_CHARGES

@<TRIPOS>ATOM
      1 C1          0.9036    0.5777   -1.1786 C.ar      1 <0>        -0.0853
      2 C2          2.1251    1.1610   -0.9031 C.ar      1 <0>        -0.1151
      3 C3          2.3863    2.4568   -1.3285 C.ar      1 <0>         0.1576
      4 C4          1.4180    3.1629   -2.0301 C.ar      1 <0>        -0.1354
      5 C5          0.1977    2.5741   -2.3028 C.ar      1 <0>        -0.0160
      6 C6         -0.0590    1.2822   -1.8771 C.ar      1 <0>        -0.1212
      7 Cl1        -1.0141    3.4556   -3.1793 Cl        1 <0>        -0.0616
      8 N1          3.6227    3.0500   -1.0503 N.am      1 <0>        -0.6695
      9 C7          4.7424    2.3000   -1.0378 C.2       1 <0>         0.5169
     10 O1          4.6912    1.1286   -1.3478 O.2       1 <0>        -0.4883
     11 C8          6.0581    2.9170   -0.6387 C.3       1 <0>         0.0399
     12 O2          7.0874    1.9278   -0.7041 O.3       1 <0>        -0.2830
     13 C9          8.3435    2.3225   -0.3729 C.ar      1 <0>         0.1587
     14 C10         8.5770    3.6374    0.0132 C.ar      1 <0>        -0.2111
     15 C11         9.8487    4.0430    0.3501 C.ar      1 <0>        -0.0449
     16 C12        10.9080    3.1283    0.3033 C.ar      1 <0>        -0.1378
     17 C13        10.6670    1.8050   -0.0864 C.ar      1 <0>        -0.0332
     18 C14         9.3903    1.4088   -0.4157 C.ar      1 <0>        -0.1494
     19 C15        12.2667    3.5553    0.6610 C.2       1 <0>         0.0900
     20 C16        12.4550    4.7013    1.3633 C.2       1 <0>        -0.2271
     21 C17        13.7080    5.4131    1.6845 C.2       1 <0>         0.5617
     22 O3         14.7911    4.9996    1.3142 O.2       1 <0>        -0.4709
     23 N2         13.5939    6.5228    2.3945 N.am      1 <0>        -0.6851
     24 C18        12.3917    6.9775    2.8029 C.2       1 <0>         0.5375
     25 O4         12.1425    7.9736    3.4549 O.2       1 <0>        -0.4177
     26 S1         11.2536    5.7680    2.1469 S.3       1 <0>        -0.0405
     27 H1          0.7020   -0.4317   -0.8516 H         1 <0>         0.1391
     28 H2          2.8763    0.6098   -0.3570 H         1 <0>         0.1405
     29 H3          1.6182    4.1710   -2.3619 H         1 <0>         0.1383
     30 H4         -1.0130    0.8237   -2.0915 H         1 <0>         0.1373
     31 H5          3.6739    4.0011   -0.8665 H         1 <0>         0.4157
     32 H6          6.2968    3.7351   -1.3182 H         1 <0>         0.1027
     33 H7          5.9861    3.2995    0.3794 H         1 <0>         0.1042
     34 H8          7.7594    4.3420    0.0486 H         1 <0>         0.1374
     35 H9         10.0290    5.0648    0.6496 H         1 <0>         0.1417
     36 H10        11.4803    1.0954   -0.1242 H         1 <0>         0.1447
     37 H11         9.2025    0.3874   -0.7122 H         1 <0>         0.1437
     38 H12        13.1161    2.9574    0.3653 H         1 <0>         0.1648
     39 H13        14.3930    7.0210    2.6272 H         1 <0>         0.4211
@<TRIPOS>BOND
     1    1    6 ar
     2    1    2 ar
     3    1   27 1
     4    2    3 ar
     5    2   28 1
     6    3    4 ar
     7    3    8 1
     8    4    5 ar
     9    4   29 1
    10    5    6 ar
    11    5    7 1
    12    6   30 1
    13    8    9 am
    14    8   31 1
    15    9   10 2
    16    9   11 1
    17   11   12 1
    18   11   32 1
    19   11   33 1
    20   12   13 1
    21   13   18 ar
    22   13   14 ar
    23   14   15 ar
    24   14   34 1
    25   15   16 ar
    26   15   35 1
    27   16   17 ar
    28   16   19 1
    29   17   18 ar
    30   17   36 1
    31   18   37 1
    32   19   20 2
    33   19   38 1
    34   20   26 1
    35   20   21 1
    36   21   22 2
    37   21   23 am
    38   23   24 am
    39   23   39 1
    40   24   25 2
    41   24   26 1
@<TRIPOS>MOLECULE
ZINC04775332
   43    45     0     0     0
SMALL
USER_CHARGES
3-(4-benzyloxyphenyl)-1-(2-hydroxyphenyl)-prop-2-en-1-one
@<TRIPOS>ATOM
      1 C1         -0.8539   10.4668    0.0678 C.ar      1 <0>        -0.1077
      2 C2         -0.9464    9.7872   -1.1325 C.ar      1 <0>        -0.1227
      3 C3         -1.1085    8.4144   -1.1388 C.ar      1 <0>        -0.0949
      4 C4         -1.1785    7.7212    0.0552 C.ar      1 <0>        -0.1007
      5 C5         -1.0917    8.4015    1.2554 C.ar      1 <0>        -0.0950
      6 C6         -0.9239    9.7736    1.2617 C.ar      1 <0>        -0.1227
      7 C7         -1.3557    6.2247    0.0483 C.3       1 <0>         0.1010
      8 O1         -0.0738    5.5934    0.0327 O.3       1 <0>        -0.3048
      9 C8         -0.0554    4.2362    0.0248 C.ar      1 <0>         0.1483
     10 C9          1.1594    3.5600    0.0096 C.ar      1 <0>        -0.1549
     11 C10         1.1838    2.1839    0.0025 C.ar      1 <0>        -0.0489
     12 C11        -0.0178    1.4648    0.0101 C.ar      1 <0>        -0.1244
     13 C12        -1.2385    2.1509    0.0196 C.ar      1 <0>        -0.0537
     14 C13        -1.2515    3.5272    0.0325 C.ar      1 <0>        -0.2143
     15 C14         0.0021   -0.0041    0.0020 C.2       1 <0>        -0.0009
     16 C15        -1.1594   -0.6959    0.0094 C.2       1 <0>        -0.2470
     17 C16        -1.1396   -2.1570    0.0014 C.2       1 <0>         0.4222
     18 O2         -0.0768   -2.7515   -0.0120 O.2       1 <0>        -0.4461
     19 C17        -2.4081   -2.9125    0.0094 C.ar      1 <0>        -0.1902
     20 C18        -3.6296   -2.2346    0.0247 C.ar      1 <0>        -0.0597
     21 C19        -4.8099   -2.9456    0.0322 C.ar      1 <0>        -0.1432
     22 C20        -4.7914   -4.3310    0.0246 C.ar      1 <0>        -0.0727
     23 C21        -3.5913   -5.0136    0.0091 C.ar      1 <0>        -0.1607
     24 C22        -2.3938   -4.3142   -0.0041 C.ar      1 <0>         0.1646
     25 O3         -1.2139   -4.9834   -0.0247 O.3       1 <0>        -0.4811
     26 H1         -0.7265   11.5392    0.0727 H         1 <0>         0.1255
     27 H2         -0.8916   10.3288   -2.0653 H         1 <0>         0.1265
     28 H3         -1.1807    7.8835   -2.0765 H         1 <0>         0.1245
     29 H4         -1.1509    7.8604    2.1883 H         1 <0>         0.1244
     30 H5         -0.8513   10.3045    2.1994 H         1 <0>         0.1265
     31 H6         -1.9170    5.9293   -0.8382 H         1 <0>         0.0740
     32 H7         -1.9003    5.9192    0.9417 H         1 <0>         0.0740
     33 H8          2.0855    4.1155    0.0038 H         1 <0>         0.1364
     34 H9          2.1279    1.6596   -0.0093 H         1 <0>         0.1371
     35 H10        -2.1681    1.6011    0.0213 H         1 <0>         0.1311
     36 H11        -2.1923    4.0573    0.0439 H         1 <0>         0.1327
     37 H12         0.9446   -0.5313   -0.0098 H         1 <0>         0.1350
     38 H13        -2.1019   -0.1687    0.0212 H         1 <0>         0.1316
     39 H14        -3.6488   -1.1548    0.0310 H         1 <0>         0.1346
     40 H15        -5.7536   -2.4206    0.0437 H         1 <0>         0.1322
     41 H16        -5.7213   -4.8803    0.0306 H         1 <0>         0.1324
     42 H17        -3.5851   -6.0936    0.0029 H         1 <0>         0.1356
     43 H18        -0.8611   -5.1858    0.8527 H         1 <0>         0.3962
@<TRIPOS>BOND
     1    1    6 ar
     2    1    2 ar
     3    1   26 1
     4    2    3 ar
     5    2   27 1
     6    3    4 ar
     7    3   28 1
     8    4    5 ar
     9    4    7 1
    10    5    6 ar
    11    5   29 1
    12    6   30 1
    13    7    8 1
    14    7   31 1
    15    7   32 1
    16    8    9 1
    17    9   14 ar
    18    9   10 ar
    19   10   11 ar
    20   10   33 1
    21   11   12 ar
    22   11   34 1
    23   12   13 ar
    24   12   15 1
    25   13   14 ar
    26   13   35 1
    27   14   36 1
    28   15   16 2
    29   15   37 1
    30   16   17 1
    31   16   38 1
    32   17   18 2
    33   17   19 1
    34   19   24 ar
    35   19   20 ar
    36   20   21 ar
    37   20   39 1
    38   21   22 ar
    39   21   40 1
    40   22   23 ar
    41   22   41 1
    42   23   24 ar
    43   23   42 1
    44   24   25 1
    45   25   43 1
@<TRIPOS>MOLECULE
ZINC00598952
   38    40     0     0     0
SMALL
USER_CHARGES
5-(4-fluorophenyl)-1-(4-methylsulfonylphenyl)-3-(trifluoromethyl)pyrazole
@<TRIPOS>ATOM
      1 C1         -3.0989    4.4552   -1.5690 C.3       1 <0>        -0.6495
      2 S1         -2.7251    4.0766    0.1652 S.o2      1 <0>         2.4993
      3 O1         -3.6659    3.1421    0.6759 O.2       1 <0>        -0.9308
      4 O2         -2.4333    5.2724    0.8753 O.2       1 <0>        -0.9310
      5 C2         -1.1986    3.1979    0.1180 C.ar      1 <0>        -0.6555
      6 C3         -1.1990    1.8203   -0.0031 C.ar      1 <0>        -0.0041
      7 C4         -0.0042    1.1282   -0.0355 C.ar      1 <0>        -0.1214
      8 C5          1.1984    1.8180    0.0425 C.ar      1 <0>         0.1902
      9 C6          1.1955    3.2018    0.1586 C.ar      1 <0>        -0.1328
     10 C7         -0.0027    3.8876    0.1963 C.ar      1 <0>        -0.0060
     11 N1          2.4120    1.1195    0.0035 N.pl3     1 <0>        -0.3147
     12 C8          3.5099    1.4525   -0.7373 C.2       1 <0>         0.1432
     13 C9          4.4712    0.5150   -0.4825 C.2       1 <0>        -0.1997
     14 C10         3.9414   -0.4064    0.4214 C.2       1 <0>        -0.0048
     15 N2          2.7158   -0.0496    0.7128 N.2       1 <0>        -0.2130
     16 C11         4.6600   -1.6119    0.9704 C.3       1 <0>         0.5573
     17 F1          3.7790   -2.3618    1.7569 F         1 <0>        -0.1628
     18 F2          5.1258   -2.3993   -0.0880 F         1 <0>        -0.1618
     19 F3          5.7424   -1.1937    1.7520 F         1 <0>        -0.1624
     20 C12         3.6362    2.6138   -1.6447 C.ar      1 <0>        -0.0606
     21 C13         2.5013    3.1589   -2.2462 C.ar      1 <0>        -0.0742
     22 C14         2.6241    4.2446   -3.0881 C.ar      1 <0>        -0.1499
     23 C15         3.8728    4.7878   -3.3446 C.ar      1 <0>         0.1213
     24 C16         5.0037    4.2469   -2.7539 C.ar      1 <0>        -0.1491
     25 C17         4.8914    3.1643   -1.9067 C.ar      1 <0>        -0.0516
     26 F4          3.9883    5.8482   -4.1737 F         1 <0>        -0.1308
     27 H1         -3.1855    3.5266   -2.1331 H         1 <0>         0.1333
     28 H2         -4.0387    5.0044   -1.6266 H         1 <0>         0.1367
     29 H3         -2.2970    5.0622   -1.9894 H         1 <0>         0.1330
     30 H4         -2.1346    1.2847   -0.0682 H         1 <0>         0.1572
     31 H5         -0.0052    0.0520   -0.1259 H         1 <0>         0.1471
     32 H6          2.1292    3.7411    0.2191 H         1 <0>         0.1446
     33 H7         -0.0056    4.9639    0.2866 H         1 <0>         0.1575
     34 H8          5.4631    0.4893   -0.9090 H         1 <0>         0.1736
     35 H9          1.5280    2.7339   -2.0499 H         1 <0>         0.1353
     36 H10         1.7459    4.6696   -3.5512 H         1 <0>         0.1444
     37 H11         5.9747    4.6735   -2.9576 H         1 <0>         0.1475
     38 H12         5.7733    2.7432   -1.4471 H         1 <0>         0.1451
@<TRIPOS>BOND
     1    1    2 1
     2    1   27 1
     3    1   28 1
     4    1   29 1
     5    2    3 2
     6    2    4 2
     7    2    5 1
     8    5   10 ar
     9    5    6 ar
    10    6    7 ar
    11    6   30 1
    12    7    8 ar
    13    7   31 1
    14    8    9 ar
    15    8   11 1
    16    9   10 ar
    17    9   32 1
    18   10   33 1
    19   11   15 1
    20   11   12 1
    21   12   13 2
    22   12   20 1
    23   13   14 1
    24   13   34 1
    25   14   15 2
    26   14   16 1
    27   16   17 1
    28   16   18 1
    29   16   19 1
    30   20   25 ar
    31   20   21 ar
    32   21   22 ar
    33   21   35 1
    34   22   23 ar
    35   22   36 1
    36   23   24 ar
    37   23   26 1
    38   24   25 ar
    39   24   37 1
    40   25   38 1
@<TRIPOS>MOLECULE
ZINC26974195
   47    48     0     0     0
SMALL
USER_CHARGES
(5Z)-2-amino-5-[(3,5-ditert-butyl-4-hydroxy-phenyl)methylene]thiazol-4-one
@<TRIPOS>ATOM
      1 C1         -1.0652   -0.3967    0.5886 C.3       1 <0>        -0.1510
      2 C2         -1.5944    0.2405    1.8750 C.3       1 <0>        -0.0141
      3 C3         -1.9857    1.6940    1.6006 C.3       1 <0>        -0.1429
      4 C4         -2.8206   -0.5347    2.3612 C.3       1 <0>        -0.1426
      5 C5         -0.5224    0.2001    2.9334 C.ar      1 <0>        -0.1139
      6 C6          0.7038   -0.3565    2.6483 C.ar      1 <0>        -0.0470
      7 C7          1.6992   -0.3934    3.6330 C.ar      1 <0>        -0.1352
      8 C8          1.4404    0.1370    4.9031 C.ar      1 <0>        -0.0552
      9 C9          0.2106    0.6913    5.1772 C.ar      1 <0>        -0.1674
     10 C10        -0.7718    0.7303    4.1942 C.ar      1 <0>         0.2007
     11 O1         -1.9808    1.2834    4.4681 O.3       1 <0>        -0.5014
     12 C11        -0.0691    1.2628    6.5433 C.3       1 <0>        -0.0289
     13 C12         1.1692    1.1011    7.4272 C.3       1 <0>        -0.1468
     14 C13        -0.4130    2.7481    6.4140 C.3       1 <0>        -0.1557
     15 C14        -1.2476    0.5196    7.1755 C.3       1 <0>        -0.1556
     16 C15         3.0092   -0.9854    3.3346 C.2       1 <0>         0.0644
     17 C16         4.0266   -0.8654    4.2246 C.2       1 <0>        -0.2449
     18 C17         5.3625   -1.5063    4.2311 C.2       1 <0>         0.5511
     19 O2          5.7108   -2.2781    3.3520 O.2       1 <0>        -0.4701
     20 N1          6.1524   -1.1974    5.2360 N.2       1 <0>        -0.6728
     21 C18         5.7873   -0.3618    6.1953 C.2       1 <0>         0.4810
     22 S1          4.1349    0.1169    5.7152 S.3       1 <0>        -0.0557
     23 N2          6.5056    0.0429    7.2891 N.pl3     1 <0>        -0.7840
     24 H1         -0.7839   -1.4417    0.7859 H         1 <0>         0.0593
     25 H2         -0.1836    0.1607    0.2391 H         1 <0>         0.0591
     26 H3         -1.8477   -0.3672   -0.1840 H         1 <0>         0.0611
     27 H4         -2.3662    2.1521    2.5255 H         1 <0>         0.0713
     28 H5         -2.7681    1.7235    0.8280 H         1 <0>         0.0558
     29 H6         -1.1041    2.2513    1.2511 H         1 <0>         0.0508
     30 H7         -3.2010   -0.0765    3.2861 H         1 <0>         0.0707
     31 H8         -2.5393   -1.5797    2.5585 H         1 <0>         0.0510
     32 H9         -3.6031   -0.5052    1.5886 H         1 <0>         0.0559
     33 H10         0.8982   -0.7638    1.6671 H         1 <0>         0.1409
     34 H11         2.2045    0.1115    5.6660 H         1 <0>         0.1418
     35 H12        -2.1803    1.7035    5.4650 H         1 <0>         0.4241
     36 H13         0.9649    1.5183    8.4243 H         1 <0>         0.0641
     37 H14         2.0164    1.6355    6.9727 H         1 <0>         0.0625
     38 H15         1.4165    0.0333    7.5201 H         1 <0>         0.0627
     39 H16        -0.6172    3.1653    7.4111 H         1 <0>         0.0698
     40 H17        -1.3033    2.8643    5.7785 H         1 <0>         0.0594
     41 H18         0.4343    3.2824    5.9594 H         1 <0>         0.0669
     42 H19        -1.4518    0.9368    8.1726 H         1 <0>         0.0696
     43 H20        -1.0004   -0.5482    7.2683 H         1 <0>         0.0665
     44 H21        -2.1379    0.6360    6.5400 H         1 <0>         0.0592
     45 H22         3.1660   -1.5262    2.3896 H         1 <0>         0.1622
     46 H23         6.0634    0.7496    8.0067 H         1 <0>         0.4535
     47 H24         7.5246   -0.3388    7.4499 H         1 <0>         0.4498
@<TRIPOS>BOND
     1    1    2 1
     2    1   24 1
     3    1   25 1
     4    1   26 1
     5    2    3 1
     6    2    4 1
     7    2    5 1
     8    3   27 1
     9    3   28 1
    10    3   29 1
    11    4   30 1
    12    4   31 1
    13    4   32 1
    14    5   10 ar
    15    5    6 ar
    16    6    7 ar
    17    6   33 1
    18    7    8 ar
    19    7   16 1
    20    8    9 ar
    21    8   34 1
    22    9   10 ar
    23    9   12 1
    24   10   11 1
    25   11   35 1
    26   12   13 1
    27   12   14 1
    28   12   15 1
    29   13   36 1
    30   13   37 1
    31   13   38 1
    32   14   39 1
    33   14   40 1
    34   14   41 1
    35   15   42 1
    36   15   43 1
    37   15   44 1
    38   16   17 2
    39   16   45 1
    40   17   22 1
    41   17   18 1
    42   18   19 2
    43   18   20 1
    44   20   21 2
    45   21   22 1
    46   21   23 1
    47   23   46 1
    48   23   47 1
@<TRIPOS>MOLECULE
ZINC13734161
   49    50     0     0     0
SMALL
USER_CHARGES
(5Z)-5-[(3,5-ditert-butyl-4-hydroxy-phenyl)methylene]-2-methylsulfanyl-thiazol-4-one
@<TRIPOS>ATOM
      1 C1          0.4942    1.7654    0.0793 C.3       1 <0>        -0.1516
      2 C2         -0.4268    1.9821    1.2817 C.3       1 <0>        -0.0221
      3 C3         -0.4934    3.4749    1.6106 C.3       1 <0>        -0.1428
      4 C4         -1.8296    1.4702    0.9485 C.3       1 <0>        -0.1427
      5 C5          0.1134    1.2295    2.4704 C.ar      1 <0>        -0.0904
      6 C6          1.2724    0.4966    2.3506 C.ar      1 <0>        -0.0822
      7 C7          1.7735   -0.2020    3.4561 C.ar      1 <0>        -0.1020
      8 C8          1.0915   -0.1504    4.6783 C.ar      1 <0>        -0.0718
      9 C9         -0.0666    0.5856    4.7868 C.ar      1 <0>        -0.0951
     10 C10        -0.5566    1.2814    3.6874 C.ar      1 <0>         0.1451
     11 O1         -1.6962    2.0104    3.8014 O.3       1 <0>        -0.4821
     12 C11        -0.8013    0.6425    6.1013 C.3       1 <0>        -0.0213
     13 C12        -0.0545   -0.1971    7.1397 C.3       1 <0>        -0.1496
     14 C13        -0.8795    2.0937    6.5795 C.3       1 <0>        -0.1432
     15 C14        -2.2159    0.0885    5.9193 C.3       1 <0>        -0.1430
     16 C15         3.0095   -0.9851    3.3345 C.2       1 <0>         0.0746
     17 C16         3.7592   -0.8988    2.2067 C.2       1 <0>        -0.2563
     18 C17         4.9451   -1.6851    1.7928 C.2       1 <0>         0.5352
     19 O2          5.4068   -2.5713    2.4940 O.2       1 <0>        -0.4393
     20 N1          5.4699   -1.3789    0.6275 N.2       1 <0>        -0.6011
     21 C18         4.9833   -0.4146   -0.1394 C.2       1 <0>         0.1964
     22 S1          3.5984    0.2010    0.8056 S.3       1 <0>         0.0102
     23 S2          5.5622    0.1291   -1.7122 S.3       1 <0>         0.0942
     24 C19         6.9647   -0.9930   -1.9360 C.3       1 <0>        -0.1633
     25 H1          0.5416    0.7019   -0.1549 H         1 <0>         0.0593
     26 H2          1.4935    2.1301    0.3167 H         1 <0>         0.0600
     27 H3          0.1035    2.3097   -0.7804 H         1 <0>         0.0649
     28 H4         -0.8841    4.0192    0.7508 H         1 <0>         0.0575
     29 H5         -1.1495    3.6293    2.4672 H         1 <0>         0.0758
     30 H6          0.5060    3.8396    1.8480 H         1 <0>         0.0524
     31 H7         -1.7821    0.4068    0.7142 H         1 <0>         0.0553
     32 H8         -2.4857    1.6246    1.8051 H         1 <0>         0.0582
     33 H9         -2.2203    2.0146    0.0888 H         1 <0>         0.0642
     34 H10         1.7945    0.4606    1.4058 H         1 <0>         0.1411
     35 H11         1.4737   -0.6870    5.5342 H         1 <0>         0.1408
     36 H12        -2.5020    1.5141    3.6028 H         1 <0>         0.3870
     37 H13         0.9533    0.1975    7.2693 H         1 <0>         0.0599
     38 H14        -0.5859   -0.1560    8.0905 H         1 <0>         0.0625
     39 H15         0.0012   -1.2310    6.7990 H         1 <0>         0.0593
     40 H16        -1.4116    2.6919    5.8398 H         1 <0>         0.0757
     41 H17        -1.4109    2.1348    7.5303 H         1 <0>         0.0566
     42 H18         0.1282    2.4883    6.7092 H         1 <0>         0.0521
     43 H19        -2.1601   -0.9454    5.5786 H         1 <0>         0.0556
     44 H20        -2.7473    0.1296    6.8701 H         1 <0>         0.0632
     45 H21        -2.7479    0.6867    5.1796 H         1 <0>         0.0580
     46 H22         3.3221   -1.6298    4.1427 H         1 <0>         0.1614
     47 H23         7.6796   -0.8470   -1.1262 H         1 <0>         0.1019
     48 H24         6.6104   -2.0237   -1.9265 H         1 <0>         0.1019
     49 H25         7.4487   -0.7839   -2.8900 H         1 <0>         0.1197
@<TRIPOS>BOND
     1    1    2 1
     2    1   25 1
     3    1   26 1
     4    1   27 1
     5    2    3 1
     6    2    4 1
     7    2    5 1
     8    3   28 1
     9    3   29 1
    10    3   30 1
    11    4   31 1
    12    4   32 1
    13    4   33 1
    14    5   10 ar
    15    5    6 ar
    16    6    7 ar
    17    6   34 1
    18    7    8 ar
    19    7   16 1
    20    8    9 ar
    21    8   35 1
    22    9   10 ar
    23    9   12 1
    24   10   11 1
    25   11   36 1
    26   12   13 1
    27   12   14 1
    28   12   15 1
    29   13   37 1
    30   13   38 1
    31   13   39 1
    32   14   40 1
    33   14   41 1
    34   14   42 1
    35   15   43 1
    36   15   44 1
    37   15   45 1
    38   16   17 2
    39   16   46 1
    40   17   22 1
    41   17   18 1
    42   18   19 2
    43   18   20 1
    44   20   21 2
    45   21   22 1
    46   21   23 1
    47   23   24 1
    48   24   47 1
    49   24   48 1
    50   24   49 1
@<TRIPOS>MOLECULE
ZINC00600558
   37    39     0     0     0
SMALL
USER_CHARGES

@<TRIPOS>ATOM
      1 C1          1.1545   -0.5804   -0.5546 C.ar      1 <0>        -0.0922
      2 C2          2.3350    0.1331   -0.5717 C.ar      1 <0>        -0.1046
      3 C3          2.3775    1.4188   -0.0594 C.ar      1 <0>        -0.0175
      4 C4          1.2368    1.9957    0.4730 C.ar      1 <0>        -0.1057
      5 C5          0.0508    1.2916    0.4958 C.ar      1 <0>        -0.0692
      6 C6          0.0018   -0.0040   -0.0198 C.ar      1 <0>        -0.0466
      7 C7         -1.2672   -0.7638    0.0010 C.2       1 <0>         0.1429
      8 C8         -2.5276   -0.2357    0.0142 C.2       1 <0>        -0.1983
      9 C9         -3.4353   -1.2951    0.0320 C.2       1 <0>        -0.0038
     10 N1         -2.7656   -2.4202    0.0299 N.2       1 <0>        -0.2138
     11 N2         -1.3969   -2.1233    0.0045 N.pl3     1 <0>        -0.3160
     12 C10        -0.3496   -3.0535   -0.0108 C.ar      1 <0>         0.1963
     13 C11         0.7406   -2.8878    0.8332 C.ar      1 <0>        -0.1334
     14 C12         1.7713   -3.8069    0.8160 C.ar      1 <0>        -0.0002
     15 C13         1.7188   -4.8910   -0.0408 C.ar      1 <0>        -0.6720
     16 C14         0.6347   -5.0586   -0.8829 C.ar      1 <0>         0.0022
     17 C15        -0.4021   -4.1463   -0.8660 C.ar      1 <0>        -0.1224
     18 S1          3.0361   -6.0610   -0.0602 S.o2      1 <0>         2.7030
     19 O1          3.0051   -6.6865   -1.3357 O.2       1 <0>        -0.9564
     20 O2          4.1865   -5.3855    0.4293 O.2       1 <0>        -0.9562
     21 N3          2.6668   -7.2325    1.0505 N.pl3     1 <0>        -1.2485
     22 C16        -4.9367   -1.1658    0.0511 C.3       1 <0>         0.5581
     23 F1         -5.4186   -1.1331   -1.2618 F         1 <0>        -0.1632
     24 F2         -5.4904   -2.2603    0.7240 F         1 <0>        -0.1635
     25 F3         -5.2947    0.0158    0.7089 F         1 <0>        -0.1606
     26 Cl1         3.8666    2.3107   -0.0843 Cl        1 <0>        -0.0545
     27 H1          1.1215   -1.5815   -0.9584 H         1 <0>         0.1343
     28 H2          3.2279   -0.3122   -0.9850 H         1 <0>         0.1437
     29 H3          1.2759    2.9988    0.8714 H         1 <0>         0.1453
     30 H4         -0.8381    1.7424    0.9120 H         1 <0>         0.1443
     31 H5         -2.7767    0.8152    0.0117 H         1 <0>         0.1750
     32 H6          0.7826   -2.0409    1.5021 H         1 <0>         0.1460
     33 H7          2.6195   -3.6785    1.4722 H         1 <0>         0.1589
     34 H8          0.5967   -5.9061   -1.5512 H         1 <0>         0.1586
     35 H9         -1.2506   -4.2801   -1.5207 H         1 <0>         0.1486
     36 H10         1.8432   -7.1756    1.5598 H         1 <0>         0.4178
     37 H11         3.2741   -7.9756    1.1918 H         1 <0>         0.4237
@<TRIPOS>BOND
     1    1    6 ar
     2    1    2 ar
     3    1   27 1
     4    2    3 ar
     5    2   28 1
     6    3    4 ar
     7    3   26 1
     8    4    5 ar
     9    4   29 1
    10    5    6 ar
    11    5   30 1
    12    6    7 1
    13    7   11 1
    14    7    8 2
    15    8    9 1
    16    8   31 1
    17    9   10 2
    18    9   22 1
    19   10   11 1
    20   11   12 1
    21   12   17 ar
    22   12   13 ar
    23   13   14 ar
    24   13   32 1
    25   14   15 ar
    26   14   33 1
    27   15   16 ar
    28   15   18 1
    29   16   17 ar
    30   16   34 1
    31   17   35 1
    32   18   19 2
    33   18   20 2
    34   18   21 1
    35   21   36 1
    36   21   37 1
    37   22   23 1
    38   22   24 1
    39   22   25 1
@<TRIPOS>MOLECULE
ZINC17042869
   45    46     0     0     0
SMALL
USER_CHARGES
(5Z)-5-[(3,5-ditert-butyl-4-hydroxy-phenyl)methylene]-2-thioxo-thiazolidin-4-one
@<TRIPOS>ATOM
      1 C1          4.2258   -1.0731   -0.1978 C.3       1 <0>        -0.1486
      2 C2          3.3249   -2.2226    0.2582 C.3       1 <0>        -0.0115
      3 C3          3.8243   -2.7601    1.6008 C.3       1 <0>        -0.1404
      4 C4          3.3597   -3.3421   -0.7841 C.3       1 <0>        -0.1406
      5 C5          1.9115   -1.7227    0.4116 C.ar      1 <0>        -0.1190
      6 C6          1.6166   -0.4043    0.1472 C.ar      1 <0>        -0.0622
      7 C7          0.3028    0.0589    0.2906 C.ar      1 <0>        -0.1095
      8 C8         -0.7029   -0.8216    0.7081 C.ar      1 <0>        -0.0667
      9 C9         -0.3977   -2.1394    0.9641 C.ar      1 <0>        -0.1645
     10 C10         0.9081   -2.5937    0.8201 C.ar      1 <0>         0.1816
     11 O1          1.2045   -3.8931    1.0790 O.3       1 <0>        -0.5082
     12 C11        -1.4801   -3.0896    1.4074 C.3       1 <0>        -0.0279
     13 C12        -2.8135   -2.3433    1.4855 C.3       1 <0>        -0.1467
     14 C13        -1.5957   -4.2363    0.4011 C.3       1 <0>        -0.1524
     15 C14        -1.1301   -3.6541    2.7858 C.3       1 <0>        -0.1522
     16 C15        -0.0178    1.4642    0.0101 C.2       1 <0>         0.0078
     17 C16        -1.3123    1.8712   -0.0240 C.2       1 <0>        -0.2107
     18 C17        -1.8678    3.2365   -0.1128 C.2       1 <0>         0.5287
     19 O2         -1.1487    4.2169   -0.1687 O.3       1 <0>        -0.5050
     20 N1         -3.1860    3.3401   -0.1281 N.2       1 <0>        -0.6507
     21 C18        -3.9791    2.2512   -0.0651 C.2       1 <0>         0.3756
     22 S1         -5.6896    2.1799   -0.0723 S.2       1 <0>        -0.5762
     23 S2         -2.8134    0.9013    0.0185 S.3       1 <0>        -0.1410
     24 H1          3.8668   -0.6866   -1.1631 H         1 <0>         0.0587
     25 H2          5.2574   -1.4380   -0.3097 H         1 <0>         0.0560
     26 H3          4.2008   -0.2682    0.5516 H         1 <0>         0.0586
     27 H4          3.1766   -3.5865    1.9287 H         1 <0>         0.0708
     28 H5          3.7994   -1.9552    2.3501 H         1 <0>         0.0497
     29 H6          4.8560   -3.1250    1.4888 H         1 <0>         0.0507
     30 H7          2.7120   -4.1685   -0.4563 H         1 <0>         0.0708
     31 H8          4.3914   -3.7070   -0.8960 H         1 <0>         0.0506
     32 H9          3.0007   -2.9556   -1.7494 H         1 <0>         0.0500
     33 H10         2.3970    0.2717   -0.1698 H         1 <0>         0.1343
     34 H11        -1.7169   -0.4686    0.8246 H         1 <0>         0.1558
     35 H12         0.4121   -4.5841    1.4024 H         1 <0>         0.4189
     36 H13        -3.6035   -3.0370    1.8091 H         1 <0>         0.0594
     37 H14        -3.0651   -1.9375    0.4945 H         1 <0>         0.0689
     38 H15        -2.7304   -1.5189    2.2090 H         1 <0>         0.0634
     39 H16        -2.3858   -4.9299    0.7247 H         1 <0>         0.0658
     40 H17        -0.6371   -4.7729    0.3450 H         1 <0>         0.0561
     41 H18        -1.8473   -3.8305   -0.5899 H         1 <0>         0.0666
     42 H19        -1.9202   -4.3477    3.1094 H         1 <0>         0.0658
     43 H20        -1.0470   -2.8297    3.5093 H         1 <0>         0.0650
     44 H21        -0.1715   -4.1907    2.7296 H         1 <0>         0.0563
     45 H22         0.7910    2.1871   -0.1724 H         1 <0>         0.1482
@<TRIPOS>BOND
     1    1    2 1
     2    1   24 1
     3    1   25 1
     4    1   26 1
     5    2    3 1
     6    2    4 1
     7    2    5 1
     8    3   27 1
     9    3   28 1
    10    3   29 1
    11    4   30 1
    12    4   31 1
    13    4   32 1
    14    5   10 ar
    15    5    6 ar
    16    6    7 ar
    17    6   33 1
    18    7    8 ar
    19    7   16 1
    20    8    9 ar
    21    8   34 1
    22    9   10 ar
    23    9   12 1
    24   10   11 1
    25   11   35 1
    26   12   13 1
    27   12   14 1
    28   12   15 1
    29   13   36 1
    30   13   37 1
    31   13   38 1
    32   14   39 1
    33   14   40 1
    34   14   41 1
    35   15   42 1
    36   15   43 1
    37   15   44 1
    38   16   17 2
    39   16   45 1
    40   17   23 1
    41   17   18 1
    42   18   19 1
    43   18   20 2
    44   20   21 1
    45   21   22 2
    46   21   23 1
@<TRIPOS>MOLECULE
ZINC13761811
   40    42     0     0     0
SMALL
USER_CHARGES

@<TRIPOS>ATOM
      1 C1         -1.2737   -2.5344   -2.3444 C.3       1 <0>        -0.1215
      2 C2         -0.6153   -1.9393   -1.1265 C.ar      1 <0>        -0.0779
      3 C3         -0.0342   -0.6856   -1.1989 C.ar      1 <0>        -0.0999
      4 C4          0.5717   -0.1322   -0.0854 C.ar      1 <0>        -0.1109
      5 C5          0.6006   -0.8285    1.1057 C.ar      1 <0>        -0.0882
      6 C6          0.0165   -2.0929    1.1853 C.ar      1 <0>        -0.0488
      7 C7         -0.5982   -2.6432    0.0598 C.ar      1 <0>        -0.1059
      8 C8          0.0438   -2.8448    2.4590 C.2       1 <0>         0.1479
      9 C9          0.1359   -2.3105    3.7134 C.2       1 <0>        -0.2032
     10 C10         0.1288   -3.3634    4.6287 C.2       1 <0>        -0.0039
     11 N1          0.0368   -4.4908    3.9690 N.2       1 <0>        -0.2178
     12 N2         -0.0242   -4.2015    2.5998 N.pl3     1 <0>        -0.3172
     13 C11        -0.1332   -5.1358    1.5617 C.ar      1 <0>         0.1980
     14 C12         0.6747   -5.0244    0.4378 C.ar      1 <0>        -0.1298
     15 C13         0.5649   -5.9471   -0.5840 C.ar      1 <0>        -0.0048
     16 C14        -0.3487   -6.9808   -0.4889 C.ar      1 <0>        -0.6743
     17 C15        -1.1547   -7.0944    0.6291 C.ar      1 <0>         0.0031
     18 C16        -1.0453   -6.1785    1.6570 C.ar      1 <0>        -0.1234
     19 S1         -0.4865   -8.1552   -1.7951 S.o2      1 <0>         2.7030
     20 O1         -1.7930   -8.7074   -1.7086 O.2       1 <0>        -0.9566
     21 O2         -0.0064   -7.5149   -2.9693 O.2       1 <0>        -0.9539
     22 N3          0.5704   -9.3855   -1.4610 N.pl3     1 <0>        -1.2464
     23 C17         0.2130   -3.2261    6.1270 C.3       1 <0>         0.5582
     24 F1         -1.0765   -3.1160    6.6584 F         1 <0>        -0.1637
     25 F2          0.8438   -4.3535    6.6639 F         1 <0>        -0.1639
     26 F3          0.9497   -2.0815    6.4498 F         1 <0>        -0.1610
     27 H1         -2.3241   -2.2442   -2.3679 H         1 <0>         0.0756
     28 H2         -0.7755   -2.1684   -3.2421 H         1 <0>         0.0738
     29 H3         -1.1978   -3.6210   -2.3041 H         1 <0>         0.0689
     30 H4         -0.0535   -0.1370   -2.1290 H         1 <0>         0.1302
     31 H5          1.0235    0.8467   -0.1483 H         1 <0>         0.1336
     32 H6          1.0746   -0.3957    1.9742 H         1 <0>         0.1329
     33 H7         -1.0557   -3.6199    0.1162 H         1 <0>         0.1248
     34 H8          0.2023   -1.2596    3.9536 H         1 <0>         0.1735
     35 H9          1.3880   -4.2169    0.3627 H         1 <0>         0.1453
     36 H10         1.1930   -5.8610   -1.4583 H         1 <0>         0.1574
     37 H11        -1.8675   -7.9026    0.7002 H         1 <0>         0.1572
     38 H12        -1.6717   -6.2705    2.5320 H         1 <0>         0.1475
     39 H13         0.3754  -10.2872   -1.7606 H         1 <0>         0.4241
     40 H14         1.3846   -9.2043   -0.9658 H         1 <0>         0.4183
@<TRIPOS>BOND
     1    1    2 1
     2    1   27 1
     3    1   28 1
     4    1   29 1
     5    2    7 ar
     6    2    3 ar
     7    3    4 ar
     8    3   30 1
     9    4    5 ar
    10    4   31 1
    11    5    6 ar
    12    5   32 1
    13    6    7 ar
    14    6    8 1
    15    7   33 1
    16    8   12 1
    17    8    9 2
    18    9   10 1
    19    9   34 1
    20   10   11 2
    21   10   23 1
    22   11   12 1
    23   12   13 1
    24   13   18 ar
    25   13   14 ar
    26   14   15 ar
    27   14   35 1
    28   15   16 ar
    29   15   36 1
    30   16   17 ar
    31   16   19 1
    32   17   18 ar
    33   17   37 1
    34   18   38 1
    35   19   20 2
    36   19   21 2
    37   19   22 1
    38   22   39 1
    39   22   40 1
    40   23   24 1
    41   23   25 1
    42   23   26 1
@<TRIPOS>MOLECULE
ZINC04276954
   25    26     0     0     0
SMALL
USER_CHARGES
1-phenyl-3-(2-thienyl)prop-2-en-1-one
@<TRIPOS>ATOM
      1 C1          6.9430    7.2879   -0.0248 C.ar      1 <0>        -0.0904
      2 C2          6.0642    8.3567   -0.0107 C.ar      1 <0>        -0.1319
      3 C3          4.7028    8.1340    0.0010 C.ar      1 <0>        -0.0636
      4 C4          4.2125    6.8272   -0.0015 C.ar      1 <0>        -0.1615
      5 C5          5.1043    5.7536   -0.0099 C.ar      1 <0>        -0.0760
      6 C6          6.4634    5.9900   -0.0268 C.ar      1 <0>        -0.1325
      7 C7          2.7534    6.5811    0.0109 C.2       1 <0>         0.4264
      8 O1          1.9772    7.5202    0.0233 O.2       1 <0>        -0.4637
      9 C8          2.2608    5.2583    0.0084 C.2       1 <0>        -0.2473
     10 C9          0.9199    5.0320    0.0198 C.2       1 <0>         0.0472
     11 C10         0.4267    3.7075    0.0172 C.2       1 <0>        -0.1818
     12 C11        -0.8919    3.2622    0.0272 C.2       1 <0>        -0.1054
     13 C12        -1.0905    1.9055    0.0167 C.2       1 <0>        -0.1735
     14 C13        -0.0126    1.0758    0.0080 C.2       1 <0>        -0.1911
     15 S1          1.3319    2.1702    0.0010 S.3       1 <0>         0.1398
     16 H1          8.0079    7.4676   -0.0338 H         1 <0>         0.1276
     17 H2          6.4449    9.3673   -0.0084 H         1 <0>         0.1294
     18 H3          4.0180    8.9691    0.0123 H         1 <0>         0.1339
     19 H4          4.7313    4.7401   -0.0070 H         1 <0>         0.1306
     20 H5          7.1545    5.1602   -0.0375 H         1 <0>         0.1295
     21 H6          2.9488    4.4258   -0.0026 H         1 <0>         0.1307
     22 H7          0.2319    5.8645    0.0307 H         1 <0>         0.1503
     23 H8         -1.7212    3.9540    0.0385 H         1 <0>         0.1448
     24 H9         -2.0915    1.5001    0.0187 H         1 <0>         0.1388
     25 H10         0.0021   -0.0041    0.0020 H         1 <0>         0.1896
@<TRIPOS>BOND
     1    1    6 ar
     2    1    2 ar
     3    1   16 1
     4    2    3 ar
     5    2   17 1
     6    3    4 ar
     7    3   18 1
     8    4    5 ar
     9    4    7 1
    10    5    6 ar
    11    5   19 1
    12    6   20 1
    13    7    8 2
    14    7    9 1
    15    9   10 2
    16    9   21 1
    17   10   11 1
    18   10   22 1
    19   11   15 1
    20   11   12 2
    21   12   13 1
    22   12   23 1
    23   13   14 2
    24   13   24 1
    25   14   15 1
    26   14   25 1
@<TRIPOS>MOLECULE
ZINC25664385
   24    25     0     0     0
SMALL
USER_CHARGES
(E)-1-(2-pyridyl)-3-(2-thienyl)prop-2-en-1-one
@<TRIPOS>ATOM
      1 C1         -6.1002    1.7137    0.0408 C.ar      1 <0>        -0.0843
      2 C2         -6.0664    3.1000    0.0481 C.ar      1 <0>        -0.1461
      3 C3         -4.8431    3.7496    0.0454 C.ar      1 <0>         0.0950
      4 N1         -3.7169    3.0694    0.0364 N.ar      1 <0>        -0.4467
      5 C4         -3.7052    1.7422    0.0291 C.ar      1 <0>         0.0529
      6 C5         -4.8992    1.0234    0.0251 C.ar      1 <0>        -0.1163
      7 C6         -2.4118    1.0188    0.0190 C.2       1 <0>         0.4429
      8 O1         -2.3953   -0.1994    0.0123 O.2       1 <0>        -0.4566
      9 C7         -1.2004    1.7403    0.0172 C.2       1 <0>        -0.2364
     10 C8         -0.0126    1.0758    0.0080 C.2       1 <0>         0.0401
     11 C9          1.2010    1.7987    0.0003 C.2       1 <0>        -0.1801
     12 C10         2.5082    1.3193   -0.0148 C.2       1 <0>        -0.1079
     13 C11         3.5125    2.2522   -0.0202 C.2       1 <0>        -0.1741
     14 C12         3.1922    3.5746   -0.0107 C.2       1 <0>        -0.1956
     15 S1          1.4587    3.5641   -0.0007 S.3       1 <0>         0.1495
     16 H1         -7.0415    1.1842    0.0423 H         1 <0>         0.1426
     17 H2         -6.9852    3.6677    0.0563 H         1 <0>         0.1420
     18 H3         -4.8133    4.8291    0.0511 H         1 <0>         0.1646
     19 H4         -4.8883   -0.0565    0.0144 H         1 <0>         0.1466
     20 H5         -1.2153    2.8402    0.0232 H         1 <0>         0.1447
     21 H6          0.0023   -0.0241    0.0066 H         1 <0>         0.1527
     22 H7          2.7212    0.2606   -0.0216 H         1 <0>         0.1440
     23 H8          4.5467    1.9411   -0.0321 H         1 <0>         0.1376
     24 H9          3.8573    4.4254   -0.0135 H         1 <0>         0.1888
@<TRIPOS>BOND
     1    1    6 ar
     2    1    2 ar
     3    1   16 1
     4    2    3 ar
     5    2   17 1
     6    3    4 ar
     7    3   18 1
     8    4    5 ar
     9    5    6 ar
    10    5    7 1
    11    6   19 1
    12    7    8 2
    13    7    9 1
    14    9   10 2
    15    9   20 1
    16   10   11 1
    17   10   21 1
    18   11   15 1
    19   11   12 2
    20   12   13 1
    21   12   22 1
    22   13   14 2
    23   13   23 1
    24   14   15 1
    25   14   24 1
@<TRIPOS>MOLECULE
ZINC05705234
   24    25     0     0     0
SMALL
USER_CHARGES
(E)-3-(2-furyl)-1-(2-pyridyl)prop-2-en-1-one
@<TRIPOS>ATOM
      1 C1          0.0021   -0.0041    0.0020 C.ar      1 <0>        -0.0845
      2 C2         -0.0167    1.3825    0.0096 C.ar      1 <0>        -0.1455
      3 C3          1.1811    2.0781    0.0019 C.ar      1 <0>         0.0950
      4 N1          2.3322    1.4412   -0.0125 N.ar      1 <0>        -0.4461
      5 C4          2.3942    0.1153   -0.0202 C.ar      1 <0>         0.0520
      6 C5          1.2283   -0.6483   -0.0132 C.ar      1 <0>        -0.1159
      7 C6          3.7140   -0.5585   -0.0369 C.2       1 <0>         0.4409
      8 O1          3.7767   -1.7751   -0.0444 O.2       1 <0>        -0.4546
      9 C7          4.8977    0.2088   -0.0441 C.2       1 <0>        -0.2226
     10 C8          6.1096   -0.4099   -0.0594 C.2       1 <0>         0.0213
     11 C9          7.2951    0.3586   -0.0666 C.2       1 <0>        -0.0225
     12 C10         8.5860   -0.1351   -0.0765 C.2       1 <0>        -0.1521
     13 C11         9.4382    0.9778   -0.0829 C.2       1 <0>        -0.2214
     14 C12         8.6560    2.0814   -0.0690 C.2       1 <0>        -0.0096
     15 O2          7.3698    1.7062   -0.0592 O.3       1 <0>        -0.1609
     16 H1         -0.9185   -0.5689    0.0074 H         1 <0>         0.1429
     17 H2         -0.9563    1.9150    0.0170 H         1 <0>         0.1423
     18 H3          1.1699    3.1580    0.0078 H         1 <0>         0.1647
     19 H4          1.2802   -1.7271   -0.0198 H         1 <0>         0.1469
     20 H5          4.8422    1.2874   -0.0374 H         1 <0>         0.1466
     21 H6          6.1652   -1.4885   -0.0661 H         1 <0>         0.1591
     22 H7          8.8803   -1.1742   -0.0801 H         1 <0>         0.1586
     23 H8         10.5179    0.9579   -0.0932 H         1 <0>         0.1561
     24 H9          9.0113    3.1013   -0.0659 H         1 <0>         0.2093
@<TRIPOS>BOND
     1    1    6 ar
     2    1    2 ar
     3    1   16 1
     4    2    3 ar
     5    2   17 1
     6    3    4 ar
     7    3   18 1
     8    4    5 ar
     9    5    6 ar
    10    5    7 1
    11    6   19 1
    12    7    8 2
    13    7    9 1
    14    9   10 2
    15    9   20 1
    16   10   11 1
    17   10   21 1
    18   11   15 1
    19   11   12 2
    20   12   13 1
    21   12   22 1
    22   13   14 2
    23   13   23 1
    24   14   15 1
    25   14   24 1
@<TRIPOS>MOLECULE
ZINC01493320
   46    47     0     0     0
SMALL
USER_CHARGES
5-[(4-hydroxy-3,5-ditert-butyl-phenyl)methylene]thiazolidine-2,4-dione
@<TRIPOS>ATOM
      1 C1          4.2268   -1.0713   -0.1979 C.3       1 <0>        -0.1495
      2 C2          3.3264   -2.2212    0.2582 C.3       1 <0>        -0.0213
      3 C3          3.8261   -2.7584    1.6009 C.3       1 <0>        -0.1435
      4 C4          3.3616   -3.3407   -0.7840 C.3       1 <0>        -0.1434
      5 C5          1.9129   -1.7219    0.4116 C.ar      1 <0>        -0.0966
      6 C6          1.6174   -0.4036    0.1473 C.ar      1 <0>        -0.0696
      7 C7          0.3034    0.0591    0.2907 C.ar      1 <0>        -0.1045
      8 C8         -0.7020   -0.8218    0.7082 C.ar      1 <0>        -0.0804
      9 C9         -0.3963   -2.1394    0.9643 C.ar      1 <0>        -0.0913
     10 C10         0.9098   -2.5933    0.8203 C.ar      1 <0>         0.1484
     11 O1          1.2067   -3.8925    1.0793 O.3       1 <0>        -0.4826
     12 C11        -1.4783   -3.0901    1.4077 C.3       1 <0>        -0.0223
     13 C12        -2.8119   -2.3442    1.4858 C.3       1 <0>        -0.1518
     14 C13        -1.5934   -4.2368    0.4015 C.3       1 <0>        -0.1430
     15 C14        -1.1280   -3.6543    2.7861 C.3       1 <0>        -0.1431
     16 C15        -0.0178    1.4642    0.0101 C.2       1 <0>         0.0828
     17 C16        -1.3123    1.8706   -0.0240 C.2       1 <0>        -0.2229
     18 C17        -1.8682    3.2355   -0.1129 C.2       1 <0>         0.5623
     19 O2         -1.1495    4.2161   -0.1687 O.2       1 <0>        -0.4710
     20 N1         -3.1865    3.3387   -0.1282 N.am      1 <0>        -0.6853
     21 C18        -3.9792    2.2495   -0.0652 C.2       1 <0>         0.5286
     22 O3         -5.1945    2.1984   -0.0698 O.2       1 <0>        -0.4184
     23 S1         -2.8129    0.9000    0.0184 S.3       1 <0>        -0.0314
     24 H1          4.2017   -0.2737    0.5446 H         1 <0>         0.0595
     25 H2          5.2492   -1.4324   -0.3089 H         1 <0>         0.0623
     26 H3          3.8708   -0.6886   -1.1544 H         1 <0>         0.0601
     27 H4          3.1847   -3.5775    1.9259 H         1 <0>         0.0582
     28 H5          4.8485   -3.1195    1.4899 H         1 <0>         0.0631
     29 H6          3.8010   -1.9607    2.3434 H         1 <0>         0.0557
     30 H7          3.0056   -2.9580   -1.7405 H         1 <0>         0.0524
     31 H8          4.3840   -3.7019   -0.8949 H         1 <0>         0.0565
     32 H9          2.7202   -4.1599   -0.4590 H         1 <0>         0.0754
     33 H10         2.3975    0.2727   -0.1698 H         1 <0>         0.1414
     34 H11        -1.7160   -0.4691    0.8251 H         1 <0>         0.1448
     35 H12         1.4575   -4.0632    1.9974 H         1 <0>         0.3878
     36 H13        -3.0614   -1.9423    0.5039 H         1 <0>         0.0610
     37 H14        -3.5945   -3.0318    1.8065 H         1 <0>         0.0641
     38 H15        -2.7298   -1.5273    2.2027 H         1 <0>         0.0599
     39 H16        -0.6433   -4.7682    0.3458 H         1 <0>         0.0753
     40 H17        -2.3760   -4.9244    0.7222 H         1 <0>         0.0573
     41 H18        -1.8429   -3.8349   -0.5805 H         1 <0>         0.0528
     42 H19        -1.0460   -2.8373    3.5030 H         1 <0>         0.0555
     43 H20        -1.9106   -4.3419    3.1068 H         1 <0>         0.0639
     44 H21        -0.1779   -4.1856    2.7305 H         1 <0>         0.0581
     45 H22         0.7758    2.1733   -0.1735 H         1 <0>         0.1643
     46 H23        -3.5925    4.2177   -0.1857 H         1 <0>         0.4202
@<TRIPOS>BOND
     1    1    2 1
     2    1   24 1
     3    1   25 1
     4    1   26 1
     5    2    3 1
     6    2    4 1
     7    2    5 1
     8    3   27 1
     9    3   28 1
    10    3   29 1
    11    4   30 1
    12    4   31 1
    13    4   32 1
    14    5   10 ar
    15    5    6 ar
    16    6    7 ar
    17    6   33 1
    18    7    8 ar
    19    7   16 1
    20    8    9 ar
    21    8   34 1
    22    9   10 ar
    23    9   12 1
    24   10   11 1
    25   11   35 1
    26   12   13 1
    27   12   14 1
    28   12   15 1
    29   13   36 1
    30   13   37 1
    31   13   38 1
    32   14   39 1
    33   14   40 1
    34   14   41 1
    35   15   42 1
    36   15   43 1
    37   15   44 1
    38   16   17 2
    39   16   45 1
    40   17   23 1
    41   17   18 1
    42   18   19 2
    43   18   20 am
    44   20   21 am
    45   20   46 1
    46   21   22 2
    47   21   23 1
@<TRIPOS>MOLECULE
ZINC04252581
   37    38     0     0     0
SMALL
USER_CHARGES
3-(2,3-dimethoxyphenyl)-1-(2-hydroxyphenyl)-prop-2-en-1-one
@<TRIPOS>ATOM
      1 C1         -1.0726   -2.1257    0.0013 C.3       1 <0>         0.0235
      2 O1         -1.1665   -0.6998    0.0099 O.3       1 <0>        -0.3056
      3 C2          0.0021   -0.0041    0.0020 C.ar      1 <0>         0.1094
      4 C3          1.2109   -0.6808   -0.0132 C.ar      1 <0>        -0.1852
      5 C4          2.4062    0.0196   -0.0204 C.ar      1 <0>        -0.0852
      6 C5          2.4064    1.3969   -0.0134 C.ar      1 <0>        -0.1236
      7 C6          1.1934    2.0965    0.0019 C.ar      1 <0>        -0.0618
      8 C7         -0.0168    1.3861    0.0097 C.ar      1 <0>         0.0888
      9 O2         -1.1996    2.0527    0.0189 O.3       1 <0>        -0.3217
     10 C8         -1.7587    2.3643    1.2965 C.3       1 <0>         0.0342
     11 C9          1.1878    3.5650    0.0094 C.2       1 <0>        -0.0097
     12 C10         2.3561    4.2456    0.0019 C.2       1 <0>        -0.2290
     13 C11         2.3506    5.7067    0.0093 C.2       1 <0>         0.4210
     14 O3          1.2936    6.3115    0.0222 O.2       1 <0>        -0.4407
     15 C12         3.6264    6.4498    0.0011 C.ar      1 <0>        -0.1906
     16 C13         4.8412    5.7600   -0.0137 C.ar      1 <0>        -0.0596
     17 C14         6.0283    6.4594   -0.0213 C.ar      1 <0>        -0.1428
     18 C15         6.0235    7.8450   -0.0142 C.ar      1 <0>        -0.0720
     19 C16         4.8300    8.5393    0.0005 C.ar      1 <0>        -0.1606
     20 C17         3.6257    7.8516    0.0024 C.ar      1 <0>         0.1655
     21 O4          2.4522    8.5324    0.0111 O.3       1 <0>        -0.4809
     22 H1         -0.5449   -2.4497   -0.8957 H         1 <0>         0.0580
     23 H2         -0.5272   -2.4593    0.8841 H         1 <0>         0.0568
     24 H3         -2.0741   -2.5558    0.0089 H         1 <0>         0.1038
     25 H4          1.2214   -1.7607   -0.0191 H         1 <0>         0.1367
     26 H5          3.3432   -0.5175   -0.0318 H         1 <0>         0.1345
     27 H6          3.3416    1.9370   -0.0191 H         1 <0>         0.1354
     28 H7         -2.7008    2.8956    1.1610 H         1 <0>         0.0981
     29 H8         -1.9379    1.4421    1.8494 H         1 <0>         0.0491
     30 H9         -1.0640    2.9928    1.8537 H         1 <0>         0.0467
     31 H10         0.2505    4.1014    0.0208 H         1 <0>         0.1398
     32 H11         3.2934    3.7092   -0.0096 H         1 <0>         0.1351
     33 H12         4.8498    4.6800   -0.0189 H         1 <0>         0.1351
     34 H13         6.9669    5.9252   -0.0331 H         1 <0>         0.1327
     35 H14         6.9587    8.3851   -0.0205 H         1 <0>         0.1326
     36 H15         4.8343    9.6192    0.0059 H         1 <0>         0.1358
     37 H16         2.1181    8.7290    0.8970 H         1 <0>         0.3963
@<TRIPOS>BOND
     1    1    2 1
     2    1   22 1
     3    1   23 1
     4    1   24 1
     5    2    3 1
     6    3    8 ar
     7    3    4 ar
     8    4    5 ar
     9    4   25 1
    10    5    6 ar
    11    5   26 1
    12    6    7 ar
    13    6   27 1
    14    7    8 ar
    15    7   11 1
    16    8    9 1
    17    9   10 1
    18   10   28 1
    19   10   29 1
    20   10   30 1
    21   11   12 2
    22   11   31 1
    23   12   13 1
    24   12   32 1
    25   13   14 2
    26   13   15 1
    27   15   20 ar
    28   15   16 ar
    29   16   17 ar
    30   16   33 1
    31   17   18 ar
    32   17   34 1
    33   18   19 ar
    34   18   35 1
    35   19   20 ar
    36   19   36 1
    37   20   21 1
    38   21   37 1
@<TRIPOS>MOLECULE
ZINC00001655
   29    30     0     0     0
SMALL
USER_CHARGES

@<TRIPOS>ATOM
      1 C1          0.6464    1.4590   -0.0291 C.3       1 <0>        -0.1134
      2 C2          0.4033   -0.0283   -0.0363 C.ar      1 <0>        -0.0408
      3 C3          0.2472   -0.6967   -1.2370 C.ar      1 <0>        -0.1657
      4 C4          0.0235   -2.0611   -1.2487 C.ar      1 <0>        -0.0679
      5 C5         -0.0443   -2.7623   -0.0593 C.ar      1 <0>        -0.1035
      6 C6          0.1125   -2.0943    1.1490 C.ar      1 <0>         0.2889
      7 C7          0.3424   -0.7234    1.1565 C.ar      1 <0>        -0.0658
      8 Cl1         0.5456    0.1155    2.6627 Cl        1 <0>        -0.0657
      9 N1          0.0441   -2.8002    2.3544 N.pl3     1 <0>        -0.6647
     10 C8          0.2738   -4.1685    2.3711 C.ar      1 <0>         0.1811
     11 C9         -0.7785   -5.0514    2.5833 C.ar      1 <0>        -0.1380
     12 C10        -0.5475   -6.4110    2.5989 C.ar      1 <0>        -0.1237
     13 C11         0.7321   -6.9091    2.4043 C.ar      1 <0>        -0.1445
     14 C12         1.7883   -6.0519    2.1929 C.ar      1 <0>        -0.0789
     15 C13         1.5710   -4.6698    2.1677 C.ar      1 <0>        -0.1332
     16 C14         2.6930   -3.7482    1.9364 C.2       1 <0>         0.5171
     17 O1          3.7985   -4.1892    1.6527 O.co2     1 <0>        -0.6940
     18 O2          2.5212   -2.5401    2.0277 O.co2     1 <0>        -0.6627
     19 Cl2        -0.3257   -4.4753   -0.0751 Cl        1 <0>        -0.0573
     20 H1          1.7183    1.6522   -0.0719 H         1 <0>         0.0746
     21 H2          0.1609    1.9107   -0.8942 H         1 <0>         0.0660
     22 H3          0.2358    1.8898    0.8841 H         1 <0>         0.0698
     23 H4          0.2997   -0.1515   -2.1678 H         1 <0>         0.1283
     24 H5         -0.0986   -2.5795   -2.1882 H         1 <0>         0.1285
     25 H6         -0.1640   -2.3333    3.1788 H         1 <0>         0.4051
     26 H7         -1.7781   -4.6724    2.7365 H         1 <0>         0.1137
     27 H8         -1.3688   -7.0926    2.7642 H         1 <0>         0.1117
     28 H9          0.9010   -7.9758    2.4190 H         1 <0>         0.1112
     29 H10         2.7826   -6.4458    2.0424 H         1 <0>         0.1239
@<TRIPOS>BOND
     1    1    2 1
     2    1   20 1
     3    1   21 1
     4    1   22 1
     5    2    7 ar
     6    2    3 ar
     7    3    4 ar
     8    3   23 1
     9    4    5 ar
    10    4   24 1
    11    5    6 ar
    12    5   19 1
    13    6    7 ar
    14    6    9 1
    15    7    8 1
    16    9   10 1
    17    9   25 1
    18   10   15 ar
    19   10   11 ar
    20   11   12 ar
    21   11   26 1
    22   12   13 ar
    23   12   27 1
    24   13   14 ar
    25   13   28 1
    26   14   15 ar
    27   14   29 1
    28   15   16 1
    29   16   17 2
    30   16   18 1
@<TRIPOS>MOLECULE
ZINC53190892
   55    55     0     0     0
SMALL
NO_CHARGES

@<TRIPOS>ATOM
      1 C1          2.0918    0.5070    0.0259 C.3       1 <0>        -0.1497
      2 C2          1.4177   -0.5206    0.9373 C.3       1 <0>        -0.0879
      3 C3          1.3242    0.0409    2.3574 C.3       1 <0>        -0.1574
      4 C4          0.0118   -0.8215    0.4142 C.3       1 <0>        -0.1650
      5 C5         -0.6059   -1.9219    1.2381 C.2       1 <0>         0.3810
      6 O1          0.0145   -2.4146    2.1496 O.2       1 <0>        -0.4134
      7 C6         -1.9976   -2.4074    0.9246 C.3       1 <0>        -0.2440
      8 C7         -1.9593   -3.3326   -0.2749 C.2       1 <0>         0.3492
      9 C8         -1.3228   -4.6926   -0.0783 C.3       1 <0>         0.1010
     10 C9         -1.9079   -5.3203    1.1602 C.2       1 <0>         0.2407
     11 O2         -1.8848   -6.6605    1.2877 O.3       1 <0>        -0.3870
     12 C10        -2.4507   -4.5816    2.1395 C.2       1 <0>        -0.0865
     13 C11        -2.5422   -3.1861    2.0965 C.2       1 <0>         0.3754
     14 O3         -3.0678   -2.5924    3.0168 O.2       1 <0>        -0.3804
     15 C12        -2.9915   -5.2938    3.3525 C.3       1 <0>        -0.0666
     16 C13        -1.9387   -5.3202    4.4305 C.2       1 <0>        -0.1657
     17 C14        -2.1617   -4.7295    5.5784 C.2       1 <0>        -0.0922
     18 C15        -3.4721   -4.0263    5.8219 C.3       1 <0>        -0.1368
     19 C16        -1.1077   -4.7533    6.6553 C.3       1 <0>        -0.1215
     20 C17         0.1893   -4.5327    0.0918 C.3       1 <0>        -0.0900
     21 C18         0.8232   -5.8904    0.2522 C.2       1 <0>        -0.1616
     22 C19         1.6891   -6.3177   -0.6331 C.2       1 <0>        -0.1069
     23 C20         1.9987   -5.4823   -1.8485 C.3       1 <0>        -0.1256
     24 C21         2.3757   -7.6447   -0.4360 C.3       1 <0>        -0.1185
     25 O4         -1.5973   -5.5194   -1.2110 O.3       1 <0>        -0.5007
     26 O5         -2.4171   -2.9999   -1.3417 O.2       1 <0>        -0.3830
     27 H1          3.0935    0.7213    0.3985 H         1 <0>         0.0616
     28 H2          2.1584    0.1069   -0.9858 H         1 <0>         0.0572
     29 H3          1.5038    1.4247    0.0158 H         1 <0>         0.0579
     30 H4          2.0058   -1.4383    0.9474 H         1 <0>         0.0796
     31 H5          0.8440   -0.6912    3.0067 H         1 <0>         0.0674
     32 H6          2.3259    0.2553    2.7300 H         1 <0>         0.0588
     33 H7          0.7362    0.9586    2.3473 H         1 <0>         0.0532
     34 H8         -0.6028    0.0757    0.4873 H         1 <0>         0.1117
     35 H9          0.0714   -1.1373   -0.6273 H         1 <0>         0.1064
     36 H10        -3.8736   -4.7688    3.7189 H         1 <0>         0.1113
     37 H11        -3.2619   -6.3150    3.0838 H         1 <0>         0.1104
     38 H12        -1.0004   -5.8260    4.2568 H         1 <0>         0.1191
     39 H13        -4.2129   -4.7476    6.1667 H         1 <0>         0.0724
     40 H14        -3.3353   -3.2553    6.5802 H         1 <0>         0.0668
     41 H15        -3.8159   -3.5673    4.8950 H         1 <0>         0.0819
     42 H16        -0.4549   -3.8875    6.5439 H         1 <0>         0.0741
     43 H17        -1.5873   -4.7233    7.6337 H         1 <0>         0.0681
     44 H18        -0.5187   -5.6662    6.5671 H         1 <0>         0.0666
     45 H19         0.6037   -4.0398   -0.7876 H         1 <0>         0.0993
     46 H20         0.3936   -3.9295    0.9765 H         1 <0>         0.1064
     47 H21         0.5636   -6.5112    1.0970 H         1 <0>         0.1150
     48 H22         2.7515   -4.7360   -1.5943 H         1 <0>         0.0663
     49 H23         2.3776   -6.1242   -2.6437 H         1 <0>         0.0647
     50 H24         1.0911   -4.9823   -2.1865 H         1 <0>         0.0699
     51 H25         1.7845   -8.4325   -0.9029 H         1 <0>         0.0698
     52 H26         3.3648   -7.6134   -0.8930 H         1 <0>         0.0639
     53 H27         2.4744   -7.8479    0.6303 H         1 <0>         0.0627
     54 H28        -2.6459   -1.5567    0.7142 H         1 <0>         0.1647
     55 H29        -2.5395   -5.6674   -1.3709 H         1 <0>         0.3861
@<TRIPOS>BOND
     1    1    2 1
     2    1   27 1
     3    1   28 1
     4    1   29 1
     5    2    3 1
     6    2    4 1
     7    2   30 1
     8    3   31 1
     9    3   32 1
    10    3   33 1
    11    4    5 1
    12    4   34 1
    13    4   35 1
    14    5    6 2
    15    5    7 1
    16    7   13 1
    17    7    8 1
    18    7   54 1
    19    8    9 1
    20    8   26 2
    21    9   10 1
    22    9   20 1
    23    9   25 1
    24   10   11 1
    25   10   12 2
    26   12   13 1
    27   12   15 1
    28   13   14 2
    29   15   16 1
    30   15   36 1
    31   15   37 1
    32   16   17 2
    33   16   38 1
    34   17   18 1
    35   17   19 1
    36   18   39 1
    37   18   40 1
    38   18   41 1
    39   19   42 1
    40   19   43 1
    41   19   44 1
    42   20   21 1
    43   20   45 1
    44   20   46 1
    45   21   22 2
    46   21   47 1
    47   22   23 1
    48   22   24 1
    49   23   48 1
    50   23   49 1
    51   23   50 1
    52   24   51 1
    53   24   52 1
    54   24   53 1
    55   25   55 1
@<TRIPOS>MOLECULE
ZINC04042476
   41    42     0     0     0
SMALL
USER_CHARGES

@<TRIPOS>ATOM
      1 C1         -0.0173    1.4248    0.0099 C.3       1 <0>         0.0223
      2 O1          0.0021   -0.0041    0.0020 O.3       1 <0>        -0.3006
      3 C2         -1.2011   -0.6379    0.0101 C.ar      1 <0>         0.1481
      4 C3         -2.3693    0.0996    0.0195 C.ar      1 <0>        -0.2074
      5 C4         -3.6075   -0.5539    0.0278 C.ar      1 <0>        -0.0059
      6 C5         -3.6566   -1.9531    0.0266 C.ar      1 <0>        -0.2144
      7 C6         -2.4841   -2.6837    0.0171 C.ar      1 <0>         0.1481
      8 C7         -1.2541   -2.0299    0.0031 C.ar      1 <0>         0.0423
      9 O2         -0.1029   -2.7519   -0.0122 O.3       1 <0>        -0.3121
     10 C8          0.4593   -3.1034    1.2537 C.3       1 <0>         0.0352
     11 O3         -2.5308   -4.0428    0.0164 O.3       1 <0>        -0.3002
     12 C9         -3.8256   -4.6475    0.0256 C.3       1 <0>         0.0220
     13 C10        -4.8519    0.2266    0.0383 C.2       1 <0>        -0.0166
     14 C11        -6.0468   -0.4062    0.0464 C.2       1 <0>        -0.2232
     15 C12        -7.2846    0.3701    0.0568 C.2       1 <0>         0.4212
     16 O4         -7.2401    1.5872    0.0583 O.2       1 <0>        -0.4403
     17 C13        -8.5893   -0.3209    0.0656 C.ar      1 <0>        -0.1918
     18 C14        -8.6450   -1.7169    0.0697 C.ar      1 <0>        -0.0599
     19 C15        -9.8658   -2.3557    0.0778 C.ar      1 <0>        -0.1425
     20 C16       -11.0399   -1.6199    0.0819 C.ar      1 <0>        -0.0710
     21 C17       -10.9992   -0.2397    0.0780 C.ar      1 <0>        -0.1601
     22 C18        -9.7793    0.4199    0.0756 C.ar      1 <0>         0.1663
     23 O5         -9.7378    1.7760    0.0779 O.3       1 <0>        -0.4811
     24 H1          1.0053    1.8021    0.0021 H         1 <0>         0.1056
     25 H2         -0.5445    1.7859   -0.8732 H         1 <0>         0.0599
     26 H3         -0.5275    1.7763    0.9067 H         1 <0>         0.0588
     27 H4         -2.3275    1.1788    0.0208 H         1 <0>         0.1421
     28 H5         -4.6099   -2.4606    0.0333 H         1 <0>         0.1404
     29 H6          0.6896   -2.1969    1.8133 H         1 <0>         0.0456
     30 H7         -0.2561   -3.7048    1.8146 H         1 <0>         0.0455
     31 H8          1.3733   -3.6768    1.0987 H         1 <0>         0.0947
     32 H9         -4.3789   -4.3349   -0.8600 H         1 <0>         0.0591
     33 H10        -3.7200   -5.7323    0.0239 H         1 <0>         0.1058
     34 H11        -4.3655   -4.3364    0.9199 H         1 <0>         0.0580
     35 H12        -4.8125    1.3059    0.0397 H         1 <0>         0.1397
     36 H13        -6.0863   -1.4855    0.0450 H         1 <0>         0.1333
     37 H14        -7.7325   -2.2945    0.0661 H         1 <0>         0.1337
     38 H15        -9.9078   -3.4349    0.0806 H         1 <0>         0.1329
     39 H16       -11.9924   -2.1288    0.0880 H         1 <0>         0.1332
     40 H17       -11.9187    0.3270    0.0812 H         1 <0>         0.1364
     41 H18        -9.7322    2.1707   -0.8049 H         1 <0>         0.3967
@<TRIPOS>BOND
     1    1    2 1
     2    1   24 1
     3    1   25 1
     4    1   26 1
     5    2    3 1
     6    3    8 ar
     7    3    4 ar
     8    4    5 ar
     9    4   27 1
    10    5    6 ar
    11    5   13 1
    12    6    7 ar
    13    6   28 1
    14    7    8 ar
    15    7   11 1
    16    8    9 1
    17    9   10 1
    18   10   29 1
    19   10   30 1
    20   10   31 1
    21   11   12 1
    22   12   32 1
    23   12   33 1
    24   12   34 1
    25   13   14 2
    26   13   35 1
    27   14   15 1
    28   14   36 1
    29   15   16 2
    30   15   17 1
    31   17   22 ar
    32   17   18 ar
    33   18   19 ar
    34   18   37 1
    35   19   20 ar
    36   19   38 1
    37   20   21 ar
    38   20   39 1
    39   21   22 ar
    40   21   40 1
    41   22   23 1
    42   23   41 1
@<TRIPOS>MOLECULE
ZINC00000323
   30    31     0     0     0
SMALL
USER_CHARGES

@<TRIPOS>ATOM
      1 C1         -0.0187    1.5258    0.0104 C.3       1 <0>        -0.1172
      2 C2          0.0021   -0.0041    0.0020 C.3       1 <0>        -0.1347
      3 H1          0.5293   -0.3651    0.8851 H         1 <0>         0.0717
      4 C3         -1.4117   -0.5257    0.0127 C.ar      1 <0>        -0.0029
      5 C4         -2.2739   -0.2004   -1.0193 C.ar      1 <0>        -0.1133
      6 C5         -3.5699   -0.6745   -1.0160 C.ar      1 <0>        -0.0792
      7 C6         -4.0111   -1.4830    0.0296 C.ar      1 <0>        -0.1102
      8 C7         -3.1382   -1.8086    1.0683 C.ar      1 <0>         0.1050
      9 C8         -1.8402   -1.3319    1.0508 C.ar      1 <0>        -0.1571
     10 F1         -3.5585   -2.5916    2.0859 F         1 <0>        -0.1420
     11 C9         -5.4035   -1.9951    0.0386 C.ar      1 <0>        -0.0319
     12 C10        -6.4707   -1.1232   -0.1677 C.ar      1 <0>        -0.1071
     13 C11        -7.7639   -1.6051   -0.1582 C.ar      1 <0>        -0.1217
     14 C12        -8.0017   -2.9508    0.0555 C.ar      1 <0>        -0.1252
     15 C13        -6.9462   -3.8209    0.2608 C.ar      1 <0>        -0.1197
     16 C14        -5.6486   -3.3509    0.2476 C.ar      1 <0>        -0.1022
     17 C15         0.7074   -0.4901   -1.2379 C.2       1 <0>         0.5045
     18 O1          1.4615   -1.4461   -1.1751 O.co2     1 <0>        -0.6939
     19 O2          0.5241    0.0728   -2.3037 O.co2     1 <0>        -0.6870
     20 H2          1.0039    1.9031    0.0027 H         1 <0>         0.0509
     21 H3         -0.5459    1.8868   -0.8726 H         1 <0>         0.0620
     22 H4         -0.5289    1.8773    0.9072 H         1 <0>         0.0384
     23 H5         -1.9319    0.4266   -1.8295 H         1 <0>         0.1421
     24 H6         -4.2413   -0.4190   -1.8224 H         1 <0>         0.1287
     25 H7         -1.1615   -1.5863    1.8516 H         1 <0>         0.1327
     26 H8         -6.2861   -0.0722   -0.3342 H         1 <0>         0.1244
     27 H9         -8.5918   -0.9301   -0.3176 H         1 <0>         0.1216
     28 H10        -9.0153   -3.3236    0.0624 H         1 <0>         0.1193
     29 H11        -7.1375   -4.8706    0.4275 H         1 <0>         0.1216
     30 H12        -4.8249   -4.0319    0.4032 H         1 <0>         0.1224
@<TRIPOS>BOND
     1    1    2 1
     2    1   20 1
     3    1   21 1
     4    1   22 1
     5    2    3 1
     6    2    4 1
     7    2   17 1
     8    4    9 ar
     9    4    5 ar
    10    5    6 ar
    11    5   23 1
    12    6    7 ar
    13    6   24 1
    14    7    8 ar
    15    7   11 1
    16    8    9 ar
    17    8   10 1
    18    9   25 1
    19   11   16 ar
    20   11   12 ar
    21   12   13 ar
    22   12   26 1
    23   13   14 ar
    24   13   27 1
    25   14   15 ar
    26   14   28 1
    27   15   16 ar
    28   15   29 1
    29   16   30 1
    30   17   18 2
    31   17   19 1
@<TRIPOS>MOLECULE
ZINC00008667
   30    31     0     0     0
SMALL
USER_CHARGES

@<TRIPOS>ATOM
      1 C1         -0.0187    1.5258    0.0104 C.3       1 <0>        -0.1184
      2 C2          0.0021   -0.0041    0.0020 C.3       1 <0>        -0.1371
      3 H1          0.5293   -0.3651    0.8851 H         1 <0>         0.0739
      4 C3          0.7074   -0.4901   -1.2379 C.ar      1 <0>         0.0081
      5 C4          0.2191   -0.1492   -2.4867 C.ar      1 <0>        -0.0890
      6 C5          0.8599   -0.5907   -3.6263 C.ar      1 <0>        -0.0815
      7 C6          2.0018   -1.3819   -3.5188 C.ar      1 <0>        -0.1106
      8 C7          2.4909   -1.7233   -2.2573 C.ar      1 <0>         0.1030
      9 C8          1.8431   -1.2700   -1.1228 C.ar      1 <0>        -0.1621
     10 F1          3.5972   -2.4904   -2.1447 F         1 <0>        -0.1439
     11 C9          2.6946   -1.8598   -4.7406 C.ar      1 <0>        -0.0302
     12 C10         1.9703   -2.4751   -5.7597 C.ar      1 <0>        -0.1063
     13 C11         2.6199   -2.9178   -6.8941 C.ar      1 <0>        -0.1209
     14 C12         3.9873   -2.7517   -7.0205 C.ar      1 <0>        -0.1263
     15 C13         4.7112   -2.1416   -6.0120 C.ar      1 <0>        -0.1212
     16 C14         4.0711   -1.6899   -4.8757 C.ar      1 <0>        -0.1040
     17 C15        -1.4117   -0.5257    0.0127 C.2       1 <0>         0.5014
     18 O1         -1.8097   -1.2271   -0.9017 O.co2     1 <0>        -0.6850
     19 O2         -2.1576   -0.2463    0.9358 O.co2     1 <0>        -0.6947
     20 H2          1.0039    1.9031    0.0027 H         1 <0>         0.0416
     21 H3         -0.5459    1.8868   -0.8726 H         1 <0>         0.0493
     22 H4         -0.5289    1.8773    0.9072 H         1 <0>         0.0623
     23 H5         -0.6662    0.4638   -2.5699 H         1 <0>         0.1278
     24 H6          0.4768   -0.3237   -4.6001 H         1 <0>         0.1265
     25 H7          2.2224   -1.5294   -0.1454 H         1 <0>         0.1290
     26 H8          0.9027   -2.6057   -5.6619 H         1 <0>         0.1259
     27 H9          2.0597   -3.3952   -7.6844 H         1 <0>         0.1217
     28 H10         4.4917   -3.0999   -7.9097 H         1 <0>         0.1187
     29 H11         5.7787   -2.0147   -6.1157 H         1 <0>         0.1206
     30 H12         4.6365   -1.2093   -4.0910 H         1 <0>         0.1211
@<TRIPOS>BOND
     1    1    2 1
     2    1   20 1
     3    1   21 1
     4    1   22 1
     5    2    3 1
     6    2    4 1
     7    2   17 1
     8    4    9 ar
     9    4    5 ar
    10    5    6 ar
    11    5   23 1
    12    6    7 ar
    13    6   24 1
    14    7    8 ar
    15    7   11 1
    16    8    9 ar
    17    8   10 1
    18    9   25 1
    19   11   16 ar
    20   11   12 ar
    21   12   13 ar
    22   12   26 1
    23   13   14 ar
    24   13   27 1
    25   14   15 ar
    26   14   28 1
    27   15   16 ar
    28   15   29 1
    29   16   30 1
    30   17   18 2
    31   17   19 1
@<TRIPOS>MOLECULE
ZINC00601283
   40    42     0     0     0
SMALL
USER_CHARGES

@<TRIPOS>ATOM
      1 C1         -0.0182    1.5027    0.0102 C.3       1 <0>        -0.0883
      2 C2          0.0021   -0.0042    0.0020 C.2       1 <0>         0.0711
      3 C3          0.0074   -0.7679   -1.0995 C.2       1 <0>        -0.0782
      4 C4          0.0293   -2.1662   -0.6567 C.ar      1 <0>        -0.0368
      5 C5          0.0428   -3.3917   -1.3243 C.ar      1 <0>        -0.0938
      6 C6          0.0625   -4.5656   -0.5961 C.ar      1 <0>         0.0956
      7 C7          0.0688   -4.5275    0.7953 C.ar      1 <0>        -0.1804
      8 C8          0.0551   -3.3226    1.4635 C.ar      1 <0>        -0.0946
      9 C9          0.0357   -2.1316    0.7482 C.ar      1 <0>         0.0803
     10 N1          0.0240   -0.7990    1.1223 N.am      1 <0>        -0.5123
     11 C10         0.0297   -0.3494    2.3928 C.2       1 <0>         0.6115
     12 O1         -1.0174   -0.0751    2.9450 O.2       1 <0>        -0.4412
     13 C11         1.3084   -0.1902    3.1139 C.ar      1 <0>        -0.1622
     14 C12         2.5190   -0.3985    2.4491 C.ar      1 <0>        -0.0360
     15 C13         3.7097   -0.2483    3.1279 C.ar      1 <0>        -0.1193
     16 C14         3.7070    0.1084    4.4664 C.ar      1 <0>         0.0005
     17 C15         2.5096    0.3160    5.1314 C.ar      1 <0>        -0.1284
     18 C16         1.3125    0.1750    4.4621 C.ar      1 <0>        -0.0426
     19 Cl1         5.2103    0.2955    5.3141 Cl        1 <0>        -0.0622
     20 O2          0.0753   -5.7626   -1.2410 O.3       1 <0>        -0.3182
     21 C17         0.0954   -6.9375   -0.4278 C.3       1 <0>         0.0304
     22 C18        -0.0069   -0.2812   -2.5257 C.3       1 <0>        -0.1253
     23 C19         1.4090   -0.0991   -3.0085 C.2       1 <0>         0.4982
     24 O3          2.3431   -0.3421   -2.2636 O.co2     1 <0>        -0.6866
     25 O4          1.6204    0.2911   -4.1441 O.co2     1 <0>        -0.7049
     26 H1          1.0044    1.8799    0.0025 H         1 <0>         0.0804
     27 H2         -0.5453    1.8638   -0.8729 H         1 <0>         0.0881
     28 H3         -0.5284    1.8543    0.9070 H         1 <0>         0.0568
     29 H4          0.0376   -3.4222   -2.4038 H         1 <0>         0.1332
     30 H5          0.0842   -5.4504    1.3560 H         1 <0>         0.1288
     31 H6          0.0595   -3.3039    2.5434 H         1 <0>         0.1161
     32 H7          2.5224   -0.6770    1.4056 H         1 <0>         0.1519
     33 H8          4.6464   -0.4095    2.6151 H         1 <0>         0.1453
     34 H9          2.5140    0.5936    6.1751 H         1 <0>         0.1420
     35 H10         0.3798    0.3418    4.9804 H         1 <0>         0.1449
     36 H11         0.9887   -6.9318    0.1968 H         1 <0>         0.0516
     37 H12        -0.7911   -6.9558    0.2062 H         1 <0>         0.0506
     38 H13         0.1040   -7.8210   -1.0660 H         1 <0>         0.0947
     39 H14        -0.5139   -1.0132   -3.1543 H         1 <0>         0.0698
     40 H15        -0.5343    0.6712   -2.5793 H         1 <0>         0.0692
@<TRIPOS>BOND
     1    1    2 1
     2    1   26 1
     3    1   27 1
     4    1   28 1
     5    2   10 1
     6    2    3 2
     7    3    4 1
     8    3   22 1
     9    4    9 ar
    10    4    5 ar
    11    5    6 ar
    12    5   29 1
    13    6    7 ar
    14    6   20 1
    15    7    8 ar
    16    7   30 1
    17    8    9 ar
    18    8   31 1
    19    9   10 1
    20   10   11 am
    21   11   12 2
    22   11   13 1
    23   13   18 ar
    24   13   14 ar
    25   14   15 ar
    26   14   32 1
    27   15   16 ar
    28   15   33 1
    29   16   17 ar
    30   16   19 1
    31   17   18 ar
    32   17   34 1
    33   18   35 1
    34   20   21 1
    35   21   36 1
    36   21   37 1
    37   21   38 1
    38   22   23 1
    39   22   39 1
    40   22   40 1
    41   23   24 2
    42   23   25 1
@<TRIPOS>MOLECULE
ZINC03791739
   39    40     0     0     0
SMALL
USER_CHARGES

@<TRIPOS>ATOM
      1 C1          0.3342    2.3833    0.0426 C.3       1 <0>        -0.6679
      2 S1          0.0362    0.5945    0.0858 S.o2      1 <0>         2.6052
      3 O1          0.7948   -0.0031    1.1282 O.2       1 <0>        -0.9432
      4 O2         -1.3533    0.3265   -0.0441 O.2       1 <0>        -0.9389
      5 N1          0.7104    0.0168   -1.3120 N.pl3     1 <0>        -1.0450
      6 C2          2.0741    0.2082   -1.5624 C.ar      1 <0>         0.1782
      7 C3          2.9850    0.1716   -0.5167 C.ar      1 <0>        -0.1418
      8 C4          4.3313    0.3609   -0.7665 C.ar      1 <0>        -0.0551
      9 C5          4.7733    0.5869   -2.0568 C.ar      1 <0>        -0.0270
     10 C6          3.8710    0.6252   -3.1041 C.ar      1 <0>        -0.1307
     11 C7          2.5211    0.4303   -2.8631 C.ar      1 <0>         0.1189
     12 O3          1.6333    0.4612   -3.8930 O.3       1 <0>        -0.2967
     13 C8          2.1434    0.8205   -5.1786 C.3       1 <0>         0.0810
     14 C9          2.7350   -0.4170   -5.8565 C.3       1 <0>        -0.1482
     15 C10         3.2811   -0.0324   -7.2330 C.3       1 <0>        -0.1185
     16 C11         2.1466    0.5273   -8.0936 C.3       1 <0>        -0.1253
     17 C12         1.5550    1.7647   -7.4157 C.3       1 <0>        -0.1174
     18 C13         1.0089    1.3801   -6.0392 C.3       1 <0>        -0.1134
     19 N2          6.2160    0.7889   -2.3180 N.pl3     1 <0>         0.0336
     20 O4          7.0063    0.7562   -1.4036 O.2       1 <0>        -0.1487
     21 O5          6.6044    0.9867   -3.4457 O.3       1 <0>        -0.1578
     22 H1          1.4071    2.5721    0.0045 H         1 <0>         0.1303
     23 H2         -0.1414    2.8097   -0.8406 H         1 <0>         0.1349
     24 H3         -0.0840    2.8431    0.9381 H         1 <0>         0.1402
     25 H4          0.1603   -0.4541   -1.9573 H         1 <0>         0.4368
     26 H5          2.6424   -0.0044    0.4923 H         1 <0>         0.1899
     27 H6          5.0395    0.3326    0.0483 H         1 <0>         0.1655
     28 H7          4.2196    0.8023   -4.1108 H         1 <0>         0.1655
     29 H8          2.9192    1.5774   -5.0632 H         1 <0>         0.0785
     30 H9          3.5432   -0.8157   -5.2434 H         1 <0>         0.0688
     31 H10         1.9592   -1.1739   -5.9720 H         1 <0>         0.0787
     32 H11         4.0569    0.7245   -7.1176 H         1 <0>         0.0677
     33 H12         3.7026   -0.9140   -7.7160 H         1 <0>         0.0725
     34 H13         2.5357    0.8013   -9.0743 H         1 <0>         0.0692
     35 H14         1.3708   -0.2296   -8.2091 H         1 <0>         0.0661
     36 H15         2.3308    2.5216   -7.3003 H         1 <0>         0.0668
     37 H16         0.7468    2.1634   -8.0288 H         1 <0>         0.0749
     38 H17         0.2331    0.6232   -6.1547 H         1 <0>         0.0779
     39 H18         0.5874    2.2617   -5.5563 H         1 <0>         0.0740
@<TRIPOS>BOND
     1    1    2 1
     2    1   22 1
     3    1   23 1
     4    1   24 1
     5    2    3 2
     6    2    4 2
     7    2    5 1
     8    5    6 1
     9    5   25 1
    10    6   11 ar
    11    6    7 ar
    12    7    8 ar
    13    7   26 1
    14    8    9 ar
    15    8   27 1
    16    9   10 ar
    17    9   19 1
    18   10   11 ar
    19   10   28 1
    20   11   12 1
    21   12   13 1
    22   13   18 1
    23   13   14 1
    24   13   29 1
    25   14   15 1
    26   14   30 1
    27   14   31 1
    28   15   16 1
    29   15   32 1
    30   15   33 1
    31   16   17 1
    32   16   34 1
    33   16   35 1
    34   17   18 1
    35   17   36 1
    36   17   37 1
    37   18   38 1
    38   18   39 1
    39   19   20 2
    40   19   21 1
@<TRIPOS>MOLECULE
ZINC03791739
   38    39     0     0     0
SMALL
USER_CHARGES

@<TRIPOS>ATOM
      1 C1          0.2127    1.7212    0.2031 C.3       1 <0>        -0.6338
      2 S1         -0.0163   -0.0679    0.0103 S.o2      1 <0>         2.5267
      3 O1          0.6837   -0.7639    1.0325 O.2       1 <0>        -1.0204
      4 O2         -1.3799   -0.3603   -0.2620 O.2       1 <0>        -1.0203
      5 N1          0.7853   -0.4514   -1.3871 N.2       1 <0>        -1.0560
      6 C2          0.8097   -1.7759   -1.8389 C.ar      1 <0>         0.3189
      7 C3          0.1583   -2.7679   -1.1206 C.ar      1 <0>        -0.2458
      8 C4          0.1839   -4.0752   -1.5688 C.ar      1 <0>        -0.0134
      9 C5          0.8576   -4.3975   -2.7323 C.ar      1 <0>        -0.1308
     10 C6          1.5096   -3.4140   -3.4533 C.ar      1 <0>        -0.1230
     11 C7          1.4835   -2.1006   -3.0143 C.ar      1 <0>         0.0762
     12 O3          2.1189   -1.1312   -3.7259 O.3       1 <0>        -0.2762
     13 C8          2.8930   -1.5537   -4.8503 C.3       1 <0>         0.0791
     14 C9          1.9835   -1.6908   -6.0730 C.3       1 <0>        -0.1456
     15 C10         2.8123   -2.1432   -7.2769 C.3       1 <0>        -0.1168
     16 C11         3.9011   -1.1076   -7.5647 C.3       1 <0>        -0.1211
     17 C12         4.8105   -0.9704   -6.3420 C.3       1 <0>        -0.1155
     18 C13         3.9817   -0.5181   -5.1381 C.3       1 <0>        -0.1114
     19 N2          0.8815   -5.7991   -3.2072 N.pl3     1 <0>         0.0677
     20 O4          0.3123   -6.6604   -2.5779 O.2       1 <0>        -0.2097
     21 O5          1.4701   -6.0828   -4.2244 O.3       1 <0>        -0.2116
     22 H1          1.2769    1.9458    0.2741 H         1 <0>         0.1187
     23 H2         -0.2107    2.2366   -0.6590 H         1 <0>         0.1188
     24 H3         -0.2907    2.0563    1.1100 H         1 <0>         0.1065
     25 H4         -0.3684   -2.5189   -0.2112 H         1 <0>         0.1297
     26 H5         -0.3233   -4.8468   -1.0086 H         1 <0>         0.1346
     27 H6          2.0352   -3.6693   -4.3616 H         1 <0>         0.1416
     28 H7          3.3556   -2.5162   -4.6319 H         1 <0>         0.0672
     29 H8          1.2078   -2.4287   -5.8680 H         1 <0>         0.0689
     30 H9          1.5208   -0.7284   -6.2915 H         1 <0>         0.0722
     31 H10         3.2750   -3.1057   -7.0585 H         1 <0>         0.0645
     32 H11         2.1644   -2.2409   -8.1480 H         1 <0>         0.0642
     33 H12         4.4915   -1.4298   -8.4224 H         1 <0>         0.0609
     34 H13         3.4384   -0.1451   -7.7832 H         1 <0>         0.0625
     35 H14         5.2732   -1.9329   -6.1236 H         1 <0>         0.0634
     36 H15         5.5862   -0.2326   -6.5471 H         1 <0>         0.0662
     37 H16         3.5191    0.4444   -5.3566 H         1 <0>         0.0724
     38 H17         4.6297   -0.4204   -4.2671 H         1 <0>         0.0707
@<TRIPOS>BOND
     1    1    2 1
     2    1   22 1
     3    1   23 1
     4    1   24 1
     5    2    3 2
     6    2    4 2
     7    2    5 1
     8    5    6 1
     9    6   11 ar
    10    6    7 ar
    11    7    8 ar
    12    7   25 1
    13    8    9 ar
    14    8   26 1
    15    9   10 ar
    16    9   19 1
    17   10   11 ar
    18   10   27 1
    19   11   12 1
    20   12   13 1
    21   13   18 1
    22   13   14 1
    23   13   28 1
    24   14   15 1
    25   14   29 1
    26   14   30 1
    27   15   16 1
    28   15   31 1
    29   15   32 1
    30   16   17 1
    31   16   33 1
    32   16   34 1
    33   17   18 1
    34   17   35 1
    35   17   36 1
    36   18   37 1
    37   18   38 1
    38   19   20 2
    39   19   21 1
@<TRIPOS>MOLECULE
ZINC13761819
   39    41     0     0     0
SMALL
USER_CHARGES

@<TRIPOS>ATOM
      1 C1          1.1531   -0.5871   -0.5569 C.ar      1 <0>        -0.1149
      2 C2          2.3269    0.1106   -0.5762 C.ar      1 <0>        -0.0850
      3 C3          2.3768    1.4097   -0.0585 C.ar      1 <0>        -0.1007
      4 C4          1.2236    1.9927    0.4785 C.ar      1 <0>        -0.0877
      5 C5          0.0506    1.2935    0.4970 C.ar      1 <0>        -0.0907
      6 C6          0.0018   -0.0040   -0.0202 C.ar      1 <0>        -0.0809
      7 C7         -1.2673   -0.7595    0.0003 C.2       1 <0>         0.1713
      8 C8         -2.5377   -0.2259    0.0132 C.2       1 <0>        -0.2184
      9 C9         -3.4427   -1.2867    0.0309 C.2       1 <0>        -0.0053
     10 N1         -2.7723   -2.4115    0.0290 N.2       1 <0>        -0.2339
     11 N2         -1.4029   -2.1196    0.0040 N.pl3     1 <0>        -0.3183
     12 C10        -0.3593   -3.0537   -0.0113 C.ar      1 <0>         0.2028
     13 C11         0.7315   -2.8922    0.8328 C.ar      1 <0>        -0.1241
     14 C12         1.7587   -3.8153    0.8156 C.ar      1 <0>        -0.0024
     15 C13         1.7019   -4.8993   -0.0412 C.ar      1 <0>        -0.6755
     16 C14         0.6170   -5.0629   -0.8830 C.ar      1 <0>        -0.0014
     17 C15        -0.4161   -4.1463   -0.8665 C.ar      1 <0>        -0.1268
     18 S1          3.0149   -6.0741   -0.0609 S.o2      1 <0>         2.7031
     19 O1          2.9813   -6.6994   -1.3364 O.2       1 <0>        -0.9603
     20 O2          4.1679   -5.4028    0.4283 O.2       1 <0>        -0.9506
     21 N3          2.6416   -7.2442    1.0499 N.pl3     1 <0>        -1.2479
     22 C16        -4.9442   -1.1595    0.0491 C.3       1 <0>         0.5594
     23 F1         -5.4255   -1.1279   -1.2641 F         1 <0>        -0.1663
     24 F2         -5.4968   -2.2544    0.7221 F         1 <0>        -0.1672
     25 F3         -5.3042    0.0220    0.7062 F         1 <0>        -0.1623
     26 C17         3.6425    2.1629   -0.0785 C.2       1 <0>         0.5152
     27 O3          4.6505    1.6527   -0.5477 O.co2     1 <0>        -0.6790
     28 O4          3.6856    3.2986    0.3742 O.co2     1 <0>        -0.6808
     29 H1          1.1134   -1.5881   -0.9605 H         1 <0>         0.1155
     30 H2          3.2166   -0.3402   -0.9906 H         1 <0>         0.1351
     31 H3          1.2613    2.9952    0.8786 H         1 <0>         0.1369
     32 H4         -0.8395    1.7433    0.9115 H         1 <0>         0.1254
     33 H5         -2.7875    0.8248    0.0105 H         1 <0>         0.1714
     34 H6          0.7768   -2.0455    1.5017 H         1 <0>         0.1483
     35 H7          2.6073   -3.6903    1.4718 H         1 <0>         0.1580
     36 H8          0.5757   -5.9102   -1.5513 H         1 <0>         0.1540
     37 H9         -1.2650   -4.2768   -1.5212 H         1 <0>         0.1448
     38 H10         2.9504   -8.1543    0.9181 H         1 <0>         0.4214
     39 H11         2.1141   -7.0196    1.8323 H         1 <0>         0.4176
@<TRIPOS>BOND
     1    1    6 ar
     2    1    2 ar
     3    1   29 1
     4    2    3 ar
     5    2   30 1
     6    3    4 ar
     7    3   26 1
     8    4    5 ar
     9    4   31 1
    10    5    6 ar
    11    5   32 1
    12    6    7 1
    13    7   11 1
    14    7    8 2
    15    8    9 1
    16    8   33 1
    17    9   10 2
    18    9   22 1
    19   10   11 1
    20   11   12 1
    21   12   17 ar
    22   12   13 ar
    23   13   14 ar
    24   13   34 1
    25   14   15 ar
    26   14   35 1
    27   15   16 ar
    28   15   18 1
    29   16   17 ar
    30   16   36 1
    31   17   37 1
    32   18   19 2
    33   18   20 2
    34   18   21 1
    35   21   38 1
    36   21   39 1
    37   22   23 1
    38   22   24 1
    39   22   25 1
    40   26   27 2
    41   26   28 1
@<TRIPOS>MOLECULE
ZINC13761818
   41    43     0     0     0
SMALL
USER_CHARGES

@<TRIPOS>ATOM
      1 C1          1.1568   -0.5872    0.5405 C.ar      1 <0>        -0.0934
      2 C2          2.3470    0.1105    0.5233 C.ar      1 <0>        -0.1058
      3 C3          2.3848    1.4070    0.0090 C.ar      1 <0>        -0.0458
      4 C4          1.2172    1.9895   -0.4851 C.ar      1 <0>        -0.0835
      5 C5          0.0334    1.2812   -0.4622 C.ar      1 <0>        -0.0949
      6 C6          0.0025   -0.0039    0.0491 C.ar      1 <0>        -0.0719
      7 C7         -1.2940   -0.7718    0.0710 C.3       1 <0>         0.1117
      8 O1         -1.9754   -0.5210    1.3017 O.3       1 <0>        -0.5666
      9 C8          3.6574    2.1609   -0.0121 C.2       1 <0>         0.1462
     10 C9          3.7937    3.5206   -0.0044 C.2       1 <0>        -0.2014
     11 C10         5.1574    3.8142   -0.0304 C.2       1 <0>        -0.0037
     12 N1          5.8274    2.6894   -0.0529 N.2       1 <0>        -0.2166
     13 N2          4.9143    1.6272   -0.0367 N.pl3     1 <0>        -0.3172
     14 C11         5.2330    0.2632   -0.0472 C.ar      1 <0>         0.1986
     15 C12         4.5596   -0.6021   -0.8994 C.ar      1 <0>        -0.1315
     16 C13         4.8764   -1.9464   -0.9077 C.ar      1 <0>        -0.0009
     17 C14         5.8627   -2.4310   -0.0682 C.ar      1 <0>        -0.6728
     18 C15         6.5347   -1.5719    0.7819 C.ar      1 <0>         0.0017
     19 C16         6.2268   -0.2256    0.7904 C.ar      1 <0>        -0.1232
     20 S1          6.2635   -4.1467   -0.0815 S.o2      1 <0>         2.7036
     21 O2          6.8404   -4.4388    1.1839 O.2       1 <0>        -0.9568
     22 O3          5.1168   -4.8279   -0.5714 O.2       1 <0>        -0.9572
     23 N3          7.4587   -4.3616   -1.2074 N.pl3     1 <0>        -1.2487
     24 C17         5.7592    5.1959   -0.0322 C.3       1 <0>         0.5582
     25 F1          5.9727    5.6132    1.2859 F         1 <0>        -0.1634
     26 F2          6.9787    5.1724   -0.7173 F         1 <0>        -0.1638
     27 F3          4.8847    6.0845   -0.6669 F         1 <0>        -0.1609
     28 H1          1.1271   -1.5924    0.9343 H         1 <0>         0.1327
     29 H2          3.2474   -0.3457    0.9075 H         1 <0>         0.1269
     30 H3          1.2399    2.9928   -0.8842 H         1 <0>         0.1362
     31 H4         -0.8711    1.7310   -0.8443 H         1 <0>         0.1344
     32 H5         -1.9196   -0.4522   -0.7624 H         1 <0>         0.0595
     33 H6         -1.0863   -1.8381   -0.0186 H         1 <0>         0.0596
     34 H7         -2.8202   -0.9842    1.3850 H         1 <0>         0.3849
     35 H8          2.9887    4.2402    0.0175 H         1 <0>         0.1740
     36 H9          3.7887   -0.2243   -1.5547 H         1 <0>         0.1459
     37 H10         4.3531   -2.6198   -1.5702 H         1 <0>         0.1582
     38 H11         7.3040   -1.9535    1.4368 H         1 <0>         0.1581
     39 H12         6.7553    0.4456    1.4512 H         1 <0>         0.1481
     40 H13         7.7964   -3.6021   -1.7073 H         1 <0>         0.4178
     41 H14         7.8212   -5.2471   -1.3669 H         1 <0>         0.4235
@<TRIPOS>BOND
     1    1    6 ar
     2    1    2 ar
     3    1   28 1
     4    2    3 ar
     5    2   29 1
     6    3    4 ar
     7    3    9 1
     8    4    5 ar
     9    4   30 1
    10    5    6 ar
    11    5   31 1
    12    6    7 1
    13    7    8 1
    14    7   32 1
    15    7   33 1
    16    8   34 1
    17    9   13 1
    18    9   10 2
    19   10   11 1
    20   10   35 1
    21   11   12 2
    22   11   24 1
    23   12   13 1
    24   13   14 1
    25   14   19 ar
    26   14   15 ar
    27   15   16 ar
    28   15   36 1
    29   16   17 ar
    30   16   37 1
    31   17   18 ar
    32   17   20 1
    33   18   19 ar
    34   18   38 1
    35   19   39 1
    36   20   21 2
    37   20   22 2
    38   20   23 1
    39   23   40 1
    40   23   41 1
    41   24   25 1
    42   24   26 1
    43   24   27 1
@<TRIPOS>MOLECULE
ZINC26403083
   32    33     0     0     0
SMALL
USER_CHARGES
2-[2-[(2-chloro-6-methyl-phenyl)amino]phenyl]acetic acid
@<TRIPOS>ATOM
      1 C1         -2.1562    3.0509    2.5103 C.3       1 <0>        -0.1083
      2 C2         -1.0960    3.1192    1.4415 C.ar      1 <0>        -0.0776
      3 C3          0.0520    3.8582    1.6525 C.ar      1 <0>        -0.1166
      4 C4          1.0251    3.9225    0.6725 C.ar      1 <0>        -0.1116
      5 C5          0.8535    3.2476   -0.5225 C.ar      1 <0>        -0.1183
      6 C6         -0.2916    2.5058   -0.7402 C.ar      1 <0>        -0.0405
      7 C7         -1.2744    2.4436    0.2415 C.ar      1 <0>         0.1705
      8 N1         -2.4369    1.6990    0.0228 N.pl3     1 <0>        -0.7095
      9 C8         -2.4294    0.3167    0.2254 C.ar      1 <0>         0.2341
     10 C9         -1.2399   -0.3371    0.5225 C.ar      1 <0>        -0.1875
     11 C10        -1.2369   -1.7028    0.7263 C.ar      1 <0>        -0.0954
     12 C11        -2.4145   -2.4212    0.6256 C.ar      1 <0>        -0.1746
     13 C12        -3.5991   -1.7746    0.3249 C.ar      1 <0>        -0.0780
     14 C13        -3.6102   -0.4080    0.1246 C.ar      1 <0>        -0.0950
     15 C14        -4.9018    0.2960   -0.2026 C.3       1 <0>        -0.1242
     16 C15        -5.0316    0.4387   -1.6972 C.2       1 <0>         0.4609
     17 O1         -4.1641    0.0125   -2.4223 O.co2     1 <0>        -0.6193
     18 O2         -6.1108    1.0394   -2.2229 O.co2     1 <0>        -0.7780
     19 Cl1        -0.5063    1.6583   -2.2400 Cl        1 <0>        -0.0397
     20 H1         -1.8385    3.6443    3.3803 H         1 <0>         0.0633
     21 H2         -2.3034    2.0041    2.8144 H         1 <0>         0.0738
     22 H3         -3.1006    3.4545    2.1163 H         1 <0>         0.0721
     23 H4          0.1893    4.3868    2.5843 H         1 <0>         0.1267
     24 H5          1.9213    4.5014    0.8404 H         1 <0>         0.1285
     25 H6          1.6155    3.3002   -1.2861 H         1 <0>         0.1308
     26 H7         -3.3576    2.2014   -0.3088 H         1 <0>         0.4343
     27 H8         -0.3194    0.2227    0.5976 H         1 <0>         0.1071
     28 H9         -0.3132   -2.2111    0.9606 H         1 <0>         0.1094
     29 H10        -2.4086   -3.4898    0.7818 H         1 <0>         0.1093
     30 H11        -4.5167   -2.3387    0.2464 H         1 <0>         0.1133
     31 H12        -5.7476   -0.2911    0.1845 H         1 <0>         0.0741
     32 H13        -4.9041    1.2929    0.2625 H         1 <0>         0.0662
@<TRIPOS>BOND
     1    1    2 1
     2    1   20 1
     3    1   21 1
     4    1   22 1
     5    2    7 ar
     6    2    3 ar
     7    3    4 ar
     8    3   23 1
     9    4    5 ar
    10    4   24 1
    11    5    6 ar
    12    5   25 1
    13    6    7 ar
    14    6   19 1
    15    7    8 1
    16    8    9 1
    17    8   26 1
    18    9   14 ar
    19    9   10 ar
    20   10   11 ar
    21   10   27 1
    22   11   12 ar
    23   11   28 1
    24   12   13 ar
    25   12   29 1
    26   13   14 ar
    27   13   30 1
    28   14   15 1
    29   15   16 1
    30   15   31 1
    31   15   32 1
    32   16   17 2
    33   16   18 1
@<TRIPOS>MOLECULE
ZINC03864891
   22    23     0     0     0
SMALL
USER_CHARGES
1,3-bis(2-thienyl)prop-2-en-1-one
@<TRIPOS>ATOM
      1 C1         -1.0898    1.9051    0.0167 C.2       1 <0>        -0.1745
      2 C2         -0.8909    3.2626    0.0281 C.2       1 <0>        -0.1030
      3 C3          0.4266    3.7075    0.0179 C.2       1 <0>        -0.1843
      4 S1          1.3318    2.1702    0.0010 S.3       1 <0>         0.1420
      5 C4         -0.0126    1.0758    0.0080 C.2       1 <0>        -0.1898
      6 C5          0.9205    5.0337    0.0203 C.2       1 <0>         0.0531
      7 C6          2.2589    5.2595    0.0082 C.2       1 <0>        -0.2462
      8 C7          2.7530    6.5862    0.0107 C.2       1 <0>         0.4706
      9 O1          1.9759    7.5264    0.0236 O.2       1 <0>        -0.4565
     10 C8          4.2004    6.8304   -0.0024 C.2       1 <0>        -0.2577
     11 C9          4.8831    8.0371   -0.0025 C.2       1 <0>        -0.0759
     12 C10         6.2548    7.9791   -0.0165 C.2       1 <0>        -0.1807
     13 C11         6.8674    6.7662   -0.0293 C.2       1 <0>        -0.1840
     14 S2          5.5396    5.6517   -0.0144 S.3       1 <0>         0.1541
     15 H1         -2.0909    1.4999    0.0184 H         1 <0>         0.1390
     16 H2         -1.7201    3.9545    0.0401 H         1 <0>         0.1453
     17 H3          0.0021   -0.0041    0.0020 H         1 <0>         0.1898
     18 H4          0.2325    5.8661    0.0318 H         1 <0>         0.1521
     19 H5          2.9469    4.4271   -0.0032 H         1 <0>         0.1289
     20 H6          4.3588    8.9813    0.0076 H         1 <0>         0.1464
     21 H7          6.8400    8.8868   -0.0170 H         1 <0>         0.1401
     22 H8          7.9252    6.5491   -0.0408 H         1 <0>         0.1911
@<TRIPOS>BOND
     1    1    5 2
     2    1    2 1
     3    1   15 1
     4    2    3 2
     5    2   16 1
     6    3    4 1
     7    3    6 1
     8    4    5 1
     9    5   17 1
    10    6    7 2
    11    6   18 1
    12    7    8 1
    13    7   19 1
    14    8    9 2
    15    8   10 1
    16   10   14 1
    17   10   11 2
    18   11   12 1
    19   11   20 1
    20   12   13 2
    21   12   21 1
    22   13   14 1
    23   13   22 1
@<TRIPOS>MOLECULE
ZINC00602343
   58    61     0     0     0
SMALL
USER_CHARGES

@<TRIPOS>ATOM
      1 C1         -3.6560    0.5961    0.0453 C.3       1 <0>        -0.1022
      2 C2         -2.1505    0.6607    0.0285 C.2       1 <0>         0.1176
      3 C3         -1.4284    1.7899    0.0321 C.2       1 <0>        -0.1407
      4 C4         -0.0145    1.3997    0.0084 C.ar      1 <0>        -0.0357
      5 C5          1.1852    2.1127   -0.0007 C.ar      1 <0>        -0.1099
      6 C6          2.3856    1.4290   -0.0184 C.ar      1 <0>         0.1119
      7 C7          2.3995    0.0372   -0.0266 C.ar      1 <0>        -0.1755
      8 C8          1.2204   -0.6757   -0.0172 C.ar      1 <0>        -0.0835
      9 C9          0.0034   -0.0054    0.0001 C.ar      1 <0>         0.0770
     10 N1         -1.3143   -0.4291    0.0127 N.am      1 <0>        -0.5046
     11 C10        -1.7160   -1.7156    0.0091 C.2       1 <0>         0.6002
     12 O1         -1.9957   -2.2619   -1.0397 O.2       1 <0>        -0.4248
     13 C11        -1.8162   -2.4612    1.2797 C.ar      1 <0>        -0.1627
     14 C12        -1.5922   -1.8097    2.4947 C.ar      1 <0>        -0.0452
     15 C13        -1.6929   -2.5101    3.6780 C.ar      1 <0>        -0.1210
     16 C14        -2.0037   -3.8600    3.6629 C.ar      1 <0>         0.0028
     17 C15        -2.2213   -4.5131    2.4609 C.ar      1 <0>        -0.1216
     18 C16        -2.1297   -3.8223    1.2712 C.ar      1 <0>        -0.0383
     19 Cl1        -2.1215   -4.7366    5.1567 Cl        1 <0>        -0.0519
     20 O2          3.5577    2.1182   -0.0274 O.3       1 <0>        -0.3168
     21 C17         4.7622    1.3495   -0.0451 C.3       1 <0>         0.0272
     22 C18        -1.9681    3.1969    0.0484 C.3       1 <0>        -0.0650
     23 C19        -2.1696    3.6740   -1.3668 C.2       1 <0>         0.5092
     24 O3         -1.9014    2.9435   -2.2970 O.2       1 <0>        -0.5218
     25 N2         -2.6479    4.9125   -1.5987 N.am      1 <0>        -0.7365
     26 C20        -2.8437    5.3764   -2.9745 C.3       1 <0>         0.1254
     27 C21        -3.3917    6.8048   -2.9580 C.3       1 <0>        -0.0908
     28 C22        -3.5932    7.2819   -4.3732 C.ar      1 <0>        -0.0846
     29 C23        -2.5699    7.9346   -5.0348 C.ar      1 <0>        -0.1138
     30 C24        -2.7531    8.3680   -6.3346 C.ar      1 <0>        -0.1180
     31 C25        -3.9630    8.1576   -6.9693 C.ar      1 <0>        -0.1209
     32 C26        -4.9882    7.5099   -6.3057 C.ar      1 <0>        -0.1183
     33 C27        -4.8032    7.0719   -5.0077 C.ar      1 <0>        -0.1141
     34 H1         -4.0073    0.5742    1.0769 H         1 <0>         0.0852
     35 H2         -4.0629    1.4729   -0.4586 H         1 <0>         0.0900
     36 H3         -3.9868   -0.3054   -0.4704 H         1 <0>         0.0707
     37 H4          1.1753    3.1927    0.0056 H         1 <0>         0.1323
     38 H5          3.3428   -0.4886   -0.0400 H         1 <0>         0.1352
     39 H6          1.2421   -1.7555   -0.0237 H         1 <0>         0.1221
     40 H7         -1.3451   -0.7584    2.5075 H         1 <0>         0.1420
     41 H8         -1.5247   -2.0064    4.6184 H         1 <0>         0.1452
     42 H9         -2.4636   -5.5656    2.4556 H         1 <0>         0.1465
     43 H10        -2.3002   -4.3325    0.3347 H         1 <0>         0.1479
     44 H11         5.6213    2.0203   -0.0508 H         1 <0>         0.1004
     45 H12         4.8018    0.7158    0.8408 H         1 <0>         0.0552
     46 H13         4.7821    0.7260   -0.9390 H         1 <0>         0.0550
     47 H14        -2.9212    3.2143    0.5769 H         1 <0>         0.1035
     48 H15        -1.2595    3.8520    0.5553 H         1 <0>         0.1060
     49 H16        -2.8624    5.4968   -0.8547 H         1 <0>         0.4005
     50 H17        -1.8906    5.3589   -3.5030 H         1 <0>         0.0689
     51 H18        -3.5523    4.7213   -3.4814 H         1 <0>         0.0684
     52 H19        -4.3448    6.8223   -2.4295 H         1 <0>         0.0798
     53 H20        -2.6831    7.4599   -2.4511 H         1 <0>         0.0801
     54 H21        -1.6260    8.1027   -4.5375 H         1 <0>         0.1223
     55 H22        -1.9522    8.8743   -6.8530 H         1 <0>         0.1229
     56 H23        -4.1073    8.4995   -7.9835 H         1 <0>         0.1221
     57 H24        -5.9335    7.3459   -6.8014 H         1 <0>         0.1227
     58 H25        -5.6042    6.5659   -4.4892 H         1 <0>         0.1219
@<TRIPOS>BOND
     1    1    2 1
     2    1   34 1
     3    1   35 1
     4    1   36 1
     5    2   10 1
     6    2    3 2
     7    3    4 1
     8    3   22 1
     9    4    9 ar
    10    4    5 ar
    11    5    6 ar
    12    5   37 1
    13    6    7 ar
    14    6   20 1
    15    7    8 ar
    16    7   38 1
    17    8    9 ar
    18    8   39 1
    19    9   10 1
    20   10   11 am
    21   11   12 2
    22   11   13 1
    23   13   18 ar
    24   13   14 ar
    25   14   15 ar
    26   14   40 1
    27   15   16 ar
    28   15   41 1
    29   16   17 ar
    30   16   19 1
    31   17   18 ar
    32   17   42 1
    33   18   43 1
    34   20   21 1
    35   21   44 1
    36   21   45 1
    37   21   46 1
    38   22   23 1
    39   22   47 1
    40   22   48 1
    41   23   24 2
    42   23   25 am
    43   25   26 1
    44   25   49 1
    45   26   27 1
    46   26   50 1
    47   26   51 1
    48   27   28 1
    49   27   52 1
    50   27   53 1
    51   28   33 ar
    52   28   29 ar
    53   29   30 ar
    54   29   54 1
    55   30   31 ar
    56   30   55 1
    57   31   32 ar
    58   31   56 1
    59   32   33 ar
    60   32   57 1
    61   33   58 1
