@<TRIPOS>MOLECULE
ZINC24809155
   56    60     0     0     0
SMALL
USER_CHARGES
6-[(R)-amino-(4-chlorophenyl)-(3-methylimidazol-4-yl)methyl]-4-(3-chlorophenyl)-1-methyl-quinolin-2-one
@<TRIPOS>ATOM
      1 C1          4.0958    4.0587    5.4913 C.3       1 <0>         0.0622
      2 N1          3.9399    5.4291    5.9851 N.pl3     1 <0>        -0.4500
      3 C2          4.8140    6.1056    6.7610 C.2       1 <0>         0.1876
      4 N2          4.3316    7.2953    6.9954 N.2       1 <0>        -0.4896
      5 C3          3.1469    7.4215    6.3792 C.2       1 <0>        -0.0049
      6 C4          2.8811    6.2631    5.7461 C.2       1 <0>        -0.0086
      7 C5          1.6564    5.9478    4.9264 C.3       1 <0>         0.2804
      8 C6          0.6824    7.0941    5.0172 C.ar      1 <0>        -0.0692
      9 C7          0.9485    8.2806    4.3595 C.ar      1 <0>        -0.0934
     10 C8          0.0528    9.3303    4.4378 C.ar      1 <0>        -0.1113
     11 C9         -1.1048    9.1974    5.1838 C.ar      1 <0>        -0.0278
     12 C10        -1.3678    8.0117    5.8464 C.ar      1 <0>        -0.1120
     13 C11        -0.4741    6.9607    5.7628 C.ar      1 <0>        -0.0777
     14 Cl1        -2.2271   10.5178    5.2879 Cl        1 <0>        -0.0683
     15 C12         2.0546    5.7396    3.4880 C.ar      1 <0>        -0.1439
     16 C13         3.0894    6.4884    2.9450 C.ar      1 <0>        -0.0472
     17 C14         3.4695    6.3133    1.6319 C.ar      1 <0>        -0.1558
     18 C15         2.8099    5.3778    0.8412 C.ar      1 <0>         0.1945
     19 C16         1.7627    4.6216    1.3961 C.ar      1 <0>        -0.1121
     20 C17         1.3939    4.8146    2.7289 C.ar      1 <0>        -0.0523
     21 C18         1.0731    3.6339    0.5505 C.2       1 <0>         0.0499
     22 C19         1.4866    3.4887   -0.7471 C.2       1 <0>        -0.1941
     23 C20         2.5376    4.2797   -1.2449 C.2       1 <0>         0.5342
     24 O1          2.8876    4.1391   -2.4044 O.2       1 <0>        -0.5306
     25 N3          3.1702    5.1824   -0.4762 N.am      1 <0>        -0.5207
     26 C21         4.2624    5.9739   -1.0478 C.3       1 <0>         0.0529
     27 C22        -0.0345    2.8143    1.0903 C.ar      1 <0>        -0.0525
     28 C23         0.1082    1.4304    1.2027 C.ar      1 <0>        -0.0918
     29 C24        -0.9275    0.6715    1.7070 C.ar      1 <0>        -0.1016
     30 C25        -2.1084    1.2784    2.0963 C.ar      1 <0>        -0.0987
     31 C26        -2.2549    2.6512    1.9925 C.ar      1 <0>        -0.0325
     32 C27        -1.2254    3.4218    1.4892 C.ar      1 <0>        -0.0917
     33 Cl2        -3.7381    3.4044    2.4892 Cl        1 <0>        -0.0577
     34 N4          1.0240    4.7259    5.4412 N.3       1 <0>        -0.8117
     35 H1          5.0501    3.6459    5.8504 H         1 <0>         0.0971
     36 H2          4.0886    4.0623    4.3913 H         1 <0>         0.0794
     37 H3          3.2658    3.4390    5.8614 H         1 <0>         0.0842
     38 H4          5.7563    5.7252    7.1267 H         1 <0>         0.2057
     39 H5          2.5155    8.2977    6.3911 H         1 <0>         0.1665
     40 H6          1.8542    8.3857    3.7808 H         1 <0>         0.1301
     41 H7          0.2586   10.2557    3.9203 H         1 <0>         0.1347
     42 H8         -2.2711    7.9076    6.4292 H         1 <0>         0.1350
     43 H9         -0.6791    6.0352    6.2803 H         1 <0>         0.1462
     44 H10         3.6020    7.2152    3.5577 H         1 <0>         0.1345
     45 H11         4.2759    6.9006    1.2180 H         1 <0>         0.1395
     46 H12         0.5897    4.2356    3.1583 H         1 <0>         0.1337
     47 H13         1.0020    2.7689   -1.3901 H         1 <0>         0.1587
     48 H14         4.4111    5.6878   -2.0995 H         1 <0>         0.1068
     49 H15         5.1868    5.7853   -0.4823 H         1 <0>         0.0780
     50 H16         4.0093    7.0429   -0.9908 H         1 <0>         0.0788
     51 H17         1.0279    0.9547    0.8957 H         1 <0>         0.1342
     52 H18        -0.8180   -0.3994    1.7939 H         1 <0>         0.1394
     53 H19        -2.9177    0.6791    2.4866 H         1 <0>         0.1384
     54 H20        -1.3416    4.4923    1.4050 H         1 <0>         0.1372
     55 H21         0.1301    4.4957    4.8429 H         1 <0>         0.3476
     56 H22         1.7350    3.8892    5.3749 H         1 <0>         0.3401
@<TRIPOS>BOND
     1    1    2 1
     2    1   35 1
     3    1   36 1
     4    1   37 1
     5    2    6 1
     6    2    3 1
     7    3    4 2
     8    3   38 1
     9    4    5 1
    10    5    6 2
    11    5   39 1
    12    6    7 1
    13    7    8 1
    14    7   15 1
    15    7   34 1
    16    8   13 ar
    17    8    9 ar
    18    9   10 ar
    19    9   40 1
    20   10   11 ar
    21   10   41 1
    22   11   12 ar
    23   11   14 1
    24   12   13 ar
    25   12   42 1
    26   13   43 1
    27   15   20 ar
    28   15   16 ar
    29   16   17 ar
    30   16   44 1
    31   17   18 ar
    32   17   45 1
    33   18   25 1
    34   18   19 ar
    35   19   20 ar
    36   19   21 1
    37   20   46 1
    38   21   22 2
    39   21   27 1
    40   22   23 1
    41   22   47 1
    42   23   24 2
    43   23   25 am
    44   25   26 1
    45   26   48 1
    46   26   49 1
    47   26   50 1
    48   27   32 ar
    49   27   28 ar
    50   28   29 ar
    51   28   51 1
    52   29   30 ar
    53   29   52 1
    54   30   31 ar
    55   30   53 1
    56   31   32 ar
    57   31   33 1
    58   32   54 1
    59   34   55 1
    60   34   56 1
@<TRIPOS>MOLECULE
ZINC24809155
   57    61     0     0     0
SMALL
USER_CHARGES
6-[(R)-amino-(4-chlorophenyl)-(3-methylimidazol-4-yl)methyl]-4-(3-chlorophenyl)-1-methyl-quinolin-2-one
@<TRIPOS>ATOM
      1 C1          4.0958    4.0587    5.4913 C.3       1 <0>         0.0431
      2 N1          3.9399    5.4291    5.9851 N.pl3     1 <0>        -0.4008
      3 C2          4.8140    6.1056    6.7610 C.cat     1 <0>         0.2791
      4 N2          4.3316    7.2953    6.9954 N.pl3     1 <0>        -0.4888
      5 C3          3.1469    7.4215    6.3792 C.2       1 <0>         0.0261
      6 C4          2.8811    6.2631    5.7461 C.2       1 <0>         0.0710
      7 C5          1.6564    5.9478    4.9264 C.3       1 <0>         0.2787
      8 C6          0.6824    7.0941    5.0172 C.ar      1 <0>        -0.0982
      9 C7          0.9485    8.2806    4.3595 C.ar      1 <0>        -0.0994
     10 C8          0.0528    9.3303    4.4378 C.ar      1 <0>        -0.1092
     11 C9         -1.1048    9.1974    5.1838 C.ar      1 <0>        -0.0198
     12 C10        -1.3678    8.0117    5.8464 C.ar      1 <0>        -0.1079
     13 C11        -0.4741    6.9607    5.7628 C.ar      1 <0>        -0.0717
     14 Cl1        -2.2271   10.5178    5.2879 Cl        1 <0>        -0.0511
     15 C12         2.0546    5.7396    3.4880 C.ar      1 <0>        -0.1672
     16 C13         3.0894    6.4884    2.9450 C.ar      1 <0>        -0.0635
     17 C14         3.4695    6.3133    1.6319 C.ar      1 <0>        -0.1494
     18 C15         2.8099    5.3778    0.8412 C.ar      1 <0>         0.2044
     19 C16         1.7627    4.6216    1.3961 C.ar      1 <0>        -0.1037
     20 C17         1.3939    4.8146    2.7289 C.ar      1 <0>        -0.0413
     21 C18         1.0731    3.6339    0.5505 C.2       1 <0>         0.0420
     22 C19         1.4866    3.4887   -0.7471 C.2       1 <0>        -0.1803
     23 C20         2.5376    4.2797   -1.2449 C.2       1 <0>         0.5323
     24 O1          2.8876    4.1391   -2.4044 O.2       1 <0>        -0.5147
     25 N3          3.1702    5.1824   -0.4762 N.am      1 <0>        -0.5221
     26 C21         4.2624    5.9739   -1.0478 C.3       1 <0>         0.0504
     27 C22        -0.0345    2.8143    1.0903 C.ar      1 <0>        -0.0580
     28 C23         0.1082    1.4304    1.2027 C.ar      1 <0>        -0.0913
     29 C24        -0.9275    0.6715    1.7070 C.ar      1 <0>        -0.0996
     30 C25        -2.1084    1.2784    2.0963 C.ar      1 <0>        -0.0954
     31 C26        -2.2549    2.6512    1.9925 C.ar      1 <0>        -0.0334
     32 C27        -1.2254    3.4218    1.4892 C.ar      1 <0>        -0.0940
     33 Cl2        -3.7381    3.4044    2.4892 Cl        1 <0>        -0.0542
     34 N4          1.0240    4.7259    5.4412 N.3       1 <0>        -0.8135
     35 H1          5.0501    3.6459    5.8504 H         1 <0>         0.1240
     36 H2          4.0886    4.0623    4.3913 H         1 <0>         0.1124
     37 H3          3.2658    3.4390    5.8614 H         1 <0>         0.1159
     38 H4          5.7563    5.7252    7.1267 H         1 <0>         0.2604
     39 H5          2.5155    8.2977    6.3911 H         1 <0>         0.2175
     40 H6          1.8542    8.3857    3.7808 H         1 <0>         0.1316
     41 H7          0.2586   10.2557    3.9203 H         1 <0>         0.1399
     42 H8         -2.2711    7.9076    6.4292 H         1 <0>         0.1414
     43 H9         -0.6791    6.0352    6.2803 H         1 <0>         0.1498
     44 H10         3.6020    7.2152    3.5577 H         1 <0>         0.1253
     45 H11         4.2759    6.9006    1.2180 H         1 <0>         0.1429
     46 H12         0.5897    4.2356    3.1583 H         1 <0>         0.1371
     47 H13         1.0020    2.7689   -1.3901 H         1 <0>         0.1633
     48 H14         4.4111    5.6878   -2.0995 H         1 <0>         0.1106
     49 H15         5.1868    5.7853   -0.4823 H         1 <0>         0.0792
     50 H16         4.0093    7.0429   -0.9908 H         1 <0>         0.0806
     51 H17         1.0279    0.9547    0.8957 H         1 <0>         0.1349
     52 H18        -0.8180   -0.3994    1.7939 H         1 <0>         0.1415
     53 H19        -2.9177    0.6791    2.4866 H         1 <0>         0.1406
     54 H20        -1.3416    4.4923    1.4050 H         1 <0>         0.1363
     55 H21         0.1301    4.4957    4.8429 H         1 <0>         0.3696
     56 H22         1.7350    3.8892    5.3749 H         1 <0>         0.3422
     57 H23         4.8965    8.0051    7.6175 H         1 <0>         0.5045
@<TRIPOS>BOND
     1    1    2 1
     2    1   35 1
     3    1   36 1
     4    1   37 1
     5    2    6 1
     6    2    3 1
     7    3    4 2
     8    3   38 1
     9    4    5 1
    10    4   57 1
    11    5    6 2
    12    5   39 1
    13    6    7 1
    14    7    8 1
    15    7   15 1
    16    7   34 1
    17    8   13 ar
    18    8    9 ar
    19    9   10 ar
    20    9   40 1
    21   10   11 ar
    22   10   41 1
    23   11   12 ar
    24   11   14 1
    25   12   13 ar
    26   12   42 1
    27   13   43 1
    28   15   20 ar
    29   15   16 ar
    30   16   17 ar
    31   16   44 1
    32   17   18 ar
    33   17   45 1
    34   18   25 1
    35   18   19 ar
    36   19   20 ar
    37   19   21 1
    38   20   46 1
    39   21   22 2
    40   21   27 1
    41   22   23 1
    42   22   47 1
    43   23   24 2
    44   23   25 am
    45   25   26 1
    46   26   48 1
    47   26   49 1
    48   26   50 1
    49   27   32 ar
    50   27   28 ar
    51   28   29 ar
    52   28   51 1
    53   29   30 ar
    54   29   52 1
    55   30   31 ar
    56   30   53 1
    57   31   32 ar
    58   31   33 1
    59   32   54 1
    60   34   55 1
    61   34   56 1
