@<TRIPOS>MOLECULE
ZINC27641775
   30    32     0     0     0
SMALL
USER_CHARGES
(6S)-2-amino-6-phenyl-7,8-dihydro-6H-pyrimido[5,6-b][1,4]thiazin-4-ol
@<TRIPOS>ATOM
      1 C1         -0.0126    1.0758    0.0080 C.ar      1 <0>        -0.1131
      2 C2         -1.2190    1.7506    0.0173 C.ar      1 <0>        -0.1181
      3 C3         -1.2377    3.1328    0.0290 C.ar      1 <0>        -0.1001
      4 C4         -0.0501    3.8402    0.0223 C.ar      1 <0>        -0.0752
      5 C5          1.1563    3.1654    0.0081 C.ar      1 <0>        -0.1024
      6 C6          1.1750    1.7832    0.0004 C.ar      1 <0>        -0.1191
      7 C7         -0.0705    5.3471    0.0302 C.3       1 <0>        -0.0783
      8 H1          0.9848    5.6039   -0.1443 H         1 <0>         0.1033
      9 C8         -0.8512    5.8642   -1.1881 C.3       1 <0>         0.1338
     10 N1         -0.7700    7.3219   -1.2176 N.pl3     1 <0>        -0.7177
     11 C9         -1.1376    8.1193   -0.1495 C.2       1 <0>         0.4963
     12 C10        -1.2355    7.6391    1.1525 C.2       1 <0>        -0.3788
     13 C11        -1.5887    8.5176    2.1733 C.2       1 <0>         0.5163
     14 N2         -1.8274    9.7913    1.8726 N.am      1 <0>        -0.6162
     15 C12        -1.7328   10.2176    0.6227 C.2       1 <0>         0.6615
     16 N3         -1.3977    9.4110   -0.3705 N.2       1 <0>        -0.6152
     17 N4         -1.9937   11.5512    0.3463 N.pl3     1 <0>        -0.8502
     18 O1         -1.6882    8.0815    3.4540 O.2       1 <0>        -0.6044
     19 S1         -0.9210    5.9449    1.5228 S.3       1 <0>        -0.0077
     20 H2          0.0021   -0.0041    0.0020 H         1 <0>         0.1236
     21 H3         -2.1469    1.1980    0.0187 H         1 <0>         0.1252
     22 H4         -2.1802    3.6600    0.0397 H         1 <0>         0.1278
     23 H5          2.0842    3.7181    0.0025 H         1 <0>         0.1232
     24 H6          2.1175    1.2560   -0.0111 H         1 <0>         0.1248
     25 H7         -0.4132    5.4486   -2.1076 H         1 <0>         0.1035
     26 H8         -1.9029    5.5518   -1.1092 H         1 <0>         0.0807
     27 H9         -0.4028    7.8342   -2.1191 H         1 <0>         0.4348
     28 H10        -1.9201   11.9235   -0.6862 H         1 <0>         0.4548
     29 H11        -2.2742   12.2368    1.1595 H         1 <0>         0.4393
     30 H12        -2.1062   10.5007    2.6657 H         1 <0>         0.4474
@<TRIPOS>BOND
     1    1    6 ar
     2    1    2 ar
     3    1   20 1
     4    2    3 ar
     5    2   21 1
     6    3    4 ar
     7    3   22 1
     8    4    5 ar
     9    4    7 1
    10    5    6 ar
    11    5   23 1
    12    6   24 1
    13    7    8 1
    14    7   19 1
    15    7    9 1
    16    9   10 1
    17    9   25 1
    18    9   26 1
    19   10   11 1
    20   10   27 1
    21   11   16 1
    22   11   12 2
    23   12   13 1
    24   12   19 1
    25   13   14 am
    26   13   18 2
    27   14   15 1
    28   14   30 1
    29   15   16 2
    30   15   17 1
    31   17   28 1
    32   17   29 1
@<TRIPOS>MOLECULE
ZINC27641781
   30    32     0     0     0
SMALL
USER_CHARGES
(6R)-2-amino-6-phenyl-7,8-dihydro-6H-pyrimido[5,6-b][1,4]thiazin-4-ol
@<TRIPOS>ATOM
      1 C1         -1.9851    2.9355    3.5335 C.ar      1 <0>        -0.1133
      2 C2         -2.4832    3.2642    2.2866 C.ar      1 <0>        -0.1190
      3 C3         -1.8467    2.8104    1.1465 C.ar      1 <0>        -0.1027
      4 C4         -0.7124    2.0275    1.2534 C.ar      1 <0>        -0.0752
      5 C5         -0.2176    1.6941    2.5003 C.ar      1 <0>        -0.1002
      6 C6         -0.8508    2.1526    3.6404 C.ar      1 <0>        -0.1180
      7 C7         -0.0188    1.5324    0.0105 C.3       1 <0>        -0.0783
      8 H1         -0.7089    1.8390   -0.7893 H         1 <0>         0.1033
      9 C8          0.0021   -0.0041    0.0020 C.3       1 <0>         0.1341
     10 N1          0.5836   -0.4620   -1.2567 N.pl3     1 <0>        -0.7178
     11 C9          1.8237   -0.0501   -1.7086 C.2       1 <0>         0.4961
     12 C10         2.4536    1.0994   -1.2425 C.2       1 <0>        -0.3786
     13 C11         3.6967    1.4487   -1.7632 C.2       1 <0>         0.5162
     14 N2          4.2502    0.6679   -2.6871 N.am      1 <0>        -0.6161
     15 C12         3.6300   -0.4245   -3.1053 C.2       1 <0>         0.6613
     16 N3          2.4470   -0.7836   -2.6353 N.2       1 <0>        -0.6150
     17 N4          4.2397   -1.2170   -4.0662 N.pl3     1 <0>        -0.8502
     18 O1          4.3335    2.5674   -1.3349 O.2       1 <0>        -0.6045
     19 S1          1.7074    2.1058   -0.0029 S.3       1 <0>        -0.0076
     20 H2         -2.4820    3.2907    4.4243 H         1 <0>         0.1236
     21 H3         -3.3694    3.8758    2.2031 H         1 <0>         0.1248
     22 H4         -2.2358    3.0671    0.1723 H         1 <0>         0.1231
     23 H5          0.6660    1.0788    2.5838 H         1 <0>         0.1282
     24 H6         -0.4615    1.8962    4.6146 H         1 <0>         0.1252
     25 H7          0.6078   -0.3672    0.8454 H         1 <0>         0.0807
     26 H8         -1.0253   -0.3853    0.0975 H         1 <0>         0.1035
     27 H9          0.0301   -1.1675   -1.8938 H         1 <0>         0.4347
     28 H10         3.7395   -2.1283   -4.4257 H         1 <0>         0.4548
     29 H11         5.2235   -0.9343   -4.4689 H         1 <0>         0.4393
     30 H12         5.2316    0.9276   -3.1106 H         1 <0>         0.4474
@<TRIPOS>BOND
     1    1    6 ar
     2    1    2 ar
     3    1   20 1
     4    2    3 ar
     5    2   21 1
     6    3    4 ar
     7    3   22 1
     8    4    5 ar
     9    4    7 1
    10    5    6 ar
    11    5   23 1
    12    6   24 1
    13    7    8 1
    14    7   19 1
    15    7    9 1
    16    9   10 1
    17    9   25 1
    18    9   26 1
    19   10   11 1
    20   10   27 1
    21   11   16 1
    22   11   12 2
    23   12   13 1
    24   12   19 1
    25   13   14 am
    26   13   18 2
    27   14   15 1
    28   14   30 1
    29   15   16 2
    30   15   17 1
    31   17   28 1
    32   17   29 1
