@<TRIPOS>MOLECULE
ZINC00591953
   63    68     0     0     0
SMALL
USER_CHARGES

@<TRIPOS>ATOM
      1 C1         -0.0178    1.4608    0.0101 C.3       1 <0>         0.0726
      2 N1          0.0021   -0.0041    0.0020 N.pl3     1 <0>        -0.4749
      3 C2          0.0078   -0.7756   -1.1193 C.2       1 <0>         0.1102
      4 C3          0.0272   -2.0937   -0.7697 C.2       1 <0>        -0.1473
      5 C4          0.0340   -2.1368    0.7032 C.ar      1 <0>        -0.0734
      6 C5          0.0236   -0.7983    1.1297 C.ar      1 <0>         0.0958
      7 C6          0.0323   -0.5163    2.4916 C.ar      1 <0>        -0.1199
      8 C7          0.0546   -1.5463    3.4071 C.ar      1 <0>        -0.1019
      9 C8          0.0691   -2.8675    2.9845 C.ar      1 <0>        -0.1411
     10 C9          0.0515   -3.1678    1.6397 C.ar      1 <0>        -0.0792
     11 C10         0.0386   -3.2475   -1.6846 C.2       1 <0>        -0.0124
     12 C11         1.1160   -3.7128   -2.4294 C.2       1 <0>        -0.0445
     13 C12         0.6193   -4.8843   -3.1804 C.2       1 <0>         0.5559
     14 O1          1.2728   -5.5643   -3.9462 O.2       1 <0>        -0.4477
     15 N2         -0.6758   -5.0722   -2.8752 N.am      1 <0>        -0.6903
     16 C13        -1.0913   -4.1487   -1.9919 C.2       1 <0>         0.5510
     17 O2         -2.2104   -4.0662   -1.5265 O.2       1 <0>        -0.4383
     18 C14         2.4770   -3.1515   -2.4634 C.2       1 <0>        -0.1072
     19 C15         2.9761   -2.1055   -3.3737 C.ar      1 <0>        -0.0768
     20 C16         2.3987   -1.3663   -4.4042 C.ar      1 <0>        -0.0735
     21 C17         3.1550   -0.4365   -5.0832 C.ar      1 <0>        -0.1333
     22 C18         4.4856   -0.2346   -4.7452 C.ar      1 <0>        -0.0909
     23 C19         5.0694   -0.9584   -3.7287 C.ar      1 <0>        -0.1280
     24 C20         4.3227   -1.9025   -3.0304 C.ar      1 <0>         0.1049
     25 N3          4.6223   -2.7584   -1.9913 N.pl3     1 <0>        -0.4790
     26 C21         3.5184   -3.4930   -1.6564 C.2       1 <0>         0.1097
     27 C22         3.4894   -4.5246   -0.5514 C.3       1 <0>        -0.0500
     28 C23         4.7179   -4.3078    0.3404 C.3       1 <0>        -0.1190
     29 H1          4.5933   -3.3903    0.9155 H         1 <0>         0.1048
     30 C24         5.9643   -4.1936   -0.5419 C.3       1 <0>        -0.1431
     31 C25         5.9259   -2.8788   -1.3218 C.3       1 <0>         0.1139
     32 C26         4.8723   -5.4931    1.2955 C.3       1 <0>        -0.0072
     33 N4          5.9761   -5.2297    2.2283 N.4       1 <0>        -0.3888
     34 C27         5.6329   -4.0847    3.0823 C.3       1 <0>        -0.0547
     35 C28         6.2024   -6.4150    3.0662 C.3       1 <0>        -0.0480
     36 H2          1.0048    1.8381    0.0023 H         1 <0>         0.0743
     37 H3         -0.5450    1.8219   -0.8730 H         1 <0>         0.0895
     38 H4         -0.5280    1.8123    0.9069 H         1 <0>         0.0864
     39 H5         -0.0018   -0.4009   -2.1322 H         1 <0>         0.1746
     40 H6          0.0219    0.5088    2.8314 H         1 <0>         0.1217
     41 H7          0.0613   -1.3227    4.4637 H         1 <0>         0.1270
     42 H8          0.0869   -3.6646    3.7130 H         1 <0>         0.1226
     43 H9          0.0641   -4.1972    1.3134 H         1 <0>         0.1164
     44 H10        -1.2322   -5.7787   -3.2388 H         1 <0>         0.4312
     45 H11         1.3634   -1.5218   -4.6694 H         1 <0>         0.1224
     46 H12         2.7103    0.1378   -5.8825 H         1 <0>         0.1288
     47 H13         5.0693    0.4968   -5.2844 H         1 <0>         0.1302
     48 H14         6.1059   -0.7935   -3.4741 H         1 <0>         0.1200
     49 H15         2.5809   -4.4054    0.0390 H         1 <0>         0.1041
     50 H16         3.5199   -5.5255   -0.9821 H         1 <0>         0.0994
     51 H17         6.8561   -4.2199    0.0843 H         1 <0>         0.0792
     52 H18         5.9895   -5.0266   -1.2445 H         1 <0>         0.0962
     53 H19         6.7216   -2.8643   -2.0666 H         1 <0>         0.0982
     54 H20         6.0579   -2.0487   -0.6277 H         1 <0>         0.0811
     55 H21         3.9477   -5.6307    1.8562 H         1 <0>         0.1387
     56 H22         5.0878   -6.3953    0.7230 H         1 <0>         0.1366
     57 H23         6.4519   -3.8893    3.7744 H         1 <0>         0.1263
     58 H24         5.4649   -3.2053    2.4606 H         1 <0>         0.1227
     59 H25         4.7272   -4.3100    3.6454 H         1 <0>         0.1263
     60 H26         6.4571   -7.2645    2.4326 H         1 <0>         0.1245
     61 H27         7.0215   -6.2196    3.7584 H         1 <0>         0.1258
     62 H28         5.2967   -6.6402    3.6293 H         1 <0>         0.1244
     63 H29         6.8145   -5.0212    1.7071 H         1 <0>         0.4230
@<TRIPOS>BOND
     1    1    2 1
     2    1   36 1
     3    1   37 1
     4    1   38 1
     5    2    6 1
     6    2    3 1
     7    3    4 2
     8    3   39 1
     9    4    5 1
    10    4   11 1
    11    5   10 ar
    12    5    6 ar
    13    6    7 ar
    14    7    8 ar
    15    7   40 1
    16    8    9 ar
    17    8   41 1
    18    9   10 ar
    19    9   42 1
    20   10   43 1
    21   11   16 1
    22   11   12 2
    23   12   13 1
    24   12   18 1
    25   13   14 2
    26   13   15 am
    27   15   16 am
    28   15   44 1
    29   16   17 2
    30   18   26 2
    31   18   19 1
    32   19   24 ar
    33   19   20 ar
    34   20   21 ar
    35   20   45 1
    36   21   22 ar
    37   21   46 1
    38   22   23 ar
    39   22   47 1
    40   23   24 ar
    41   23   48 1
    42   24   25 1
    43   25   31 1
    44   25   26 1
    45   26   27 1
    46   27   28 1
    47   27   49 1
    48   27   50 1
    49   28   29 1
    50   28   30 1
    51   28   32 1
    52   30   31 1
    53   30   51 1
    54   30   52 1
    55   31   53 1
    56   31   54 1
    57   32   33 1
    58   32   55 1
    59   32   56 1
    60   33   34 1
    61   33   35 1
    62   33   63 1
    63   34   57 1
    64   34   58 1
    65   34   59 1
    66   35   60 1
    67   35   61 1
    68   35   62 1
@<TRIPOS>MOLECULE
ZINC03783756
   63    68     0     0     0
SMALL
USER_CHARGES

@<TRIPOS>ATOM
      1 C1          1.8486    2.2781    0.2550 C.3       1 <0>         0.0719
      2 N1          1.5677    0.8458    0.1299 N.pl3     1 <0>        -0.4740
      3 C2          1.5578    0.1547   -1.0426 C.2       1 <0>         0.1126
      4 C3          1.2609   -1.1544   -0.8017 C.2       1 <0>        -0.1524
      5 C4          1.0705   -1.2801    0.6541 C.ar      1 <0>        -0.0730
      6 C5          1.2812    0.0037    1.1844 C.ar      1 <0>         0.0956
      7 C6          1.1737    0.2008    2.5569 C.ar      1 <0>        -0.1174
      8 C7          0.8666   -0.8596    3.3821 C.ar      1 <0>        -0.1009
      9 C8          0.6629   -2.1275    2.8576 C.ar      1 <0>        -0.1384
     10 C9          0.7559   -2.3415    1.4995 C.ar      1 <0>        -0.0827
     11 C10         1.1516   -2.2310   -1.8004 C.2       1 <0>        -0.0067
     12 C11         2.1964   -2.8738   -2.4540 C.2       1 <0>        -0.0498
     13 C12         1.5694   -3.8681   -3.3493 C.2       1 <0>         0.5559
     14 O1          2.1615   -4.6284   -4.0891 O.2       1 <0>        -0.4512
     15 N2          0.2353   -3.7912   -3.2088 N.am      1 <0>        -0.6911
     16 C13        -0.0908   -2.8509   -2.3059 C.2       1 <0>         0.5492
     17 O2         -1.2191   -2.5569   -1.9648 O.2       1 <0>        -0.4354
     18 C14         3.6367   -2.6158   -2.2880 C.2       1 <0>        -0.1085
     19 C15         4.4522   -1.6518   -3.0478 C.ar      1 <0>        -0.0783
     20 C16         4.1757   -0.7499   -4.0733 C.ar      1 <0>        -0.0746
     21 C17         5.1875    0.0327   -4.5846 C.ar      1 <0>        -0.1330
     22 C18         6.4768   -0.0741   -4.0830 C.ar      1 <0>        -0.0904
     23 C19         6.7647   -0.9618   -3.0695 C.ar      1 <0>        -0.1268
     24 C20         5.7567   -1.7611   -2.5390 C.ar      1 <0>         0.1056
     25 N3          5.7385   -2.7174   -1.5453 N.pl3     1 <0>        -0.4763
     26 C21         4.4737   -3.2168   -1.3990 C.2       1 <0>         0.1095
     27 C22         4.0931   -4.2809   -0.3945 C.3       1 <0>        -0.0689
     28 C23         5.3789   -4.9473    0.1098 C.3       1 <0>        -0.1208
     29 H1          5.8068   -5.5603   -0.6834 H         1 <0>         0.1047
     30 C24         6.3806   -3.8621    0.5151 C.3       1 <0>        -0.1248
     31 C25         6.8924   -3.1491   -0.7427 C.3       1 <0>         0.1102
     32 C26         5.0583   -5.8271    1.3198 C.3       1 <0>        -0.0056
     33 N4          4.1912   -6.9369    0.9022 N.4       1 <0>        -0.3904
     34 C27         4.9311   -7.8205   -0.0087 C.3       1 <0>        -0.0540
     35 C28         3.7660   -7.6978    2.0847 C.3       1 <0>        -0.0484
     36 H2          2.9194    2.4276    0.3938 H         1 <0>         0.0754
     37 H3          1.5242    2.7924   -0.6496 H         1 <0>         0.0896
     38 H4          1.3114    2.6801    1.1140 H         1 <0>         0.0869
     39 H5          1.7549    0.5787   -2.0162 H         1 <0>         0.1745
     40 H6          1.3310    1.1838    2.9758 H         1 <0>         0.1227
     41 H7          0.7842   -0.7019    4.4473 H         1 <0>         0.1283
     42 H8          0.4233   -2.9493    3.5160 H         1 <0>         0.1228
     43 H9          0.5981   -3.3300    1.0939 H         1 <0>         0.1136
     44 H10        -0.4034   -4.3408   -3.6893 H         1 <0>         0.4308
     45 H11         3.1731   -0.6650   -4.4656 H         1 <0>         0.1216
     46 H12         4.9763    0.7325   -5.3797 H         1 <0>         0.1288
     47 H13         7.2624    0.5444   -4.4913 H         1 <0>         0.1306
     48 H14         7.7718   -1.0371   -2.6868 H         1 <0>         0.1214
     49 H15         3.5634   -3.8244    0.4416 H         1 <0>         0.1043
     50 H16         3.4559   -5.0255   -0.8715 H         1 <0>         0.0846
     51 H17         5.8913   -3.1436    1.1726 H         1 <0>         0.0900
     52 H18         7.2200   -4.3200    1.0383 H         1 <0>         0.1002
     53 H19         7.5135   -3.8251   -1.3304 H         1 <0>         0.0868
     54 H20         7.4771   -2.2783   -0.4461 H         1 <0>         0.0965
     55 H21         5.9841   -6.2257    1.7346 H         1 <0>         0.1370
     56 H22         4.5476   -5.2319    2.0767 H         1 <0>         0.1366
     57 H23         4.3279   -8.7008   -0.2307 H         1 <0>         0.1270
     58 H24         5.1503   -7.2874   -0.9338 H         1 <0>         0.1235
     59 H25         5.8643   -8.1290    0.4627 H         1 <0>         0.1250
     60 H26         3.2170   -7.0422    2.7605 H         1 <0>         0.1250
     61 H27         3.1226   -8.5213    1.7748 H         1 <0>         0.1261
     62 H28         4.6431   -8.0946    2.5961 H         1 <0>         0.1239
     63 H29         3.3793   -6.5696    0.4288 H         1 <0>         0.4249
@<TRIPOS>BOND
     1    1    2 1
     2    1   36 1
     3    1   37 1
     4    1   38 1
     5    2    6 1
     6    2    3 1
     7    3    4 2
     8    3   39 1
     9    4    5 1
    10    4   11 1
    11    5   10 ar
    12    5    6 ar
    13    6    7 ar
    14    7    8 ar
    15    7   40 1
    16    8    9 ar
    17    8   41 1
    18    9   10 ar
    19    9   42 1
    20   10   43 1
    21   11   16 1
    22   11   12 2
    23   12   13 1
    24   12   18 1
    25   13   14 2
    26   13   15 am
    27   15   16 am
    28   15   44 1
    29   16   17 2
    30   18   26 2
    31   18   19 1
    32   19   24 ar
    33   19   20 ar
    34   20   21 ar
    35   20   45 1
    36   21   22 ar
    37   21   46 1
    38   22   23 ar
    39   22   47 1
    40   23   24 ar
    41   23   48 1
    42   24   25 1
    43   25   31 1
    44   25   26 1
    45   26   27 1
    46   27   28 1
    47   27   49 1
    48   27   50 1
    49   28   29 1
    50   28   30 1
    51   28   32 1
    52   30   31 1
    53   30   51 1
    54   30   52 1
    55   31   53 1
    56   31   54 1
    57   32   33 1
    58   32   55 1
    59   32   56 1
    60   33   34 1
    61   33   35 1
    62   33   63 1
    63   34   57 1
    64   34   58 1
    65   34   59 1
    66   35   60 1
    67   35   61 1
    68   35   62 1
@<TRIPOS>MOLECULE
ZINC03814434
   62    69     0     0     0
SMALL
USER_CHARGES

@<TRIPOS>ATOM
      1 C1         -0.1295    1.5952   -0.2973 C.3       1 <0>        -0.1687
      2 C2         -0.0862    0.0696   -0.1900 C.3       1 <0>         0.3342
      3 C3          0.5692   -0.4501   -1.4637 C.3       1 <0>         0.0405
      4 H1          1.4796    0.1159   -1.6612 H         1 <0>         0.1372
      5 C4          0.9167   -1.9328   -1.2889 C.3       1 <0>        -0.0061
      6 H2          1.3963   -2.3075   -2.1932 H         1 <0>         0.1555
      7 C5          1.8785   -2.0596   -0.1021 C.3       1 <0>        -0.1827
      8 C6          1.2061   -1.5198    1.1541 C.3       1 <0>         0.2999
      9 H3          1.9797   -1.4243    1.9161 H         1 <0>         0.1550
     10 O1          0.6555   -0.2442    0.9666 O.3       1 <0>        -0.3234
     11 N1          0.2189   -2.4746    1.6600 N.pl3     1 <0>        -0.5366
     12 C7          0.4705   -3.5508    2.4739 C.ar      1 <0>         0.1469
     13 C8          1.6649   -4.0152    3.0240 C.ar      1 <0>        -0.1522
     14 C9          1.5948   -5.1456    3.8201 C.ar      1 <0>        -0.0582
     15 C10         0.4006   -5.7997    4.0696 C.ar      1 <0>        -0.1457
     16 C11        -0.7984   -5.3597    3.5358 C.ar      1 <0>        -0.0280
     17 C12        -0.7487   -4.2198    2.7307 C.ar      1 <0>        -0.1131
     18 C13        -1.7893   -3.4830    2.0197 C.ar      1 <0>         0.0276
     19 C14        -1.1442   -2.4197    1.3841 C.ar      1 <0>         0.0376
     20 C15        -1.8806   -1.5095    0.6175 C.ar      1 <0>         0.0894
     21 N2         -1.4718   -0.3951   -0.1095 N.pl3     1 <0>        -0.5183
     22 C16        -2.5611    0.1913   -0.7090 C.ar      1 <0>         0.1618
     23 C17        -2.6521    1.3277   -1.5118 C.ar      1 <0>        -0.1305
     24 C18        -3.9109    1.6745   -1.9733 C.ar      1 <0>        -0.0737
     25 C19        -5.0393    0.9368   -1.6616 C.ar      1 <0>        -0.1358
     26 C20        -4.9745   -0.1955   -0.8662 C.ar      1 <0>        -0.0503
     27 C21        -3.7147   -0.5596   -0.3919 C.ar      1 <0>        -0.1042
     28 C22        -3.2693   -1.6660    0.4845 C.ar      1 <0>        -0.0360
     29 C23        -3.9084   -2.7313    1.1102 C.ar      1 <0>        -0.0288
     30 C24        -3.1873   -3.6421    1.8754 C.ar      1 <0>        -0.1255
     31 C25        -4.1221   -4.6480    2.4030 C.2       1 <0>         0.5632
     32 O2         -3.8062   -5.5851    3.1110 O.2       1 <0>        -0.5106
     33 N3         -5.3744   -4.3851    1.9926 N.am      1 <0>        -0.7162
     34 C26        -5.3495   -3.1771    1.1601 C.3       1 <0>         0.1358
     35 N4         -0.3067   -2.7008   -1.0216 N.4       1 <0>        -0.5252
     36 C27         0.0145   -4.1336   -0.9773 C.3       1 <0>        -0.0497
     37 O3         -0.3340   -0.2979   -2.5607 O.3       1 <0>        -0.3614
     38 C28         0.3101   -0.0933   -3.8198 C.3       1 <0>         0.0162
     39 H4          0.8261    2.0094    0.0240 H         1 <0>         0.0984
     40 H5         -0.3202    1.8814   -1.3317 H         1 <0>         0.1036
     41 H6         -0.9255    1.9818    0.3392 H         1 <0>         0.0921
     42 H7          2.1370   -3.1081    0.0458 H         1 <0>         0.1233
     43 H8          2.7835   -1.4869   -0.3048 H         1 <0>         0.1455
     44 H9          2.6036   -3.5149    2.8368 H         1 <0>         0.1365
     45 H10         2.5026   -5.5304    4.2610 H         1 <0>         0.1359
     46 H11         0.4045   -6.6780    4.6980 H         1 <0>         0.1352
     47 H12        -1.7278   -5.8736    3.7323 H         1 <0>         0.1600
     48 H13        -1.7792    1.9122   -1.7624 H         1 <0>         0.1440
     49 H14        -4.0153    2.5500   -2.5970 H         1 <0>         0.1336
     50 H15        -5.9967    1.2527   -2.0488 H         1 <0>         0.1332
     51 H16        -5.8575   -0.7687   -0.6249 H         1 <0>         0.1415
     52 H17        -6.1628   -4.9065    2.2103 H         1 <0>         0.4348
     53 H18        -5.9671   -2.3994    1.6094 H         1 <0>         0.1115
     54 H19        -5.7060   -3.4063    0.1559 H         1 <0>         0.1103
     55 H20        -0.6958   -2.4158   -0.1353 H         1 <0>         0.4186
     56 H21         0.4349   -4.4415   -1.9347 H         1 <0>         0.1256
     57 H22         0.7403   -4.3189   -0.1854 H         1 <0>         0.1191
     58 H23        -0.8932   -4.7035   -0.7789 H         1 <0>         0.1256
     59 H24         0.9168    0.8112   -3.7748 H         1 <0>         0.0633
     60 H25         0.9482   -0.9479   -4.0446 H         1 <0>         0.0514
     61 H26        -0.4433    0.0130   -4.6003 H         1 <0>         0.1100
     62 H27        -0.9785   -2.5293   -1.7546 H         1 <0>         0.4274
@<TRIPOS>BOND
     1    1    2 1
     2    1   39 1
     3    1   40 1
     4    1   41 1
     5    2   10 1
     6    2   21 1
     7    2    3 1
     8    3    4 1
     9    3    5 1
    10    3   37 1
    11    5    6 1
    12    5    7 1
    13    5   35 1
    14    7    8 1
    15    7   42 1
    16    7   43 1
    17    8    9 1
    18    8   10 1
    19    8   11 1
    20   11   19 1
    21   11   12 1
    22   12   17 ar
    23   12   13 ar
    24   13   14 ar
    25   13   44 1
    26   14   15 ar
    27   14   45 1
    28   15   16 ar
    29   15   46 1
    30   16   17 ar
    31   16   47 1
    32   17   18 1
    33   18   30 ar
    34   18   19 ar
    35   19   20 ar
    36   20   28 ar
    37   20   21 1
    38   21   22 1
    39   22   27 ar
    40   22   23 ar
    41   23   24 ar
    42   23   48 1
    43   24   25 ar
    44   24   49 1
    45   25   26 ar
    46   25   50 1
    47   26   27 ar
    48   26   51 1
    49   27   28 1
    50   28   29 ar
    51   29   34 1
    52   29   30 ar
    53   30   31 1
    54   31   32 2
    55   31   33 am
    56   33   34 1
    57   33   52 1
    58   34   53 1
    59   34   54 1
    60   35   36 1
    61   35   55 1
    62   35   62 1
    63   36   56 1
    64   36   57 1
    65   36   58 1
    66   37   38 1
    67   38   59 1
    68   38   60 1
    69   38   61 1
@<TRIPOS>MOLECULE
ZINC16697102
   68    71     0     0     0
SMALL
USER_CHARGES

@<TRIPOS>ATOM
      1 C1          0.1414    1.0953    0.0252 C.3       1 <0>        -0.1879
      2 C2          0.0344   -0.4077    0.2904 C.3       1 <0>        -0.0179
      3 N1         -1.3805   -0.7845    0.4095 N.4       1 <0>        -0.3831
      4 C3         -1.4799   -2.1986    0.7946 C.3       1 <0>        -0.0114
      5 C4         -0.8914   -2.3887    2.1940 C.3       1 <0>        -0.1507
      6 C5         -0.9950   -3.8615    2.5951 C.3       1 <0>         0.0609
      7 O1         -0.4452   -4.0391    3.9021 O.3       1 <0>        -0.3065
      8 C6         -0.4595   -5.2979    4.4111 C.ar      1 <0>         0.1651
      9 C7         -0.9928   -6.3439    3.6526 C.ar      1 <0>        -0.2107
     10 C8         -1.0196   -7.6158    4.1389 C.ar      1 <0>        -0.0238
     11 C9         -0.5074   -7.8823    5.4144 C.ar      1 <0>        -0.2178
     12 C10         0.0354   -6.8287    6.1913 C.ar      1 <0>         0.2289
     13 C11         0.0571   -5.5307    5.6679 C.ar      1 <0>        -0.1455
     14 N2          0.5204   -7.1100    7.4103 N.ar      1 <0>        -0.5500
     15 C12         0.4909   -8.3384    7.8707 C.ar      1 <0>         0.3626
     16 N3         -0.0056   -9.3531    7.1820 N.ar      1 <0>        -0.5775
     17 C13        -0.5106   -9.1853    5.9662 C.ar      1 <0>         0.4884
     18 N4         -1.0254  -10.2523    5.2597 N.pl3     1 <0>        -0.5978
     19 C14        -1.0192  -11.5341    5.8239 C.2       1 <0>         0.2990
     20 C15        -0.5280  -11.8736    7.0950 C.2       1 <0>        -0.2355
     21 C16        -0.7031  -13.2037    7.2657 C.2       1 <0>         0.1068
     22 N5         -1.2824  -13.6919    6.1487 N.pl3     1 <0>        -0.4559
     23 H1         -1.5251  -14.6176    5.9907 H         1 <0>         0.4419
     24 N6         -1.4765  -12.6271    5.2595 N.2       1 <0>        -0.3116
     25 C17        -0.3191  -13.9996    8.4864 C.3       1 <0>        -0.0770
     26 C18        -1.4265  -13.9219    9.5056 C.2       1 <0>         0.5143
     27 O2         -2.4289  -13.2831    9.2644 O.2       1 <0>        -0.5002
     28 N7         -1.3030  -14.5622   10.6851 N.am      1 <0>        -0.6720
     29 C19        -2.2828  -14.4064   11.6717 C.ar      1 <0>         0.1711
     30 C20        -1.9219  -14.3818   13.0129 C.ar      1 <0>        -0.1532
     31 C21        -2.8902  -14.2274   13.9854 C.ar      1 <0>        -0.0700
     32 C22        -4.2191  -14.0976   13.6262 C.ar      1 <0>        -0.1667
     33 C23        -4.5833  -14.1215   12.2902 C.ar      1 <0>         0.1178
     34 C24        -3.6165  -14.2702   11.3118 C.ar      1 <0>        -0.1591
     35 F1         -5.8825  -13.9949   11.9421 F         1 <0>        -0.1354
     36 C25        -2.0519   -0.5800   -0.8810 C.3       1 <0>        -0.0098
     37 C26        -3.5535   -0.8247   -0.7191 C.3       1 <0>         0.0446
     38 O3         -4.1050    0.1610    0.1562 O.3       1 <0>        -0.5793
     39 H2          1.1903    1.3917    0.0323 H         1 <0>         0.1072
     40 H3         -0.2944    1.3246   -0.9472 H         1 <0>         0.0804
     41 H4         -0.3955    1.6404    0.8016 H         1 <0>         0.0817
     42 H5          0.4880   -0.9556   -0.5355 H         1 <0>         0.1307
     43 H6          0.5544   -0.6511    1.2170 H         1 <0>         0.1338
     44 H7         -2.5269   -2.5019    0.7965 H         1 <0>         0.1336
     45 H8         -0.9261   -2.8092    0.0814 H         1 <0>         0.1348
     46 H9          0.1556   -2.0854    2.1921 H         1 <0>         0.1011
     47 H10        -1.4452   -1.7781    2.9071 H         1 <0>         0.1012
     48 H11        -2.0419   -4.1648    2.5970 H         1 <0>         0.0752
     49 H12        -0.4411   -4.4721    1.8820 H         1 <0>         0.0757
     50 H13        -1.3888   -6.1408    2.6686 H         1 <0>         0.1349
     51 H14        -1.4346   -8.4154    3.5432 H         1 <0>         0.1334
     52 H15         0.4712   -4.7175    6.2456 H         1 <0>         0.1508
     53 H16         0.8901   -8.5298    8.8558 H         1 <0>         0.2027
     54 H17        -1.3916  -10.1149    4.3721 H         1 <0>         0.4252
     55 H18        -0.0885  -11.1933    7.8093 H         1 <0>         0.1852
     56 H19        -0.1563  -15.0401    8.2054 H         1 <0>         0.1142
     57 H20         0.5968  -13.5910    8.9133 H         1 <0>         0.1312
     58 H21        -0.5348  -15.1312   10.8499 H         1 <0>         0.4166
     59 H22        -0.8844  -14.4838   13.2950 H         1 <0>         0.1350
     60 H23        -2.6091  -14.2084   15.0280 H         1 <0>         0.1399
     61 H24        -4.9744  -13.9777   14.3888 H         1 <0>         0.1383
     62 H25        -3.8995  -14.2849   10.2696 H         1 <0>         0.1494
     63 H26        -1.8848    0.4425   -1.2196 H         1 <0>         0.1421
     64 H27        -1.6474   -1.2765   -1.6154 H         1 <0>         0.1431
     65 H28        -4.0394   -0.7588   -1.6926 H         1 <0>         0.0960
     66 H29        -3.7166   -1.8167   -0.2980 H         1 <0>         0.0707
     67 H30        -5.0389    0.0226    0.3657 H         1 <0>         0.4093
     68 H31        -1.8228   -0.2123    1.1131 H         1 <0>         0.4316
@<TRIPOS>BOND
     1    1    2 1
     2    1   39 1
     3    1   40 1
     4    1   41 1
     5    2    3 1
     6    2   42 1
     7    2   43 1
     8    3    4 1
     9    3   36 1
    10    3   68 1
    11    4    5 1
    12    4   44 1
    13    4   45 1
    14    5    6 1
    15    5   46 1
    16    5   47 1
    17    6    7 1
    18    6   48 1
    19    6   49 1
    20    7    8 1
    21    8   13 ar
    22    8    9 ar
    23    9   10 ar
    24    9   50 1
    25   10   11 ar
    26   10   51 1
    27   11   17 ar
    28   11   12 ar
    29   12   13 ar
    30   12   14 ar
    31   13   52 1
    32   14   15 ar
    33   15   16 ar
    34   15   53 1
    35   16   17 ar
    36   17   18 1
    37   18   19 1
    38   18   54 1
    39   19   24 2
    40   19   20 1
    41   20   21 2
    42   20   55 1
    43   21   22 1
    44   21   25 1
    45   22   23 1
    46   22   24 1
    47   25   26 1
    48   25   56 1
    49   25   57 1
    50   26   27 2
    51   26   28 am
    52   28   29 1
    53   28   58 1
    54   29   34 ar
    55   29   30 ar
    56   30   31 ar
    57   30   59 1
    58   31   32 ar
    59   31   60 1
    60   32   33 ar
    61   32   61 1
    62   33   34 ar
    63   33   35 1
    64   34   62 1
    65   36   37 1
    66   36   63 1
    67   36   64 1
    68   37   38 1
    69   37   65 1
    70   37   66 1
    71   38   67 1
@<TRIPOS>MOLECULE
ZINC16697102
   68    71     0     0     0
SMALL
USER_CHARGES

@<TRIPOS>ATOM
      1 C1          0.1009    1.0895    0.0671 C.3       1 <0>        -0.1880
      2 C2          0.0005   -0.4150    0.3267 C.3       1 <0>        -0.0178
      3 N1         -1.4127   -0.7982    0.4447 N.4       1 <0>        -0.3831
      4 C3         -1.5060   -2.2142    0.8244 C.3       1 <0>        -0.0114
      5 C4         -0.9163   -2.4070    2.2230 C.3       1 <0>        -0.1510
      6 C5         -1.0135   -3.8818    2.6185 C.3       1 <0>         0.0610
      7 O1         -0.4626   -4.0619    3.9247 O.3       1 <0>        -0.3058
      8 C6         -0.4714   -5.3227    4.4290 C.ar      1 <0>         0.1652
      9 C7         -1.0003   -6.3681    3.6667 C.ar      1 <0>        -0.2079
     10 C8         -1.0216   -7.6420    4.1481 C.ar      1 <0>        -0.0271
     11 C9         -0.5079   -7.9111    5.4225 C.ar      1 <0>        -0.2157
     12 C10         0.0306   -6.8581    6.2032 C.ar      1 <0>         0.2279
     13 C11         0.0466   -5.5580    5.6848 C.ar      1 <0>        -0.1434
     14 N2          0.5172   -7.1419    7.4211 N.ar      1 <0>        -0.5462
     15 C12         0.4930   -8.3722    7.8768 C.ar      1 <0>         0.3627
     16 N3          0.0007   -9.3864    7.1844 N.ar      1 <0>        -0.5729
     17 C13        -0.5054   -9.2161    5.9694 C.ar      1 <0>         0.4842
     18 N4         -1.0159  -10.2829    5.2588 N.pl3     1 <0>        -0.6133
     19 C14        -1.0041  -11.5601    5.8152 C.2       1 <0>         0.2975
     20 C15        -0.5278  -11.8985    7.0451 C.2       1 <0>        -0.2522
     21 C16        -0.7053  -13.2747    7.2096 C.2       1 <0>         0.0931
     22 N5         -1.2647  -13.7522    6.1276 N.2       1 <0>        -0.2441
     23 N6         -1.4709  -12.6946    5.2325 N.pl3     1 <0>        -0.4898
     24 H1         -1.8732  -12.7611    4.3523 H         1 <0>         0.4364
     25 C17        -0.3175  -14.0738    8.4270 C.3       1 <0>        -0.0571
     26 C18        -1.5188  -14.8275    8.9368 C.2       1 <0>         0.5153
     27 O2         -2.5849  -14.7257    8.3676 O.2       1 <0>        -0.4982
     28 N7         -1.4084  -15.6146   10.0253 N.am      1 <0>        -0.6749
     29 C19        -2.5443  -16.2321   10.5602 C.ar      1 <0>         0.1739
     30 C20        -2.6655  -16.3952   11.9344 C.ar      1 <0>        -0.1553
     31 C21        -3.7876  -17.0044   12.4607 C.ar      1 <0>        -0.0709
     32 C22        -4.7909  -17.4530   11.6216 C.ar      1 <0>        -0.1690
     33 C23        -4.6742  -17.2924   10.2511 C.ar      1 <0>         0.1173
     34 C24        -3.5547  -16.6775    9.7191 C.ar      1 <0>        -0.1594
     35 F1         -5.6558  -17.7320    9.4336 F         1 <0>        -0.1360
     36 C25        -2.0854   -0.5918   -0.8449 C.3       1 <0>        -0.0099
     37 C26        -3.5858   -0.8435   -0.6835 C.3       1 <0>         0.0446
     38 O3         -4.1414    0.1365    0.1957 O.3       1 <0>        -0.5792
     39 H2          1.1486    1.3904    0.0751 H         1 <0>         0.1074
     40 H3         -0.3361    1.3206   -0.9043 H         1 <0>         0.0805
     41 H4         -0.4380    1.6293    0.8457 H         1 <0>         0.0817
     42 H5          0.4562   -0.9578   -0.5014 H         1 <0>         0.1308
     43 H6          0.5217   -0.6596    1.2522 H         1 <0>         0.1337
     44 H7         -2.5517   -2.5220    0.8255 H         1 <0>         0.1335
     45 H8         -0.9498   -2.8197    0.1089 H         1 <0>         0.1347
     46 H9          0.1294   -2.0993    2.2220 H         1 <0>         0.1014
     47 H10        -1.4725   -1.8015    2.9385 H         1 <0>         0.1015
     48 H11        -2.0591   -4.1896    2.6196 H         1 <0>         0.0752
     49 H12        -0.4572   -4.4873    1.9030 H         1 <0>         0.0757
     50 H13        -1.3975   -6.1630    2.6836 H         1 <0>         0.1354
     51 H14        -1.4333   -8.4411    3.5496 H         1 <0>         0.1313
     52 H15         0.4574   -4.7453    6.2654 H         1 <0>         0.1520
     53 H16         0.8932   -8.5656    8.8611 H         1 <0>         0.2055
     54 H17        -1.3830  -10.1437    4.3718 H         1 <0>         0.4209
     55 H18        -0.0902  -11.2232    7.7655 H         1 <0>         0.1880
     56 H19         0.4693  -14.7803    8.1624 H         1 <0>         0.1181
     57 H20         0.0452  -13.4002    9.2034 H         1 <0>         0.1229
     58 H21        -0.5415  -15.7530   10.4378 H         1 <0>         0.4158
     59 H22        -1.8824  -16.0460   12.5909 H         1 <0>         0.1343
     60 H23        -3.8814  -17.1310   13.5291 H         1 <0>         0.1388
     61 H24        -5.6670  -17.9297   12.0358 H         1 <0>         0.1372
     62 H25        -3.4650  -16.5484    8.6506 H         1 <0>         0.1513
     63 H26        -1.9227    0.4328   -1.1796 H         1 <0>         0.1424
     64 H27        -1.6780   -1.2838   -1.5820 H         1 <0>         0.1432
     65 H28        -4.0723   -0.7760   -1.6566 H         1 <0>         0.0961
     66 H29        -3.7446   -1.8378   -0.2661 H         1 <0>         0.0704
     67 H30        -5.0746   -0.0067    0.4048 H         1 <0>         0.4093
     68 H31        -1.8573   -0.2307    1.1505 H         1 <0>         0.4316
@<TRIPOS>BOND
     1    1    2 1
     2    1   39 1
     3    1   40 1
     4    1   41 1
     5    2    3 1
     6    2   42 1
     7    2   43 1
     8    3    4 1
     9    3   36 1
    10    3   68 1
    11    4    5 1
    12    4   44 1
    13    4   45 1
    14    5    6 1
    15    5   46 1
    16    5   47 1
    17    6    7 1
    18    6   48 1
    19    6   49 1
    20    7    8 1
    21    8   13 ar
    22    8    9 ar
    23    9   10 ar
    24    9   50 1
    25   10   11 ar
    26   10   51 1
    27   11   17 ar
    28   11   12 ar
    29   12   13 ar
    30   12   14 ar
    31   13   52 1
    32   14   15 ar
    33   15   16 ar
    34   15   53 1
    35   16   17 ar
    36   17   18 1
    37   18   19 1
    38   18   54 1
    39   19   23 1
    40   19   20 2
    41   20   21 1
    42   20   55 1
    43   21   22 2
    44   21   25 1
    45   22   23 1
    46   23   24 1
    47   25   26 1
    48   25   56 1
    49   25   57 1
    50   26   27 2
    51   26   28 am
    52   28   29 1
    53   28   58 1
    54   29   34 ar
    55   29   30 ar
    56   30   31 ar
    57   30   59 1
    58   31   32 ar
    59   31   60 1
    60   32   33 ar
    61   32   61 1
    62   33   34 ar
    63   33   35 1
    64   34   62 1
    65   36   37 1
    66   36   63 1
    67   36   64 1
    68   37   38 1
    69   37   65 1
    70   37   66 1
    71   38   67 1
@<TRIPOS>MOLECULE
ZINC03834198
   55    58     0     0     0
SMALL
USER_CHARGES

@<TRIPOS>ATOM
      1 C1          2.2102    1.3214   -1.5438 C.3       1 <0>        -0.0473
      2 N1          2.0302   -0.1310   -1.4177 N.4       1 <0>        -0.3861
      3 C2          2.8485   -0.8135   -2.4272 C.3       1 <0>        -0.0039
      4 C3          2.6029   -2.3220   -2.3537 C.3       1 <0>        -0.1426
      5 C4          2.9828   -2.8281   -0.9591 C.3       1 <0>        -0.0980
      6 C5          2.1768   -2.0570    0.0901 C.3       1 <0>        -0.1436
      7 C6          2.4382   -0.5583   -0.0740 C.3       1 <0>        -0.0065
      8 C7          2.6653   -4.3210   -0.8526 C.3       1 <0>         0.0553
      9 O1          3.1265   -4.8175    0.4056 O.3       1 <0>        -0.2959
     10 C8          2.9210   -6.1358    0.6612 C.ar      1 <0>         0.1621
     11 C9          2.2972   -6.9233   -0.2811 C.ar      1 <0>        -0.1791
     12 C10         2.0867   -8.2816   -0.0149 C.ar      1 <0>         0.2018
     13 C11         2.5192   -8.8246    1.2204 C.ar      1 <0>        -0.1784
     14 C12         3.1508   -8.0026    2.1612 C.ar      1 <0>        -0.1424
     15 C13         3.3512   -6.6812    1.8787 C.ar      1 <0>         0.1099
     16 O2          3.9702   -5.8850    2.7909 O.3       1 <0>        -0.3030
     17 C14         4.3854   -6.4992    4.0125 C.3       1 <0>         0.0198
     18 C15         2.2930  -10.2009    1.4605 C.ar      1 <0>         0.4667
     19 N2          1.6881  -10.9114    0.5174 N.ar      1 <0>        -0.5768
     20 C16         1.3012  -10.3606   -0.6222 C.ar      1 <0>         0.3478
     21 N3          1.4842   -9.0917   -0.8996 N.ar      1 <0>        -0.5414
     22 N4          2.6915  -10.7885    2.6441 N.pl3     1 <0>        -0.6296
     23 C17         2.5831  -12.1741    2.8088 C.ar      1 <0>         0.1376
     24 C18         2.4560  -12.9987    1.6992 C.ar      1 <0>        -0.1039
     25 C19         2.3491  -14.3660    1.8644 C.ar      1 <0>        -0.0732
     26 C20         2.3685  -14.9152    3.1341 C.ar      1 <0>        -0.0857
     27 C21         2.4949  -14.0974    4.2430 C.ar      1 <0>        -0.1007
     28 C22         2.6081  -12.7284    4.0841 C.ar      1 <0>         0.0686
     29 F1          2.7372  -11.9301    5.1664 F         1 <0>        -0.1332
     30 Br1         2.2212  -16.7875    3.3546 Br        1 <0>        -0.0295
     31 H1          3.2589    1.5727   -1.3848 H         1 <0>         0.1219
     32 H2          1.9075    1.6398   -2.5414 H         1 <0>         0.1242
     33 H3          1.5979    1.8295   -0.7989 H         1 <0>         0.1242
     34 H4          2.5792   -0.4499   -3.4189 H         1 <0>         0.1343
     35 H5          3.9024   -0.6078   -2.2397 H         1 <0>         0.1306
     36 H6          1.5493   -2.5288   -2.5414 H         1 <0>         0.0934
     37 H7          3.2127   -2.8271   -3.1028 H         1 <0>         0.1176
     38 H8          4.0478   -2.6678   -0.7908 H         1 <0>         0.1030
     39 H9          1.1143   -2.2583   -0.0469 H         1 <0>         0.0893
     40 H10         2.4820   -2.3726    1.0878 H         1 <0>         0.1210
     41 H11         3.5008   -0.3580    0.0634 H         1 <0>         0.1299
     42 H12         1.8660   -0.0063    0.6716 H         1 <0>         0.1325
     43 H13         1.5883   -4.4698   -0.9292 H         1 <0>         0.0742
     44 H14         3.1645   -4.8571   -1.6597 H         1 <0>         0.0787
     45 H15         1.9724   -6.4960   -1.2182 H         1 <0>         0.1540
     46 H16         3.4818   -8.4122    3.1042 H         1 <0>         0.1414
     47 H17         4.8638   -5.7549    4.6491 H         1 <0>         0.1093
     48 H18         3.5165   -6.9116    4.5254 H         1 <0>         0.0597
     49 H19         5.0925   -7.2996    3.7947 H         1 <0>         0.0600
     50 H20         0.8133  -10.9840   -1.3569 H         1 <0>         0.2036
     51 H21         3.0467  -10.2411    3.3618 H         1 <0>         0.4241
     52 H22         2.4404  -12.5714    0.7074 H         1 <0>         0.1818
     53 H23         2.2499  -15.0072    1.0010 H         1 <0>         0.1463
     54 H24         2.5094  -14.5289    5.2329 H         1 <0>         0.1515
     55 H25         1.0589   -0.3624   -1.5626 H         1 <0>         0.4246
@<TRIPOS>BOND
     1    1    2 1
     2    1   31 1
     3    1   32 1
     4    1   33 1
     5    2    7 1
     6    2    3 1
     7    2   55 1
     8    3    4 1
     9    3   34 1
    10    3   35 1
    11    4    5 1
    12    4   36 1
    13    4   37 1
    14    5    6 1
    15    5    8 1
    16    5   38 1
    17    6    7 1
    18    6   39 1
    19    6   40 1
    20    7   41 1
    21    7   42 1
    22    8    9 1
    23    8   43 1
    24    8   44 1
    25    9   10 1
    26   10   15 ar
    27   10   11 ar
    28   11   12 ar
    29   11   45 1
    30   12   21 ar
    31   12   13 ar
    32   13   14 ar
    33   13   18 ar
    34   14   15 ar
    35   14   46 1
    36   15   16 1
    37   16   17 1
    38   17   47 1
    39   17   48 1
    40   17   49 1
    41   18   19 ar
    42   18   22 1
    43   19   20 ar
    44   20   21 ar
    45   20   50 1
    46   22   23 1
    47   22   51 1
    48   23   28 ar
    49   23   24 ar
    50   24   25 ar
    51   24   52 1
    52   25   26 ar
    53   25   53 1
    54   26   27 ar
    55   26   30 1
    56   27   28 ar
    57   27   54 1
    58   28   29 1
@<TRIPOS>MOLECULE
ZINC03776578
   56    63     0     0     0
SMALL
USER_CHARGES
methyl hydroxy-methyl-oxo-BLAHcarboxylate
@<TRIPOS>ATOM
      1 C1          4.6411   -0.1552   -1.5714 C.3       1 <0>        -0.1724
      2 C2          4.4710    1.3091   -1.1615 C.3       1 <0>         0.3586
      3 C3          5.8472    1.9657   -0.9322 C.3       1 <0>         0.1093
      4 C4          5.6918    2.7845    0.3660 C.3       1 <0>        -0.1926
      5 C5          4.2338    2.5571    0.8137 C.3       1 <0>         0.3158
      6 H1          4.1890    2.3795    1.8883 H         1 <0>         0.1542
      7 O1          3.7815    1.4144    0.0850 O.3       1 <0>        -0.3341
      8 N1          3.4363    3.7347    0.4570 N.pl3     1 <0>        -0.5142
      9 C6          3.0900    4.7819    1.2719 C.ar      1 <0>         0.1513
     10 C7          3.4566    5.0737    2.5852 C.ar      1 <0>        -0.1538
     11 C8          2.9047    6.2060    3.1589 C.ar      1 <0>        -0.0734
     12 C9          2.0254    7.0269    2.4737 C.ar      1 <0>        -0.1590
     13 C10         1.6490    6.7645    1.1680 C.ar      1 <0>        -0.0355
     14 C11         2.1977    5.6288    0.5690 C.ar      1 <0>        -0.1059
     15 C12         2.0390    5.0598   -0.7658 C.ar      1 <0>         0.0013
     16 C13         2.8485    3.9253   -0.7871 C.ar      1 <0>         0.1057
     17 C14         2.9848    3.1753   -1.9604 C.ar      1 <0>         0.1613
     18 N2          3.7535    2.0503   -2.2040 N.pl3     1 <0>        -0.4850
     19 C15         3.6695    1.7360   -3.5382 C.ar      1 <0>         0.1607
     20 C16         4.2932    0.7313   -4.2764 C.ar      1 <0>        -0.1427
     21 C17         3.9828    0.6508   -5.6236 C.ar      1 <0>        -0.0834
     22 C18         3.0908    1.5188   -6.2276 C.ar      1 <0>        -0.1490
     23 C19         2.4592    2.5264   -5.5176 C.ar      1 <0>        -0.0558
     24 C20         2.7650    2.6286   -4.1610 C.ar      1 <0>        -0.0939
     25 C21         2.3180    3.5661   -3.1293 C.ar      1 <0>        -0.0589
     26 C22         1.4700    4.6682   -3.0944 C.ar      1 <0>        -0.0412
     27 C23         1.3181    5.4163   -1.9294 C.ar      1 <0>        -0.1369
     28 C24         0.3653    6.5044   -2.1982 C.2       1 <0>         0.5681
     29 O2          0.0084    7.3316   -1.3812 O.2       1 <0>        -0.5250
     30 N3         -0.0544    6.4563   -3.4736 N.am      1 <0>        -0.7236
     31 C25         0.5947    5.3204   -4.1370 C.3       1 <0>         0.1440
     32 C26         6.9085    0.9097   -0.7607 C.2       1 <0>         0.4485
     33 O3          7.1677    0.4870    0.3412 O.2       1 <0>        -0.4814
     34 O4          7.5660    0.4387   -1.8319 O.3       1 <0>        -0.3416
     35 C27         8.5751   -0.5773   -1.5919 C.3       1 <0>         0.0291
     36 O5          6.1766    2.8260   -2.0247 O.3       1 <0>        -0.5068
     37 H2          5.4271   -0.2333   -2.3224 H         1 <0>         0.1044
     38 H3          4.9129   -0.7478   -0.6979 H         1 <0>         0.0943
     39 H4          3.7042   -0.5276   -1.9859 H         1 <0>         0.0974
     40 H5          5.8665    3.8423    0.1694 H         1 <0>         0.1167
     41 H6          6.3822    2.4214    1.1273 H         1 <0>         0.1245
     42 H7          4.1421    4.4429    3.1316 H         1 <0>         0.1297
     43 H8          3.1693    6.4579    4.1753 H         1 <0>         0.1262
     44 H9          1.6218    7.8959    2.9719 H         1 <0>         0.1254
     45 H10         0.9627    7.4078    0.6374 H         1 <0>         0.1521
     46 H11         4.9893    0.0450   -3.8172 H         1 <0>         0.1354
     47 H12         4.4524   -0.1154   -6.2226 H         1 <0>         0.1258
     48 H13         2.8815    1.4079   -7.2813 H         1 <0>         0.1249
     49 H14         1.7657    3.2040   -5.9934 H         1 <0>         0.1353
     50 H15        -0.6822    7.0698   -3.8866 H         1 <0>         0.4268
     51 H16         1.2029    5.6709   -4.9708 H         1 <0>         0.1005
     52 H17        -0.1554    4.6137   -4.4918 H         1 <0>         0.1004
     53 H18         8.1114   -1.4473   -1.1270 H         1 <0>         0.0685
     54 H19         9.0287   -0.8699   -2.5389 H         1 <0>         0.1101
     55 H20         9.3429   -0.1775   -0.9295 H         1 <0>         0.0678
     56 H21         7.0129    3.2989   -1.9146 H         1 <0>         0.3918
@<TRIPOS>BOND
     1    1    2 1
     2    1   37 1
     3    1   38 1
     4    1   39 1
     5    2    7 1
     6    2   18 1
     7    2    3 1
     8    3    4 1
     9    3   32 1
    10    3   36 1
    11    4    5 1
    12    4   40 1
    13    4   41 1
    14    5    6 1
    15    5    7 1
    16    5    8 1
    17    8   16 1
    18    8    9 1
    19    9   14 ar
    20    9   10 ar
    21   10   11 ar
    22   10   42 1
    23   11   12 ar
    24   11   43 1
    25   12   13 ar
    26   12   44 1
    27   13   14 ar
    28   13   45 1
    29   14   15 1
    30   15   27 ar
    31   15   16 ar
    32   16   17 ar
    33   17   25 ar
    34   17   18 1
    35   18   19 1
    36   19   24 ar
    37   19   20 ar
    38   20   21 ar
    39   20   46 1
    40   21   22 ar
    41   21   47 1
    42   22   23 ar
    43   22   48 1
    44   23   24 ar
    45   23   49 1
    46   24   25 1
    47   25   26 ar
    48   26   31 1
    49   26   27 ar
    50   27   28 1
    51   28   29 2
    52   28   30 am
    53   30   31 1
    54   30   50 1
    55   31   51 1
    56   31   52 1
    57   32   33 2
    58   32   34 1
    59   34   35 1
    60   35   53 1
    61   35   54 1
    62   35   55 1
    63   36   56 1
@<TRIPOS>MOLECULE
ZINC03816409
   50    52     0     0     0
SMALL
USER_CHARGES
N-[5-[(5-tert-butyloxazol-2-yl)methylsulfanyl]thiazol-2-yl]piperidine-4-carboxamide
@<TRIPOS>ATOM
      1 C1         -0.0127    1.0858    0.0080 C.3       1 <0>        -0.1425
      2 C2         -0.7288    1.5792    1.2668 C.3       1 <0>         0.0153
      3 C3          0.0111    1.0724    2.5063 C.3       1 <0>        -0.1429
      4 C4         -0.7496    3.1091    1.2752 C.3       1 <0>        -0.1470
      5 C5         -2.1426    1.0576    1.2775 C.2       1 <0>        -0.0059
      6 C6         -2.5173   -0.2324    1.2742 C.2       1 <0>        -0.0384
      7 N1         -3.8616   -0.2670    1.2868 N.2       1 <0>        -0.4461
      8 C7         -4.3108    0.9556    1.2976 C.2       1 <0>         0.1754
      9 O1         -3.2687    1.7975    1.2981 O.3       1 <0>        -0.1872
     10 C8         -5.7633    1.3568    1.3132 C.3       1 <0>        -0.0274
     11 S1         -6.3302    1.5091    3.0296 S.3       1 <0>         0.0531
     12 C9         -8.0223    1.9770    2.8797 C.2       1 <0>        -0.2079
     13 C10        -8.9445    2.2293    3.8504 C.2       1 <0>         0.0730
     14 N2        -10.1733    2.5704    3.5096 N.2       1 <0>        -0.4781
     15 C11       -10.5307    2.6731    2.2430 C.2       1 <0>         0.3098
     16 S2         -9.0031    2.2599    1.4114 S.3       1 <0>         0.0397
     17 N3        -11.7659    3.0158    1.7000 N.am      1 <0>        -0.6146
     18 C12       -12.8034    3.3002    2.5119 C.2       1 <0>         0.5107
     19 O2        -12.6609    3.2576    3.7157 O.2       1 <0>        -0.4551
     20 C13       -14.1405    3.6713    1.9241 C.3       1 <0>        -0.1149
     21 C14       -13.9915    4.9332    1.0698 C.3       1 <0>        -0.1461
     22 C15       -15.3628    5.3397    0.5255 C.3       1 <0>         0.0009
     23 C16       -16.4761    4.3789    2.4515 C.3       1 <0>        -0.0009
     24 C17       -15.1380    3.9438    3.0534 C.3       1 <0>        -0.1323
     25 H1          0.0021   -0.0041    0.0020 H         1 <0>         0.0648
     26 H2          1.0099    1.4631    0.0003 H         1 <0>         0.0750
     27 H3         -0.5399    1.4469   -0.8751 H         1 <0>         0.0608
     28 H4          1.0337    1.4497    2.4986 H         1 <0>         0.0751
     29 H5         -0.4990    1.4239    3.4031 H         1 <0>         0.0616
     30 H6          0.0259   -0.0175    2.5003 H         1 <0>         0.0649
     31 H7         -1.2768    3.4701    0.3922 H         1 <0>         0.0605
     32 H8         -1.2598    3.4606    2.1720 H         1 <0>         0.0616
     33 H9          0.2730    3.4864    1.2675 H         1 <0>         0.0706
     34 H10        -1.8578   -1.0876    1.2633 H         1 <0>         0.1891
     35 H11        -5.8813    2.3140    0.8053 H         1 <0>         0.1204
     36 H12        -6.3553    0.5983    0.8010 H         1 <0>         0.1329
     37 H13        -8.6718    2.1504    4.8925 H         1 <0>         0.1794
     38 H14       -11.8799    3.0499    0.7373 H         1 <0>         0.4267
     39 H15       -14.5061    2.8521    1.3049 H         1 <0>         0.1234
     40 H16       -13.5885    5.7409    1.6809 H         1 <0>         0.0995
     41 H17       -13.3151    4.7324    0.2390 H         1 <0>         0.1172
     42 H18       -15.7590    4.5372   -0.0967 H         1 <0>         0.1349
     43 H19       -15.2623    6.2461   -0.0715 H         1 <0>         0.1387
     44 H20       -16.8671    3.5809    1.8204 H         1 <0>         0.1334
     45 H21       -17.1842    4.5877    3.2534 H         1 <0>         0.1392
     46 H22       -15.2808    3.0361    3.6398 H         1 <0>         0.1229
     47 H23       -14.7528    4.7354    3.6961 H         1 <0>         0.1008
     48 N4        -16.2857    5.6006    1.6466 N.4       1 <0>        -0.5187
     49 H24       -17.1928    5.9050    1.2741 H         1 <0>         0.4395
     50 H25       -15.8944    6.3401    2.2417 H         1 <0>         0.4347
@<TRIPOS>BOND
     1    1    2 1
     2    1   25 1
     3    1   26 1
     4    1   27 1
     5    2    3 1
     6    2    4 1
     7    2    5 1
     8    3   28 1
     9    3   29 1
    10    3   30 1
    11    4   31 1
    12    4   32 1
    13    4   33 1
    14    5    9 1
    15    5    6 2
    16    6    7 1
    17    6   34 1
    18    7    8 2
    19    8    9 1
    20    8   10 1
    21   10   11 1
    22   10   35 1
    23   10   36 1
    24   11   12 1
    25   12   16 1
    26   12   13 2
    27   13   14 1
    28   13   37 1
    29   14   15 2
    30   15   16 1
    31   15   17 1
    32   17   18 am
    33   17   38 1
    34   18   19 2
    35   18   20 1
    36   20   24 1
    37   20   21 1
    38   20   39 1
    39   21   22 1
    40   21   40 1
    41   21   41 1
    42   22   42 1
    43   22   43 1
    44   22   48 1
    45   23   24 1
    46   23   44 1
    47   23   45 1
    48   23   48 1
    49   24   46 1
    50   24   47 1
    51   48   49 1
    52   48   50 1
@<TRIPOS>MOLECULE
ZINC08830553
   23    24     0     0     0
SMALL
USER_CHARGES

@<TRIPOS>ATOM
      1 C1         -0.0178    1.4608    0.0101 C.3       1 <0>         0.1046
      2 N1          0.0021   -0.0041    0.0020 N.pl3     1 <0>        -0.5941
      3 C2          0.0241   -0.7433    1.2666 C.3       1 <0>         0.0832
      4 C3          0.0000   -0.6873   -1.1963 C.2       1 <0>         0.5723
      5 N2          0.0119   -2.0467   -1.3242 N.pl3     1 <0>        -0.6100
      6 H1          0.0232   -2.6926   -0.6006 H         1 <0>         0.4284
      7 C4          0.0041   -2.3318   -2.6805 C.ar      1 <0>         0.0801
      8 C5         -0.0126   -1.0922   -3.3399 C.ar      1 <0>         0.1386
      9 N3         -0.0193   -0.1288   -2.3806 N.2       1 <0>        -0.5242
     10 C6         -0.0242   -1.0555   -4.7369 C.ar      1 <0>        -0.0212
     11 C7         -0.0190   -2.2337   -5.4529 C.ar      1 <0>        -0.0459
     12 C8         -0.0029   -3.4564   -4.7961 C.ar      1 <0>        -0.0542
     13 C9          0.0091   -3.5081   -3.4157 C.ar      1 <0>        -0.0340
     14 Br1         0.0322   -5.1789   -2.5303 Br        1 <0>        -0.0066
     15 Br2         0.0027   -5.0609   -5.7968 Br        1 <0>         0.0152
     16 Br3        -0.0346   -2.1836   -7.3432 Br        1 <0>         0.0151
     17 Br4        -0.0474    0.6046   -5.6421 Br        1 <0>         0.0102
     18 H2          1.0048    1.8381    0.0023 H         1 <0>         0.0599
     19 H3         -0.5450    1.8219   -0.8730 H         1 <0>         0.0859
     20 H4         -0.5280    1.8123    0.9069 H         1 <0>         0.0771
     21 H5          0.0224   -0.0395    2.0990 H         1 <0>         0.0963
     22 H6         -0.8567   -1.3823    1.3294 H         1 <0>         0.0616
     23 H7          0.9230   -1.3581    1.3125 H         1 <0>         0.0616
@<TRIPOS>BOND
     1    1    2 1
     2    1   18 1
     3    1   19 1
     4    1   20 1
     5    2    3 1
     6    2    4 1
     7    3   21 1
     8    3   22 1
     9    3   23 1
    10    4    9 2
    11    4    5 1
    12    5    6 1
    13    5    7 1
    14    7   13 ar
    15    7    8 ar
    16    8    9 1
    17    8   10 ar
    18   10   11 ar
    19   10   17 1
    20   11   12 ar
    21   11   16 1
    22   12   13 ar
    23   12   15 1
    24   13   14 1
@<TRIPOS>MOLECULE
ZINC03801072
   57    62     0     0     0
SMALL
USER_CHARGES
3-(aminomethylBLAHyl)-4-(1-methylindol-3-yl)-pyrrole-2,5-dione
@<TRIPOS>ATOM
      1 C1         -3.3259    7.1513   -1.4756 C.3       1 <0>         0.0723
      2 N1         -2.7966    6.0928   -0.6121 N.pl3     1 <0>        -0.4749
      3 C2         -1.9223    5.1286   -1.0105 C.2       1 <0>         0.1101
      4 C3         -1.6367    4.3057    0.0389 C.2       1 <0>        -0.1496
      5 C4         -2.4117    4.8068    1.1877 C.ar      1 <0>        -0.0736
      6 C5         -3.1136    5.9306    0.7206 C.ar      1 <0>         0.0952
      7 C6         -3.9408    6.6294    1.5934 C.ar      1 <0>        -0.1201
      8 C7         -4.0730    6.2101    2.8997 C.ar      1 <0>        -0.1007
      9 C8         -3.3765    5.1025    3.3605 C.ar      1 <0>        -0.1389
     10 C9         -2.5480    4.3999    2.5129 C.ar      1 <0>        -0.0798
     11 C10        -0.7356    3.1412    0.0251 C.2       1 <0>        -0.0074
     12 C11         0.6542    3.1601    0.0122 C.2       1 <0>        -0.0489
     13 C12         1.0829    1.7461    0.0011 C.2       1 <0>         0.5569
     14 O1          2.2328    1.3543   -0.0120 O.2       1 <0>        -0.4501
     15 N2         -0.0111    0.9658    0.0074 N.am      1 <0>        -0.6904
     16 C13        -1.1258    1.7161    0.0162 C.2       1 <0>         0.5503
     17 O2         -2.2647    1.2931    0.0185 O.2       1 <0>        -0.4368
     18 C14         1.5234    4.3487    0.0094 C.2       1 <0>        -0.1029
     19 C15         2.0341    5.0570   -1.1625 C.ar      1 <0>        -0.0809
     20 C16         1.8723    4.8452   -2.5318 C.ar      1 <0>        -0.0685
     21 C17         2.5154    5.7314   -3.3791 C.ar      1 <0>        -0.1378
     22 C18         3.2819    6.7783   -2.8957 C.ar      1 <0>        -0.0920
     23 C19         3.4473    7.0091   -1.5406 C.ar      1 <0>        -0.1299
     24 C20         2.8142    6.1277   -0.6658 C.ar      1 <0>         0.1065
     25 N3          2.7859    6.0659    0.7003 N.pl3     1 <0>        -0.4762
     26 C21         2.0165    5.0037    1.1008 C.2       1 <0>         0.0993
     27 C22         1.7661    4.6329    2.5442 C.3       1 <0>        -0.0498
     28 C23         2.7987    5.3589    3.4147 C.3       1 <0>        -0.1226
     29 H1          3.7825    4.9161    3.2592 H         1 <0>         0.1052
     30 C24         2.8343    6.8379    3.0190 C.3       1 <0>        -0.1422
     31 C25         3.4640    6.9813    1.6311 C.3       1 <0>         0.1126
     32 C26         2.4057    5.2326    4.8879 C.3       1 <0>        -0.0001
     33 H2         -4.2445    6.8072   -1.9508 H         1 <0>         0.0775
     34 H3         -3.5365    8.0374   -0.8768 H         1 <0>         0.0850
     35 H4         -2.5905    7.3969   -2.2418 H         1 <0>         0.0880
     36 H5         -1.5164    5.0301   -2.0064 H         1 <0>         0.1742
     37 H6         -4.4891    7.4919    1.2444 H         1 <0>         0.1218
     38 H7         -4.7194    6.7536    3.5730 H         1 <0>         0.1276
     39 H8         -3.4845    4.7892    4.3884 H         1 <0>         0.1235
     40 H9         -2.0071    3.5376    2.8741 H         1 <0>         0.1166
     41 H10         0.0021   -0.0041    0.0020 H         1 <0>         0.4311
     42 H11         1.2751    4.0297   -2.9123 H         1 <0>         0.1298
     43 H12         2.4160    5.6028   -4.4468 H         1 <0>         0.1249
     44 H13         3.7619    7.4416   -3.5999 H         1 <0>         0.1259
     45 H14         4.0500    7.8285   -1.1775 H         1 <0>         0.1275
     46 H15         0.7610    4.9401    2.8333 H         1 <0>         0.1021
     47 H16         1.8712    3.5553    2.6702 H         1 <0>         0.1005
     48 H17         1.8187    7.2331    2.9995 H         1 <0>         0.0956
     49 H18         3.4264    7.3941    3.7456 H         1 <0>         0.0809
     50 H19         3.3484    8.0075    1.2824 H         1 <0>         0.0966
     51 H20         4.5233    6.7296    1.6834 H         1 <0>         0.0844
     52 H21         1.4654    5.7567    5.0594 H         1 <0>         0.1414
     53 H22         2.2864    4.1796    5.1432 H         1 <0>         0.1406
     54 H23         3.6306    6.7829    5.4663 H         1 <0>         0.4337
     55 H24         3.2198    5.7530    6.7058 H         1 <0>         0.4433
     56 N4          3.4755    5.8090    5.7213 N.4       1 <0>        -0.6481
     57 H25         4.3429    5.2808    5.5699 H         1 <0>         0.4410
@<TRIPOS>BOND
     1    1    2 1
     2    1   33 1
     3    1   34 1
     4    1   35 1
     5    2    6 1
     6    2    3 1
     7    3    4 2
     8    3   36 1
     9    4    5 1
    10    4   11 1
    11    5   10 ar
    12    5    6 ar
    13    6    7 ar
    14    7    8 ar
    15    7   37 1
    16    8    9 ar
    17    8   38 1
    18    9   10 ar
    19    9   39 1
    20   10   40 1
    21   11   16 1
    22   11   12 2
    23   12   13 1
    24   12   18 1
    25   13   14 2
    26   13   15 am
    27   15   16 am
    28   15   41 1
    29   16   17 2
    30   18   26 2
    31   18   19 1
    32   19   24 ar
    33   19   20 ar
    34   20   21 ar
    35   20   42 1
    36   21   22 ar
    37   21   43 1
    38   22   23 ar
    39   22   44 1
    40   23   24 ar
    41   23   45 1
    42   24   25 1
    43   25   31 1
    44   25   26 1
    45   26   27 1
    46   27   28 1
    47   27   46 1
    48   27   47 1
    49   28   29 1
    50   28   30 1
    51   28   32 1
    52   30   31 1
    53   30   48 1
    54   30   49 1
    55   31   50 1
    56   31   51 1
    57   32   52 1
    58   32   53 1
    59   32   56 1
    60   54   56 1
    61   55   56 1
    62   56   57 1
@<TRIPOS>MOLECULE
ZINC03871742
   57    62     0     0     0
SMALL
USER_CHARGES
3-(aminomethylBLAHyl)-4-(1-methylindol-3-yl)-pyrrole-2,5-dione
@<TRIPOS>ATOM
      1 C1         -1.1887   -0.8574    0.0084 C.3       1 <0>         0.0721
      2 N1          0.0021   -0.0041    0.0020 N.pl3     1 <0>        -0.4749
      3 C2         -0.0164    1.3569    0.0095 C.2       1 <0>         0.1103
      4 C3          1.2614    1.8336   -0.0001 C.2       1 <0>        -0.1482
      5 C4          2.1479    0.6566   -0.0149 C.ar      1 <0>        -0.0735
      6 C5          1.3021   -0.4652   -0.0129 C.ar      1 <0>         0.0954
      7 C6          1.8593   -1.7394   -0.0243 C.ar      1 <0>        -0.1198
      8 C7          3.2291   -1.8910   -0.0389 C.ar      1 <0>        -0.1018
      9 C8          4.0630   -0.7824   -0.0409 C.ar      1 <0>        -0.1402
     10 C9          3.5305    0.4884   -0.0290 C.ar      1 <0>        -0.0800
     11 C10         1.6741    3.2471    0.0035 C.2       1 <0>        -0.0109
     12 C11         1.6378    4.1254    1.0802 C.2       1 <0>        -0.0459
     13 C12         2.1552    5.4140    0.5751 C.2       1 <0>         0.5561
     14 O1          2.2787    6.4322    1.2261 O.2       1 <0>        -0.4479
     15 N2          2.4610    5.2735   -0.7259 N.am      1 <0>        -0.6903
     16 C13         2.2046    4.0205   -1.1382 C.2       1 <0>         0.5507
     17 O2          2.3795    3.5948   -2.2625 O.2       1 <0>        -0.4377
     18 C14         1.1793    3.8307    2.4481 C.2       1 <0>        -0.1038
     19 C15        -0.1788    3.9792    2.9672 C.ar      1 <0>        -0.0807
     20 C16        -1.3704    4.3967    2.3738 C.ar      1 <0>        -0.0687
     21 C17        -2.4967    4.4063    3.1788 C.ar      1 <0>        -0.1376
     22 C18        -2.4492    4.0151    4.5061 C.ar      1 <0>        -0.0921
     23 C19        -1.2776    3.5924    5.1106 C.ar      1 <0>        -0.1297
     24 C20        -0.1286    3.5737    4.3217 C.ar      1 <0>         0.1064
     25 N3          1.1618    3.2177    4.6031 N.pl3     1 <0>        -0.4761
     26 C21         1.9397    3.3702    3.4840 C.2       1 <0>         0.0999
     27 C22         3.4190    3.0664    3.4303 C.3       1 <0>        -0.0509
     28 C23         3.7816    2.2172    4.6545 C.3       1 <0>        -0.1214
     29 H1          3.3660    1.2160    4.5398 H         1 <0>         0.1054
     30 C24         3.1994    2.8749    5.9089 C.3       1 <0>        -0.1438
     31 C25         1.6745    2.7401    5.8965 C.3       1 <0>         0.1131
     32 C26         5.3036    2.1279    4.7828 C.3       1 <0>        -0.0001
     33 H2         -1.4937   -1.0632   -1.0177 H         1 <0>         0.0777
     34 H3         -0.9609   -1.7954    0.5147 H         1 <0>         0.0848
     35 H4         -1.9976   -0.3486    0.5328 H         1 <0>         0.0884
     36 H5         -0.9077    1.9668    0.0172 H         1 <0>         0.1746
     37 H6          1.2192   -2.6093   -0.0229 H         1 <0>         0.1218
     38 H7          3.6574   -2.8824   -0.0480 H         1 <0>         0.1272
     39 H8          5.1347   -0.9160   -0.0522 H         1 <0>         0.1230
     40 H9          4.1820    1.3498   -0.0303 H         1 <0>         0.1166
     41 H10         2.8172    5.9784   -1.2889 H         1 <0>         0.4313
     42 H11        -1.4112    4.7019    1.3387 H         1 <0>         0.1299
     43 H12        -3.4388    4.7276    2.7596 H         1 <0>         0.1249
     44 H13        -3.3573    4.0410    5.0902 H         1 <0>         0.1260
     45 H14        -1.2550    3.2902    6.1472 H         1 <0>         0.1276
     46 H15         3.6476    2.5137    2.5191 H         1 <0>         0.1042
     47 H16         3.9860    3.9972    3.4480 H         1 <0>         0.0990
     48 H17         3.6002    2.3840    6.7957 H         1 <0>         0.0806
     49 H18         3.4703    3.9306    5.9245 H         1 <0>         0.0964
     50 H19         1.3997    1.6944    6.0341 H         1 <0>         0.0833
     51 H20         1.2490    3.3381    6.7024 H         1 <0>         0.0974
     52 H21         5.7252    1.7492    3.8517 H         1 <0>         0.1439
     53 H22         5.7095    3.1182    4.9892 H         1 <0>         0.1380
     54 H23         5.2305    0.3102    5.7467 H         1 <0>         0.4383
     55 H24         6.6503    1.1419    5.9880 H         1 <0>         0.4433
     56 N4          5.6391    1.2303    5.9022 N.4       1 <0>        -0.6481
     57 H25         5.2619    1.6215    6.7733 H         1 <0>         0.4361
@<TRIPOS>BOND
     1    1    2 1
     2    1   33 1
     3    1   34 1
     4    1   35 1
     5    2    6 1
     6    2    3 1
     7    3    4 2
     8    3   36 1
     9    4    5 1
    10    4   11 1
    11    5   10 ar
    12    5    6 ar
    13    6    7 ar
    14    7    8 ar
    15    7   37 1
    16    8    9 ar
    17    8   38 1
    18    9   10 ar
    19    9   39 1
    20   10   40 1
    21   11   16 1
    22   11   12 2
    23   12   13 1
    24   12   18 1
    25   13   14 2
    26   13   15 am
    27   15   16 am
    28   15   41 1
    29   16   17 2
    30   18   26 2
    31   18   19 1
    32   19   24 ar
    33   19   20 ar
    34   20   21 ar
    35   20   42 1
    36   21   22 ar
    37   21   43 1
    38   22   23 ar
    39   22   44 1
    40   23   24 ar
    41   23   45 1
    42   24   25 1
    43   25   31 1
    44   25   26 1
    45   26   27 1
    46   27   28 1
    47   27   46 1
    48   27   47 1
    49   28   29 1
    50   28   30 1
    51   28   32 1
    52   30   31 1
    53   30   48 1
    54   30   49 1
    55   31   50 1
    56   31   51 1
    57   32   52 1
    58   32   53 1
    59   32   56 1
    60   54   56 1
    61   55   56 1
    62   56   57 1
@<TRIPOS>MOLECULE
ZINC21288966
   49    52     0     0     0
SMALL
USER_CHARGES
2-(2-chlorophenyl)-5,7-dihydroxy-8-[(3S,4R)-3-hydroxy-1-methyl-4-piperidyl]chromen-4-one
@<TRIPOS>ATOM
      1 C1          6.0895   -0.0238    5.9621 C.3       1 <0>        -0.0460
      2 N1          6.1756    1.0472    4.9603 N.4       1 <0>        -0.3934
      3 C2          5.9739    0.5180    3.6055 C.3       1 <0>        -0.0028
      4 C3          6.2126    1.6289    2.5802 C.3       1 <0>        -0.1464
      5 C4          5.2418    2.7821    2.8491 C.3       1 <0>        -0.0180
      6 H1          4.2050    2.4431    2.7074 H         1 <0>         0.1039
      7 C5          5.4391    3.2830    4.2825 C.3       1 <0>         0.1015
      8 H2          4.7709    4.1271    4.5084 H         1 <0>         0.0941
      9 C6          5.2218    2.1236    5.2574 C.3       1 <0>        -0.0361
     10 O1          6.7669    3.7898    4.4323 O.3       1 <0>        -0.5639
     11 C7          5.5132    3.9050    1.8814 C.ar      1 <0>        -0.2158
     12 C8          6.8017    4.3949    1.7322 C.ar      1 <0>         0.2946
     13 C9          7.0678    5.4304    0.8434 C.ar      1 <0>        -0.3049
     14 C10         6.0448    5.9841    0.0956 C.ar      1 <0>         0.3111
     15 C11         4.7411    5.4942    0.2412 C.ar      1 <0>        -0.3649
     16 C12         4.4748    4.4470    1.1407 C.ar      1 <0>         0.2362
     17 O2          3.2147    3.9814    1.2730 O.3       1 <0>        -0.2171
     18 C13         2.1871    4.4838    0.5705 C.2       1 <0>         0.1982
     19 C14         2.3394    5.4926   -0.3277 C.2       1 <0>        -0.2780
     20 C15         3.6225    6.0546   -0.5353 C.2       1 <0>         0.4382
     21 O3          3.7953    6.9641   -1.3304 O.2       1 <0>        -0.4786
     22 C16         0.8407    3.9147    0.7769 C.ar      1 <0>        -0.0680
     23 C17         0.6478    2.5322    0.7263 C.ar      1 <0>        -0.0708
     24 C18        -0.6124    2.0073    0.9205 C.ar      1 <0>        -0.1159
     25 C19        -1.6867    2.8467    1.1599 C.ar      1 <0>        -0.0780
     26 C20        -1.5036    4.2164    1.2169 C.ar      1 <0>        -0.1066
     27 C21        -0.2472    4.7566    1.0243 C.ar      1 <0>        -0.0057
     28 Cl1        -0.0199    6.4765    1.0889 Cl        1 <0>        -0.0424
     29 O4          6.3024    6.9947   -0.7728 O.3       1 <0>        -0.4999
     30 O5          7.8133    3.8585    2.4614 O.3       1 <0>        -0.4665
     31 H3          6.8128   -0.8151    5.7159 H         1 <0>         0.1242
     32 H4          5.0728   -0.4438    5.9634 H         1 <0>         0.1169
     33 H5          6.3184    0.3856    6.9571 H         1 <0>         0.1225
     34 H6          6.6809   -0.3050    3.4243 H         1 <0>         0.1308
     35 H7          4.9438    0.1448    3.5072 H         1 <0>         0.1211
     36 H8          7.2477    1.9910    2.6662 H         1 <0>         0.1216
     37 H9          6.0450    1.2349    1.5669 H         1 <0>         0.1057
     38 H10         4.1951    1.7434    5.1512 H         1 <0>         0.1298
     39 H11         5.3771    2.4772    6.2874 H         1 <0>         0.1312
     40 H12         7.0946    4.1958    5.4007 H         1 <0>         0.4106
     41 H13         8.0758    5.8030    0.7365 H         1 <0>         0.1471
     42 H14         1.4871    5.8659   -0.8759 H         1 <0>         0.1670
     43 H15         1.4839    1.8757    0.5352 H         1 <0>         0.1384
     44 H16        -0.7625    0.9385    0.8812 H         1 <0>         0.1407
     45 H17        -2.6721    2.4298    1.3071 H         1 <0>         0.1438
     46 H18        -2.3456    4.8651    1.4082 H         1 <0>         0.1476
     47 H19         5.4855    7.4321   -1.3656 H         1 <0>         0.4556
     48 H20         8.8375    4.2431    2.3473 H         1 <0>         0.4397
     49 H21         7.1882    1.4744    5.0059 H         1 <0>         0.4481
@<TRIPOS>BOND
     1    1    2 1
     2    1   31 1
     3    1   32 1
     4    1   33 1
     5    2    9 1
     6    2    3 1
     7    2   49 1
     8    3    4 1
     9    3   34 1
    10    3   35 1
    11    4    5 1
    12    4   36 1
    13    4   37 1
    14    5    6 1
    15    5    7 1
    16    5   11 1
    17    7    8 1
    18    7    9 1
    19    7   10 1
    20    9   38 1
    21    9   39 1
    22   10   40 1
    23   11   16 ar
    24   11   12 ar
    25   12   13 ar
    26   12   30 1
    27   13   14 ar
    28   13   41 1
    29   14   15 ar
    30   14   29 1
    31   15   20 1
    32   15   16 ar
    33   16   17 1
    34   17   18 1
    35   18   19 2
    36   18   22 1
    37   19   20 1
    38   19   42 1
    39   20   21 2
    40   22   27 ar
    41   22   23 ar
    42   23   24 ar
    43   23   43 1
    44   24   25 ar
    45   24   44 1
    46   25   26 ar
    47   25   45 1
    48   26   27 ar
    49   26   46 1
    50   27   28 1
    51   29   47 1
    52   30   48 1
@<TRIPOS>MOLECULE
ZINC03816310
   51    55     0     0     0
SMALL
USER_CHARGES
4-amino-5-fluoro-3-[5-(4-methylpiperazin-1-yl)-3H-benzoimidazol-2-yl]-1H-quinolin-2-one
@<TRIPOS>ATOM
      1 C1         -4.4670    0.8494    3.0633 C.3       1 <0>        -0.0407
      2 C2         -3.3790    0.9463    0.9019 C.3       1 <0>         0.0019
      3 C3         -3.5151    1.4789   -0.5264 C.3       1 <0>         0.0203
      4 N1         -3.5799    2.9467   -0.4951 N.pl3     1 <0>        -0.4822
      5 C4         -4.7239    3.4034    0.3063 C.3       1 <0>         0.0231
      6 C5         -4.5878    2.8708    1.7347 C.3       1 <0>         0.0021
      7 C6         -3.6324    3.4738   -1.7895 C.ar      1 <0>         0.0898
      8 C7         -3.6187    2.6172   -2.8884 C.ar      1 <0>        -0.1658
      9 C8         -3.6694    3.1157   -4.1588 C.ar      1 <0>        -0.0428
     10 C9         -3.7362    4.4973   -4.3655 C.ar      1 <0>         0.0571
     11 C10        -3.7506    5.3641   -3.2589 C.ar      1 <0>         0.0655
     12 C11        -3.7036    4.8454   -1.9734 C.ar      1 <0>        -0.1134
     13 N2         -3.8198    6.6467   -3.7722 N.pl3     1 <0>        -0.5851
     14 H1         -3.8464    7.4962   -3.2453 H         1 <0>         0.4436
     15 C12        -3.8451    6.5353   -5.1390 C.2       1 <0>         0.4046
     16 N3         -3.7957    5.2687   -5.4809 N.2       1 <0>        -0.5294
     17 C13        -3.9164    7.6652   -6.0804 C.2       1 <0>        -0.3025
     18 C14        -4.0559    7.4305   -7.4504 C.2       1 <0>         0.3760
     19 C15        -4.1228    8.5898   -8.3476 C.ar      1 <0>        -0.1878
     20 C16        -4.0447    9.8830   -7.7997 C.ar      1 <0>         0.2450
     21 C17        -4.1078   10.9864   -8.6429 C.ar      1 <0>        -0.1734
     22 C18        -4.2458   10.8081  -10.0035 C.ar      1 <0>        -0.0185
     23 C19        -4.3231    9.5350  -10.5468 C.ar      1 <0>        -0.1801
     24 C20        -4.2628    8.4239   -9.7304 C.ar      1 <0>         0.1680
     25 F1         -4.3388    7.1843  -10.2623 F         1 <0>        -0.1206
     26 N4         -3.9076   10.0470   -6.4354 N.am      1 <0>        -0.6368
     27 H2         -3.8498   10.9715   -6.0585 H         1 <0>         0.4300
     28 C21        -3.8500    8.9949   -5.6023 C.2       1 <0>         0.5826
     29 O1         -3.7334    9.1908   -4.4050 O.2       1 <0>        -0.5600
     30 N5         -4.1288    6.1500   -7.9440 N.pl3     1 <0>        -0.8025
     31 H3         -3.5472    1.1734    3.5502 H         1 <0>         0.1241
     32 H4         -5.3249    1.2032    3.6351 H         1 <0>         0.1225
     33 H5         -4.4877   -0.2393    3.0134 H         1 <0>         0.1228
     34 H6         -3.3598   -0.1434    0.8835 H         1 <0>         0.1376
     35 H7         -2.4541    1.3189    1.3424 H         1 <0>         0.1399
     36 H8         -2.6529    1.1655   -1.1151 H         1 <0>         0.1307
     37 H9         -4.4260    1.0841   -0.9765 H         1 <0>         0.0717
     38 H10        -4.7431    4.4931    0.3248 H         1 <0>         0.1261
     39 H11        -5.6486    3.0309   -0.1345 H         1 <0>         0.0691
     40 H12        -3.6769    3.2656    2.1847 H         1 <0>         0.1400
     41 H13        -5.4498    3.1846    2.3235 H         1 <0>         0.1367
     42 H14        -3.5672    1.5496   -2.7341 H         1 <0>         0.1314
     43 H15        -3.6582    2.4431   -5.0037 H         1 <0>         0.1346
     44 H16        -3.7183    5.5073   -1.1202 H         1 <0>         0.1268
     45 H17        -4.0491   11.9836   -8.2323 H         1 <0>         0.1496
     46 H18        -4.2944   11.6697  -10.6529 H         1 <0>         0.1516
     47 H19        -4.4307    9.4121  -11.6144 H         1 <0>         0.1515
     48 H20        -4.3218    5.4103   -7.3468 H         1 <0>         0.4285
     49 H21        -3.9874    5.9859   -8.8895 H         1 <0>         0.4092
     50 N6         -4.5458    1.3938    1.6909 N.4       1 <0>        -0.3998
     51 H22        -5.4033    1.0486    1.2438 H         1 <0>         0.4274
@<TRIPOS>BOND
     1    1   31 1
     2    1   32 1
     3    1   33 1
     4    1   50 1
     5    2    3 1
     6    2   34 1
     7    2   35 1
     8    2   50 1
     9    3    4 1
    10    3   36 1
    11    3   37 1
    12    4    5 1
    13    4    7 1
    14    5    6 1
    15    5   38 1
    16    5   39 1
    17    6   40 1
    18    6   41 1
    19    6   50 1
    20    7   12 ar
    21    7    8 ar
    22    8    9 ar
    23    8   42 1
    24    9   10 ar
    25    9   43 1
    26   10   16 1
    27   10   11 ar
    28   11   12 ar
    29   11   13 1
    30   12   44 1
    31   13   14 1
    32   13   15 1
    33   15   16 2
    34   15   17 1
    35   17   28 1
    36   17   18 2
    37   18   19 1
    38   18   30 1
    39   19   24 ar
    40   19   20 ar
    41   20   21 ar
    42   20   26 1
    43   21   22 ar
    44   21   45 1
    45   22   23 ar
    46   22   46 1
    47   23   24 ar
    48   23   47 1
    49   24   25 1
    50   26   27 1
    51   26   28 am
    52   28   29 2
    53   30   48 1
    54   30   49 1
    55   50   51 1
@<TRIPOS>MOLECULE
ZINC03964325
   57    59     0     0     0
SMALL
USER_CHARGES

@<TRIPOS>ATOM
      1 C1          0.1489    2.0884    0.1150 C.3       1 <0>        -0.1876
      2 C2          0.1348    0.5603    0.1888 C.3       1 <0>        -0.0191
      3 N1         -1.2520    0.0881    0.2979 N.4       1 <0>        -0.3822
      4 C3         -1.9779    0.4111   -0.9377 C.3       1 <0>        -0.0142
      5 C4         -3.4549    0.0484   -0.7712 C.3       1 <0>        -0.1895
      6 C5         -1.2593   -1.3663    0.5041 C.3       1 <0>        -0.0265
      7 C6         -0.6131   -1.6936    1.8518 C.3       1 <0>         0.0952
      8 N2         -0.6203   -3.1440    2.0575 N.am      1 <0>        -0.7289
      9 C7         -0.0988   -3.6675    3.1846 C.2       1 <0>         0.6111
     10 O1          0.3779   -2.9358    4.0309 O.2       1 <0>        -0.5184
     11 C8         -0.1061   -5.1270    3.3915 C.2       1 <0>        -0.2420
     12 C9          0.9071   -6.0320    3.0089 C.2       1 <0>        -0.0577
     13 C10         0.4868   -7.2892    3.3960 C.2       1 <0>        -0.0075
     14 N3         -0.7476   -7.1595    3.9982 N.pl3     1 <0>        -0.4910
     15 H1         -1.2731   -7.8879    4.3645 H         1 <0>         0.4270
     16 C11        -1.1044   -5.8642    4.0022 C.2       1 <0>         0.1158
     17 C12        -2.3825   -5.3072    4.5743 C.3       1 <0>        -0.0999
     18 C13         1.1957   -8.4957    3.2079 C.2       1 <0>         0.0729
     19 C14         0.5100   -9.6674    2.9570 C.2       1 <0>        -0.1889
     20 C15         1.0648  -11.0377    2.8871 C.ar      1 <0>        -0.0736
     21 C16         2.3472  -11.5557    3.0375 C.ar      1 <0>        -0.1000
     22 C17         2.5553  -12.9162    2.9116 C.ar      1 <0>         0.0861
     23 C18         1.4888  -13.7593    2.6366 C.ar      1 <0>        -0.1139
     24 C19         0.2139  -13.2531    2.4856 C.ar      1 <0>        -0.1021
     25 C20        -0.0144  -11.8871    2.6092 C.ar      1 <0>         0.1282
     26 N4         -1.1765  -11.1301    2.5069 N.am      1 <0>        -0.6466
     27 C21        -0.9294   -9.8245    2.7079 C.2       1 <0>         0.5595
     28 O2         -1.7538   -8.9280    2.6842 O.2       1 <0>        -0.5156
     29 F1          3.7984  -13.4252    3.0561 F         1 <0>        -0.1318
     30 C22         2.1990   -5.6919    2.3116 C.3       1 <0>        -0.0931
     31 H2          1.1793    2.4435    0.1331 H         1 <0>         0.1076
     32 H3         -0.3308    2.4121   -0.8087 H         1 <0>         0.0811
     33 H4         -0.3916    2.4984    0.9682 H         1 <0>         0.0809
     34 H5          0.5888    0.1488   -0.7126 H         1 <0>         0.1317
     35 H6          0.6996    0.2334    1.0619 H         1 <0>         0.1337
     36 H7         -1.8867    1.4775   -1.1444 H         1 <0>         0.1351
     37 H8         -1.5554   -0.1571   -1.7664 H         1 <0>         0.1307
     38 H9         -3.5537   -1.0316   -0.6617 H         1 <0>         0.0802
     39 H10        -3.8523    0.5414    0.1160 H         1 <0>         0.0808
     40 H11        -4.0109    0.3769   -1.6492 H         1 <0>         0.1074
     41 H12        -2.2871   -1.7292    0.4963 H         1 <0>         0.1397
     42 H13        -0.6973   -1.8494   -0.2952 H         1 <0>         0.1376
     43 H14         0.4147   -1.3306    1.8596 H         1 <0>         0.0893
     44 H15        -1.1751   -1.2105    2.6511 H         1 <0>         0.0890
     45 H16        -1.0005   -3.7277    1.3824 H         1 <0>         0.4099
     46 H17        -3.1529   -5.3000    3.8032 H         1 <0>         0.0840
     47 H18        -2.7087   -5.9289    5.4080 H         1 <0>         0.0782
     48 H19        -2.2103   -4.2898    4.9254 H         1 <0>         0.0840
     49 H20         2.2744   -8.5020    3.2604 H         1 <0>         0.1589
     50 H21         3.1765  -10.8977    3.2512 H         1 <0>         0.1436
     51 H22         1.6578  -14.8215    2.5394 H         1 <0>         0.1485
     52 H23        -0.6084  -13.9196    2.2712 H         1 <0>         0.1415
     53 H24        -2.0541  -11.4980    2.3189 H         1 <0>         0.4217
     54 H25         2.9686   -5.4822    3.0545 H         1 <0>         0.0785
     55 H26         2.5107   -6.5337    1.6932 H         1 <0>         0.0726
     56 H27         2.0522   -4.8138    1.6827 H         1 <0>         0.0634
     57 H28        -1.7009    0.5410    1.0799 H         1 <0>         0.4247
@<TRIPOS>BOND
     1    1    2 1
     2    1   31 1
     3    1   32 1
     4    1   33 1
     5    2    3 1
     6    2   34 1
     7    2   35 1
     8    3    4 1
     9    3    6 1
    10    3   57 1
    11    4    5 1
    12    4   36 1
    13    4   37 1
    14    5   38 1
    15    5   39 1
    16    5   40 1
    17    6    7 1
    18    6   41 1
    19    6   42 1
    20    7    8 1
    21    7   43 1
    22    7   44 1
    23    8    9 am
    24    8   45 1
    25    9   10 2
    26    9   11 1
    27   11   16 2
    28   11   12 1
    29   12   13 2
    30   12   30 1
    31   13   14 1
    32   13   18 1
    33   14   15 1
    34   14   16 1
    35   16   17 1
    36   17   46 1
    37   17   47 1
    38   17   48 1
    39   18   19 2
    40   18   49 1
    41   19   27 1
    42   19   20 1
    43   20   25 ar
    44   20   21 ar
    45   21   22 ar
    46   21   50 1
    47   22   23 ar
    48   22   29 1
    49   23   24 ar
    50   23   51 1
    51   24   25 ar
    52   24   52 1
    53   25   26 1
    54   26   27 am
    55   26   53 1
    56   27   28 2
    57   30   54 1
    58   30   55 1
    59   30   56 1
@<TRIPOS>MOLECULE
ZINC03820040
   62    66     0     0     0
SMALL
USER_CHARGES
N-[4-[4-(4-methylpiperazin-1-yl)-6-[(5-methyl-2H-pyrazol-3-yl)amino]pyrimidin-2-yl]sulfanylphenyl]cyclopropanecarboxamide
@<TRIPOS>ATOM
      1 C1          1.8035   -7.6837    0.5070 C.3       1 <0>        -0.0779
      2 C2          2.3685   -6.3674    0.0389 C.2       1 <0>         0.0949
      3 C3          1.9325   -5.1020    0.4407 C.2       1 <0>        -0.2905
      4 C4          2.6904   -4.1743   -0.2066 C.2       1 <0>         0.3252
      5 N1          3.5799   -4.8447   -0.9836 N.pl3     1 <0>        -0.4853
      6 H1          4.2729   -4.4328   -1.5753 H         1 <0>         0.4473
      7 N2          3.3537   -6.2159   -0.8085 N.2       1 <0>        -0.2711
      8 N3          2.5778   -2.7905   -0.0888 N.pl3     1 <0>        -0.6296
      9 C5          1.3376   -2.2123    0.1391 C.ar      1 <0>         0.4706
     10 C6          0.1755   -2.9717    0.0343 C.ar      1 <0>        -0.2983
     11 C7         -1.0466   -2.3490    0.2714 C.ar      1 <0>         0.3791
     12 N4         -1.0643   -1.0564    0.5886 N.ar      1 <0>        -0.5664
     13 C8          0.0620   -0.3646    0.6795 C.ar      1 <0>         0.3511
     14 N5          1.2425   -0.9231    0.4557 N.ar      1 <0>        -0.5606
     15 S1         -0.0125    1.3444    1.1018 S.3       1 <0>         0.1303
     16 C9          1.7078    1.7032    1.2298 C.ar      1 <0>        -0.1638
     17 C10         2.3806    1.4637    2.4214 C.ar      1 <0>        -0.0284
     18 C11         3.7293    1.7409    2.5200 C.ar      1 <0>        -0.1315
     19 C12         4.4114    2.2681    1.4313 C.ar      1 <0>         0.1902
     20 C13         3.7379    2.5125    0.2417 C.ar      1 <0>        -0.1573
     21 C14         2.3903    2.2311    0.1410 C.ar      1 <0>        -0.0288
     22 N6          5.7793    2.5539    1.5333 N.am      1 <0>        -0.6744
     23 C15         6.5739    1.7808    2.2997 C.2       1 <0>         0.5466
     24 O1          6.1269    0.7811    2.8213 O.2       1 <0>        -0.5140
     25 C16         8.0178    2.1584    2.5086 C.3       1 <0>        -0.2022
     26 C17         9.0818    1.2604    1.8742 C.3       1 <0>        -0.1494
     27 C18         8.8679    1.2402    3.3890 C.3       1 <0>        -0.1425
     28 N7         -2.2296   -3.0657    0.1789 N.pl3     1 <0>        -0.4710
     29 C19        -2.3617   -3.6957   -1.1422 C.3       1 <0>         0.0277
     30 C20        -3.6379   -4.5399   -1.1765 C.3       1 <0>         0.0040
     31 C21        -4.6643   -3.0537    0.4349 C.3       1 <0>        -0.0004
     32 C22        -3.3881   -2.2095    0.4692 C.3       1 <0>         0.0347
     33 C23        -6.0501   -4.4431   -0.9842 C.3       1 <0>        -0.0407
     34 H2          2.3381   -8.0122    1.3982 H         1 <0>         0.0831
     35 H3          0.7460   -7.5623    0.7417 H         1 <0>         0.0784
     36 H4          1.9177   -8.4287   -0.2805 H         1 <0>         0.0774
     37 H5          1.1347   -4.8964    1.1389 H         1 <0>         0.1550
     38 H6          3.3667   -2.2314   -0.1662 H         1 <0>         0.4241
     39 H7          0.2211   -4.0192   -0.2246 H         1 <0>         0.1631
     40 H8          1.8494    1.0573    3.2693 H         1 <0>         0.1319
     41 H9          4.2533    1.5509    3.4451 H         1 <0>         0.1405
     42 H10         4.2686    2.9225   -0.6049 H         1 <0>         0.1339
     43 H11         1.8666    2.4209   -0.7843 H         1 <0>         0.1341
     44 H12         6.1543    3.3081    1.0523 H         1 <0>         0.4168
     45 H13         8.2224    3.2282    2.5520 H         1 <0>         0.1306
     46 H14         8.7374    0.3965    1.3057 H         1 <0>         0.0995
     47 H15         9.9866    1.7393    1.5000 H         1 <0>         0.1100
     48 H16         9.6320    1.7059    4.0114 H         1 <0>         0.1092
     49 H17         8.3827    0.3633    3.8175 H         1 <0>         0.1093
     50 H18        -2.4158   -2.9234   -1.9095 H         1 <0>         0.0737
     51 H19        -1.4982   -4.3342   -1.3286 H         1 <0>         0.1318
     52 H20        -3.5722   -5.3290   -0.4274 H         1 <0>         0.1439
     53 H21        -3.7533   -4.9852   -2.1646 H         1 <0>         0.1412
     54 H22        -4.6102   -3.8259    1.2022 H         1 <0>         0.1407
     55 H23        -5.5278   -2.4152    0.6217 H         1 <0>         0.1407
     56 H24        -3.2729   -1.7645    1.4575 H         1 <0>         0.1357
     57 H25        -3.4537   -1.4201   -0.2796 H         1 <0>         0.0793
     58 H26        -6.8948   -3.7714   -0.8313 H         1 <0>         0.1238
     59 H27        -6.1225   -4.8989   -1.9717 H         1 <0>         0.1230
     60 H28        -6.0632   -5.2226   -0.2224 H         1 <0>         0.1251
     61 N8         -4.7966   -3.6630   -0.9051 N.4       1 <0>        -0.4014
     62 H29        -4.8229   -2.9169   -1.6099 H         1 <0>         0.4281
@<TRIPOS>BOND
     1    1    2 1
     2    1   34 1
     3    1   35 1
     4    1   36 1
     5    2    7 2
     6    2    3 1
     7    3    4 2
     8    3   37 1
     9    4    5 1
    10    4    8 1
    11    5    6 1
    12    5    7 1
    13    8    9 1
    14    8   38 1
    15    9   14 ar
    16    9   10 ar
    17   10   11 ar
    18   10   39 1
    19   11   12 ar
    20   11   28 1
    21   12   13 ar
    22   13   14 ar
    23   13   15 1
    24   15   16 1
    25   16   21 ar
    26   16   17 ar
    27   17   18 ar
    28   17   40 1
    29   18   19 ar
    30   18   41 1
    31   19   20 ar
    32   19   22 1
    33   20   21 ar
    34   20   42 1
    35   21   43 1
    36   22   23 am
    37   22   44 1
    38   23   24 2
    39   23   25 1
    40   25   27 1
    41   25   26 1
    42   25   45 1
    43   26   27 1
    44   26   46 1
    45   26   47 1
    46   27   48 1
    47   27   49 1
    48   28   32 1
    49   28   29 1
    50   29   30 1
    51   29   50 1
    52   29   51 1
    53   30   52 1
    54   30   53 1
    55   30   61 1
    56   31   32 1
    57   31   54 1
    58   31   55 1
    59   31   61 1
    60   32   56 1
    61   32   57 1
    62   33   58 1
    63   33   59 1
    64   33   60 1
    65   33   61 1
    66   61   62 1
@<TRIPOS>MOLECULE
ZINC18825339
   59    62     0     0     0
SMALL
USER_CHARGES
5-[(Z)-(5-fluoro-2-oxo-indolin-3-ylidene)methyl]-N-[(2R)-2-hydroxy-3-morpholino-propyl]-2,4-dimethyl-1H-pyrrole-3-carboxamide
@<TRIPOS>ATOM
      1 C1          3.5607    0.7280    0.3667 C.3       1 <0>        -0.0956
      2 C2          2.0758    0.7165    0.1102 C.2       1 <0>        -0.0564
      3 C3          1.2591    1.8188   -0.0477 C.2       1 <0>        -0.0308
      4 N1         -0.0271    1.3691   -0.2640 N.pl3     1 <0>        -0.5068
      5 H1         -0.8436    2.0903   -0.4163 H         1 <0>         0.4494
      6 C4         -0.0354    0.0257   -0.2455 C.2       1 <0>         0.1277
      7 C5          1.2525   -0.4230   -0.0155 C.2       1 <0>        -0.2308
      8 C6          1.6847   -1.8291    0.0810 C.2       1 <0>         0.5980
      9 O1          2.0430   -2.4250   -0.9167 O.2       1 <0>        -0.5421
     10 N2          1.6827   -2.4542    1.2750 N.am      1 <0>        -0.7266
     11 C7          2.1121   -3.8516    1.3710 C.3       1 <0>         0.1299
     12 C8          2.0150   -4.3162    2.8255 C.3       1 <0>         0.1144
     13 H2          2.5334   -3.6206    3.5018 H         1 <0>         0.0568
     14 C9          2.5799   -5.7329    2.9471 C.3       1 <0>         0.0228
     15 N3          2.4867   -6.1790    4.3436 N.3       1 <0>        -0.5349
     16 C10         3.3671   -5.3829    5.2109 C.3       1 <0>         0.0083
     17 C11         3.1945   -5.8402    6.6618 C.3       1 <0>         0.0618
     18 O2          3.4694   -7.2408    6.7508 O.3       1 <0>        -0.3843
     19 C12         2.6296   -8.0463    5.9193 C.3       1 <0>         0.0614
     20 C13         2.7965   -7.6114    4.4609 C.3       1 <0>         0.0172
     21 O3          0.6463   -4.3123    3.2364 O.3       1 <0>        -0.5882
     22 C14        -1.2476   -0.8477   -0.4426 C.3       1 <0>        -0.0994
     23 C15         1.6686    3.1691    0.0027 C.2       1 <0>         0.0908
     24 C16         0.8216    4.1284    0.5209 C.2       1 <0>        -0.2125
     25 C17         1.0162    5.5955    0.5210 C.ar      1 <0>        -0.0684
     26 C18         2.0202    6.4240    0.0297 C.ar      1 <0>        -0.1043
     27 C19         1.9118    7.7937    0.1786 C.ar      1 <0>         0.0808
     28 C20         0.8031    8.3379    0.8097 C.ar      1 <0>        -0.1198
     29 C21        -0.2000    7.5233    1.2941 C.ar      1 <0>        -0.1061
     30 C22        -0.1080    6.1430    1.1533 C.ar      1 <0>         0.1250
     31 N4         -0.9593    5.1144    1.5420 N.am      1 <0>        -0.6604
     32 C23        -0.4649    3.9133    1.1971 C.2       1 <0>         0.5647
     33 O4         -0.9909    2.8351    1.4086 O.2       1 <0>        -0.5132
     34 F1          2.8866    8.6030   -0.2904 F         1 <0>        -0.1355
     35 H3          3.9167    1.7678    0.4131 H         1 <0>         0.0672
     36 H4          4.0776    0.1994   -0.4478 H         1 <0>         0.0746
     37 H5          3.7717    0.2252    1.3221 H         1 <0>         0.0710
     38 H6          1.3586   -1.9152    2.1775 H         1 <0>         0.4262
     39 H7          1.4633   -4.4786    0.7417 H         1 <0>         0.0750
     40 H8          3.1531   -3.9398    1.0266 H         1 <0>         0.0785
     41 H9          2.0023   -6.4143    2.3052 H         1 <0>         0.0900
     42 H10         3.6334   -5.7360    2.6307 H         1 <0>         0.0465
     43 H11         4.4130   -5.5254    4.9015 H         1 <0>         0.0459
     44 H12         3.1012   -4.3189    5.1257 H         1 <0>         0.0881
     45 H13         3.8925   -5.2859    7.3064 H         1 <0>         0.1001
     46 H14         2.1618   -5.6458    6.9871 H         1 <0>         0.0615
     47 H15         2.9156   -9.1033    6.0238 H         1 <0>         0.1009
     48 H16         1.5805   -7.9185    6.2243 H         1 <0>         0.0621
     49 H17         2.1104   -8.1883    3.8234 H         1 <0>         0.0898
     50 H18         3.8332   -7.7899    4.1393 H         1 <0>         0.0455
     51 H19         0.3780   -4.6185    4.2583 H         1 <0>         0.4136
     52 H20        -0.9523   -1.9052   -0.3757 H         1 <0>         0.0845
     53 H21        -1.6843   -0.6508   -1.4328 H         1 <0>         0.0777
     54 H22        -1.9909   -0.6245    0.3369 H         1 <0>         0.0809
     55 H23         2.6624    3.4568   -0.3709 H         1 <0>         0.1579
     56 H24         2.8828    5.9984   -0.4614 H         1 <0>         0.1409
     57 H25         0.7239    9.4091    0.9228 H         1 <0>         0.1443
     58 H26        -1.0583    7.9589    1.7840 H         1 <0>         0.1386
     59 H27        -1.9003    5.3463    2.0623 H         1 <0>         0.4455
@<TRIPOS>BOND
     1    1    2 1
     2    1   35 1
     3    1   36 1
     4    1   37 1
     5    2    7 1
     6    2    3 2
     7    3    4 1
     8    3   23 1
     9    4    5 1
    10    4    6 1
    11    6    7 2
    12    6   22 1
    13    7    8 1
    14    8    9 2
    15    8   10 am
    16   10   11 1
    17   10   38 1
    18   11   12 1
    19   11   39 1
    20   11   40 1
    21   12   13 1
    22   12   14 1
    23   12   21 1
    24   14   15 1
    25   14   41 1
    26   14   42 1
    27   15   20 1
    28   15   16 1
    29   16   17 1
    30   16   43 1
    31   16   44 1
    32   17   18 1
    33   17   45 1
    34   17   46 1
    35   18   19 1
    36   19   20 1
    37   19   47 1
    38   19   48 1
    39   20   49 1
    40   20   50 1
    41   21   51 1
    42   22   52 1
    43   22   53 1
    44   22   54 1
    45   23   24 2
    46   23   55 1
    47   24   32 1
    48   24   25 1
    49   25   30 ar
    50   25   26 ar
    51   26   27 ar
    52   26   56 1
    53   27   28 ar
    54   27   34 1
    55   28   29 ar
    56   28   57 1
    57   29   30 ar
    58   29   58 1
    59   30   31 1
    60   31   32 am
    61   31   59 1
    62   32   33 2
@<TRIPOS>MOLECULE
ZINC18825344
   59    62     0     0     0
SMALL
USER_CHARGES
5-[(Z)-(5-fluoro-2-oxo-indolin-3-ylidene)methyl]-N-[(2S)-2-hydroxy-3-morpholino-propyl]-2,4-dimethyl-1H-pyrrole-3-carboxamide
@<TRIPOS>ATOM
      1 C1          4.7056    0.6287    1.0117 C.3       1 <0>        -0.0968
      2 C2          3.2464    0.8378    0.6983 C.2       1 <0>        -0.0523
      3 C3          2.5980    2.0501    0.5678 C.2       1 <0>        -0.0327
      4 N1          1.2732    1.7961    0.2789 N.pl3     1 <0>        -0.5060
      5 H1          0.5720    2.6311    0.1339 H         1 <0>         0.4496
      6 C4          1.0783    0.4679    0.2258 C.2       1 <0>         0.1246
      7 C5          2.2801   -0.1676    0.4808 C.2       1 <0>        -0.2308
      8 C6          2.5088   -1.6234    0.5191 C.2       1 <0>         0.5976
      9 O1          2.8262   -2.2159   -0.4944 O.2       1 <0>        -0.5428
     10 N2          2.3662   -2.2977    1.6773 N.am      1 <0>        -0.7254
     11 C7          2.5935   -3.7444    1.7154 C.3       1 <0>         0.1298
     12 C8          2.3672   -4.2590    3.1384 C.3       1 <0>         0.1172
     13 H2          1.3599   -4.0040    3.4994 H         1 <0>         0.0560
     14 C9          2.6045   -5.7699    3.1781 C.3       1 <0>         0.0219
     15 N3          2.3382   -6.2720    4.5327 N.3       1 <0>        -0.5356
     16 C10         2.9762   -7.5793    4.7450 C.3       1 <0>         0.0168
     17 C11         2.7241   -8.0365    6.1842 C.3       1 <0>         0.0612
     18 O2          1.3152   -8.0759    6.4267 O.3       1 <0>        -0.3844
     19 C12         0.6618   -6.8191    6.2299 C.3       1 <0>         0.0617
     20 C13         0.8930   -6.3496    4.7911 C.3       1 <0>         0.0111
     21 O3          3.2765   -3.6103    4.0297 O.3       1 <0>        -0.5892
     22 C14        -0.2328   -0.2165   -0.0637 C.3       1 <0>        -0.0987
     23 C15         3.1876    3.3256    0.7056 C.2       1 <0>         0.0935
     24 C16         2.4515    4.3746    1.2192 C.2       1 <0>        -0.2157
     25 C17         2.8515    5.7966    1.3077 C.ar      1 <0>        -0.0669
     26 C18         3.9943    6.4912    0.9234 C.ar      1 <0>        -0.1048
     27 C19         4.0710    7.8545    1.1363 C.ar      1 <0>         0.0814
     28 C20         3.0098    8.5263    1.7247 C.ar      1 <0>        -0.1204
     29 C21         1.8704    7.8457    2.1029 C.ar      1 <0>        -0.1055
     30 C22         1.7753    6.4739    1.8965 C.ar      1 <0>         0.1237
     31 N4          0.7622    5.5637    2.1775 N.am      1 <0>        -0.6596
     32 C23         1.1039    4.3195    1.8021 C.2       1 <0>         0.5657
     33 O4          0.4171    3.3209    1.9242 O.2       1 <0>        -0.5153
     34 F1          5.1807    8.5334    0.7715 F         1 <0>        -0.1355
     35 H3          5.1994    1.6049    1.1269 H         1 <0>         0.0668
     36 H4          5.1808    0.0720    0.1906 H         1 <0>         0.0744
     37 H5          4.8016    0.0567    1.9464 H         1 <0>         0.0741
     38 H6          2.0791   -1.7617    2.5940 H         1 <0>         0.4273
     39 H7          1.8935   -4.2437    1.0293 H         1 <0>         0.0777
     40 H8          3.6268   -3.9615    1.4070 H         1 <0>         0.0736
     41 H9          1.9304   -6.2658    2.4641 H         1 <0>         0.0486
     42 H10         3.6486   -5.9844    2.9062 H         1 <0>         0.0884
     43 H11         2.5501   -8.3132    4.0451 H         1 <0>         0.0451
     44 H12         4.0587   -7.4917    4.5704 H         1 <0>         0.0900
     45 H13         3.1515   -9.0395    6.3305 H         1 <0>         0.1008
     46 H14         3.1986   -7.3305    6.8817 H         1 <0>         0.0620
     47 H15        -0.4170   -6.9344    6.4112 H         1 <0>         0.1000
     48 H16         1.0741   -6.0778    6.9303 H         1 <0>         0.0613
     49 H17         0.4415   -5.3564    4.6504 H         1 <0>         0.0873
     50 H18         0.4333   -7.0637    4.0920 H         1 <0>         0.0461
     51 H19         3.2627   -3.8533    5.1024 H         1 <0>         0.4141
     52 H20        -0.0899   -1.3070   -0.0417 H         1 <0>         0.0829
     53 H21        -0.5927    0.0862   -1.0581 H         1 <0>         0.0781
     54 H22        -0.9728    0.0718    0.6974 H         1 <0>         0.0803
     55 H23         4.2335    3.4835    0.4037 H         1 <0>         0.1584
     56 H24         4.8196    5.9664    0.4654 H         1 <0>         0.1411
     57 H25         3.0756    9.5918    1.8882 H         1 <0>         0.1443
     58 H26         1.0507    8.3797    2.5605 H         1 <0>         0.1385
     59 H27        -0.1701    5.9069    2.6497 H         1 <0>         0.4455
@<TRIPOS>BOND
     1    1    2 1
     2    1   35 1
     3    1   36 1
     4    1   37 1
     5    2    7 1
     6    2    3 2
     7    3    4 1
     8    3   23 1
     9    4    5 1
    10    4    6 1
    11    6    7 2
    12    6   22 1
    13    7    8 1
    14    8    9 2
    15    8   10 am
    16   10   11 1
    17   10   38 1
    18   11   12 1
    19   11   39 1
    20   11   40 1
    21   12   13 1
    22   12   14 1
    23   12   21 1
    24   14   15 1
    25   14   41 1
    26   14   42 1
    27   15   20 1
    28   15   16 1
    29   16   17 1
    30   16   43 1
    31   16   44 1
    32   17   18 1
    33   17   45 1
    34   17   46 1
    35   18   19 1
    36   19   20 1
    37   19   47 1
    38   19   48 1
    39   20   49 1
    40   20   50 1
    41   21   51 1
    42   22   52 1
    43   22   53 1
    44   22   54 1
    45   23   24 2
    46   23   55 1
    47   24   32 1
    48   24   25 1
    49   25   30 ar
    50   25   26 ar
    51   26   27 ar
    52   26   56 1
    53   27   28 ar
    54   27   34 1
    55   28   29 ar
    56   28   57 1
    57   29   30 ar
    58   29   58 1
    59   30   31 1
    60   31   32 am
    61   31   59 1
    62   32   33 2
@<TRIPOS>MOLECULE
ZINC00602803
   57    59     0     0     0
SMALL
USER_CHARGES

@<TRIPOS>ATOM
      1 C1         -1.3402   -4.8618    1.2145 C.3       1 <0>        -0.1534
      2 C2         -0.8181   -3.6495    0.4408 C.3       1 <0>         0.0511
      3 O1         -0.7742   -2.5142    1.3074 O.3       1 <0>        -0.3148
      4 C3         -0.3304   -1.3470    0.7727 C.ar      1 <0>         0.1525
      5 C4          0.0498   -1.3049   -0.5488 C.ar      1 <0>        -0.1831
      6 C5          0.5092   -0.1023   -1.1071 C.ar      1 <0>         0.1876
      7 C6          0.5748    1.0570   -0.2965 C.ar      1 <0>        -0.1304
      8 C7          0.1883    0.9932    1.0499 C.ar      1 <0>        -0.0592
      9 C8         -0.2650   -0.1967    1.5740 C.ar      1 <0>         0.1185
     10 N1         -0.6575   -0.2608    2.9161 N.am      1 <0>        -0.6449
     11 C9         -0.1566    0.6173    3.8075 C.2       1 <0>         0.5328
     12 O2          0.7152    1.3957    3.4703 O.2       1 <0>        -0.5071
     13 C10        -0.6641    0.6344    5.1877 C.2       1 <0>        -0.1271
     14 C11        -0.1697    1.5011    6.0673 C.2       1 <0>        -0.1492
     15 C12        -0.6897    1.5186    7.4817 C.3       1 <0>         0.0302
     16 C13         1.3312    2.5206    8.3617 C.3       1 <0>        -0.0486
     17 C14        -0.0528    1.1357    9.7861 C.3       1 <0>        -0.0433
     18 C15         1.0386    2.2666   -0.8642 C.ar      1 <0>         0.2844
     19 C16         1.4144    2.2536   -2.2161 C.ar      1 <0>        -0.1029
     20 C17         1.3165    1.0573   -2.9447 C.ar      1 <0>         0.2010
     21 N2          0.8834   -0.0478   -2.3940 N.ar      1 <0>        -0.4743
     22 C18         1.8922    3.4476   -2.8459 C.1       1 <0>         0.2469
     23 N3          2.2712    4.3948   -3.3456 N.1       1 <0>        -0.3851
     24 N4          1.1194    3.4219   -0.1130 N.pl3     1 <0>        -0.6979
     25 C19         2.3677    3.9814    0.1773 C.ar      1 <0>         0.1846
     26 C20         3.4715    3.1592    0.3659 C.ar      1 <0>        -0.1231
     27 C21         4.7048    3.7137    0.6463 C.ar      1 <0>        -0.1069
     28 C22         4.8398    5.0877    0.7520 C.ar      1 <0>         0.0844
     29 C23         3.7394    5.9099    0.5700 C.ar      1 <0>        -0.0407
     30 C24         2.5044    5.3592    0.2831 C.ar      1 <0>        -0.1222
     31 Cl1         3.9119    7.6322    0.7020 Cl        1 <0>        -0.0373
     32 F1          6.0462    5.6274    1.0324 F         1 <0>        -0.1244
     33 H1         -2.3423   -4.6506    1.5877 H         1 <0>         0.0676
     34 H2         -1.3737   -5.7279    0.5535 H         1 <0>         0.0859
     35 H3         -0.6765   -5.0706    2.0536 H         1 <0>         0.0665
     36 H4         -1.4818   -3.4407   -0.3983 H         1 <0>         0.0727
     37 H5          0.1840   -3.8607    0.0676 H         1 <0>         0.0719
     38 H6         -0.0049   -2.1965   -1.1558 H         1 <0>         0.1557
     39 H7          0.2375    1.8756    1.6707 H         1 <0>         0.1646
     40 H8         -1.2900   -0.9373    3.2047 H         1 <0>         0.4221
     41 H9         -1.4381   -0.0567    5.4870 H         1 <0>         0.1454
     42 H10         0.6043    2.1922    5.7680 H         1 <0>         0.1533
     43 H11        -1.1915    2.4672    7.6726 H         1 <0>         0.1468
     44 H12        -1.3959    0.6999    7.6193 H         1 <0>         0.1366
     45 H13         0.7789    3.4221    8.6269 H         1 <0>         0.1257
     46 H14         2.1523    2.3777    9.0642 H         1 <0>         0.1250
     47 H15         1.7302    2.6227    7.3524 H         1 <0>         0.1232
     48 H16        -0.6601    0.2309    9.8124 H         1 <0>         0.1226
     49 H17         0.7976    1.0222   10.4584 H         1 <0>         0.1252
     50 H18        -0.6553    1.9870   10.1029 H         1 <0>         0.1250
     51 H19         1.6056    1.0492   -3.9853 H         1 <0>         0.1765
     52 H20         0.3102    3.8456    0.2136 H         1 <0>         0.4201
     53 H21         3.3660    2.0871    0.2888 H         1 <0>         0.1375
     54 H22         5.5639    3.0747    0.7881 H         1 <0>         0.1500
     55 H23         1.6466    6.0000    0.1416 H         1 <0>         0.1457
     56 N5          0.4465    1.3376    8.4096 N.4       1 <0>        -0.3970
     57 H24         0.9816    0.5092    8.1241 H         1 <0>         0.4334
@<TRIPOS>BOND
     1    1    2 1
     2    1   33 1
     3    1   34 1
     4    1   35 1
     5    2    3 1
     6    2   36 1
     7    2   37 1
     8    3    4 1
     9    4    9 ar
    10    4    5 ar
    11    5    6 ar
    12    5   38 1
    13    6   21 ar
    14    6    7 ar
    15    7    8 ar
    16    7   18 ar
    17    8    9 ar
    18    8   39 1
    19    9   10 1
    20   10   11 am
    21   10   40 1
    22   11   12 2
    23   11   13 1
    24   13   14 2
    25   13   41 1
    26   14   15 1
    27   14   42 1
    28   15   43 1
    29   15   44 1
    30   15   56 1
    31   16   45 1
    32   16   46 1
    33   16   47 1
    34   16   56 1
    35   17   48 1
    36   17   49 1
    37   17   50 1
    38   17   56 1
    39   18   19 ar
    40   18   24 1
    41   19   20 ar
    42   19   22 1
    43   20   21 ar
    44   20   51 1
    45   22   23 3
    46   24   25 1
    47   24   52 1
    48   25   30 ar
    49   25   26 ar
    50   26   27 ar
    51   26   53 1
    52   27   28 ar
    53   27   54 1
    54   28   29 ar
    55   28   32 1
    56   29   30 ar
    57   29   31 1
    58   30   55 1
    59   56   57 1
@<TRIPOS>MOLECULE
ZINC03812168
   64    69     0     0     0
SMALL
USER_CHARGES
dimethylaminomethylBLAHdione
@<TRIPOS>ATOM
      1 C1         -3.6591   -3.4932   -0.5238 C.3       1 <0>        -0.0551
      2 C2         -2.4926   -2.9550   -2.5762 C.3       1 <0>        -0.0445
      3 C3         -2.6578   -1.3072   -0.8098 C.3       1 <0>        -0.0358
      4 C4         -2.4673   -1.1012    0.6860 C.3       1 <0>         0.0654
      5 H1         -3.1645   -1.7751    1.2185 H         1 <0>         0.0947
      6 C5         -2.7230    0.3270    1.1457 C.3       1 <0>        -0.1345
      7 C6         -2.5225    1.3892    0.0793 C.3       1 <0>         0.1021
      8 N1         -1.1339    1.8402    0.0096 N.pl3     1 <0>        -0.4782
      9 C7         -0.0126    1.0747    0.0080 C.2       1 <0>         0.0759
     10 C8          1.1009    1.8532    0.0015 C.2       1 <0>        -0.1124
     11 C9          0.6150    3.2557   -0.0375 C.ar      1 <0>        -0.0829
     12 C10        -0.7846    3.1777   -0.0610 C.ar      1 <0>         0.0902
     13 C11        -1.5354    4.3459   -0.1576 C.ar      1 <0>        -0.1369
     14 C12        -0.9089    5.5725   -0.1941 C.ar      1 <0>        -0.0870
     15 C13         0.4756    5.6497   -0.1263 C.ar      1 <0>        -0.1387
     16 C14         1.2312    4.5008   -0.0317 C.ar      1 <0>        -0.0542
     17 C15         2.5293    1.4989    0.0288 C.2       1 <0>        -0.0575
     18 C16         3.2121    0.4058    0.5546 C.2       1 <0>        -0.0318
     19 C17         2.7061   -0.7744    1.2787 C.2       1 <0>        -0.1258
     20 C18         1.4206   -1.0272    1.6582 C.2       1 <0>         0.1002
     21 N2          1.3169   -2.2819    2.1682 N.pl3     1 <0>        -0.4767
     22 C19         2.5720   -2.8515    2.2654 C.ar      1 <0>         0.0850
     23 C20         3.5031   -1.9214    1.7684 C.ar      1 <0>        -0.0774
     24 C21         4.8560   -2.2219    1.8708 C.ar      1 <0>        -0.0704
     25 C22         5.2705   -3.4529    2.3343 C.ar      1 <0>        -0.1401
     26 C23         4.3436   -4.3996    2.7389 C.ar      1 <0>        -0.0882
     27 C24         3.0009   -4.0952    2.7142 C.ar      1 <0>        -0.1389
     28 C25         0.0751   -2.9597    2.5494 C.3       1 <0>         0.1083
     29 C26        -0.9464   -2.8428    1.4151 C.3       1 <0>         0.0261
     30 O1         -1.1329   -1.4683    1.0718 O.3       1 <0>        -0.3787
     31 C27         4.6407    0.6399    0.2297 C.2       1 <0>         0.5576
     32 O2          5.5801   -0.0982    0.4313 O.2       1 <0>        -0.4501
     33 N3          4.7726    1.8285   -0.3761 N.am      1 <0>        -0.6884
     34 C28         3.5684    2.3701   -0.5773 C.2       1 <0>         0.5496
     35 O3          3.3676    3.4021   -1.1909 O.2       1 <0>        -0.4507
     36 H2         -4.6064   -3.1194   -0.9125 H         1 <0>         0.1320
     37 H3         -3.5558   -4.5494   -0.7723 H         1 <0>         0.1292
     38 H4         -3.6371   -3.3709    0.5591 H         1 <0>         0.1176
     39 H5         -1.6226   -2.4415   -2.9853 H         1 <0>         0.1242
     40 H6         -2.4140   -4.0227   -2.7812 H         1 <0>         0.1266
     41 H7         -3.3976   -2.5618   -3.0392 H         1 <0>         0.1281
     42 H8         -3.6420   -0.9427   -1.1043 H         1 <0>         0.1512
     43 H9         -1.8892   -0.7576   -1.3530 H         1 <0>         0.1401
     44 H10        -3.7581    0.3948    1.5248 H         1 <0>         0.1133
     45 H11        -2.0693    0.5478    1.9998 H         1 <0>         0.1111
     46 H12        -2.8851    1.1097   -0.8943 H         1 <0>         0.0847
     47 H13        -3.1227    2.2722    0.3811 H         1 <0>         0.1001
     48 H14         0.0021   -0.0041    0.0020 H         1 <0>         0.1790
     49 H15        -2.6150    4.2937   -0.2077 H         1 <0>         0.1188
     50 H16        -1.4958    6.4773   -0.2780 H         1 <0>         0.1308
     51 H17         0.9608    6.6157   -0.1385 H         1 <0>         0.1284
     52 H18         2.3072    4.5814    0.0562 H         1 <0>         0.1320
     53 H19         0.6104   -0.3170    1.5917 H         1 <0>         0.1871
     54 H20         5.6126   -1.4944    1.6337 H         1 <0>         0.1514
     55 H21         6.3257   -3.6782    2.3787 H         1 <0>         0.1280
     56 H22         4.6724   -5.3687    3.0799 H         1 <0>         0.1300
     57 H23         2.2783   -4.8297    3.0422 H         1 <0>         0.1175
     58 H24         0.2774   -4.0129    2.7458 H         1 <0>         0.1169
     59 H25        -0.3264   -2.4933    3.4522 H         1 <0>         0.0971
     60 H26        -0.5876   -3.3893    0.5423 H         1 <0>         0.0664
     61 H27        -1.8985   -3.2659    1.7424 H         1 <0>         0.0864
     62 H28         5.6204    2.2247   -0.6318 H         1 <0>         0.4332
     63 N4         -2.5268   -2.7479   -1.1131 N.4       1 <0>        -0.4048
     64 H29        -1.6507   -3.0961   -0.7064 H         1 <0>         0.4232
@<TRIPOS>BOND
     1    1   36 1
     2    1   37 1
     3    1   38 1
     4    1   63 1
     5    2   39 1
     6    2   40 1
     7    2   41 1
     8    2   63 1
     9    3    4 1
    10    3   42 1
    11    3   43 1
    12    3   63 1
    13    4    5 1
    14    4   30 1
    15    4    6 1
    16    6    7 1
    17    6   44 1
    18    6   45 1
    19    7    8 1
    20    7   46 1
    21    7   47 1
    22    8   12 1
    23    8    9 1
    24    9   10 2
    25    9   48 1
    26   10   11 1
    27   10   17 1
    28   11   16 ar
    29   11   12 ar
    30   12   13 ar
    31   13   14 ar
    32   13   49 1
    33   14   15 ar
    34   14   50 1
    35   15   16 ar
    36   15   51 1
    37   16   52 1
    38   17   34 1
    39   17   18 2
    40   18   19 1
    41   18   31 1
    42   19   23 1
    43   19   20 2
    44   20   21 1
    45   20   53 1
    46   21   22 1
    47   21   28 1
    48   22   27 ar
    49   22   23 ar
    50   23   24 ar
    51   24   25 ar
    52   24   54 1
    53   25   26 ar
    54   25   55 1
    55   26   27 ar
    56   26   56 1
    57   27   57 1
    58   28   29 1
    59   28   58 1
    60   28   59 1
    61   29   30 1
    62   29   60 1
    63   29   61 1
    64   31   32 2
    65   31   33 am
    66   33   34 am
    67   33   62 1
    68   34   35 2
    69   63   64 1
@<TRIPOS>MOLECULE
ZINC19632614
   55    58     0     0     0
SMALL
USER_CHARGES

@<TRIPOS>ATOM
      1 C1         -0.7374    1.4118    0.5253 C.3       1 <0>         0.0199
      2 O1         -0.7263   -0.0171    0.5247 O.3       1 <0>        -0.2961
      3 C2          0.0734   -0.6280    1.4373 C.ar      1 <0>         0.1647
      4 C3          0.8188    0.1348    2.3090 C.ar      1 <0>        -0.1833
      5 C4          1.6420   -0.4976    3.2485 C.ar      1 <0>         0.2017
      6 C5          1.6952   -1.9130    3.2874 C.ar      1 <0>        -0.1805
      7 C6          0.9277   -2.6653    2.3903 C.ar      1 <0>        -0.1504
      8 C7          0.1268   -2.0280    1.4855 C.ar      1 <0>         0.1167
      9 O2         -0.6229   -2.7597    0.6185 O.3       1 <0>        -0.2957
     10 C8         -0.5255   -4.1819    0.7171 C.3       1 <0>         0.0569
     11 C9         -1.4334   -4.8292   -0.3307 C.3       1 <0>        -0.1162
     12 C10        -1.3291   -6.3519   -0.2252 C.3       1 <0>         0.0590
     13 N1         -2.2008   -6.9733   -1.2311 N.3       1 <0>        -0.5361
     14 C11        -3.6165   -6.7053   -0.9393 C.3       1 <0>         0.0126
     15 C12        -4.4841   -7.3184   -2.0416 C.3       1 <0>         0.0623
     16 O3         -4.2065   -8.7181   -2.1368 O.3       1 <0>        -0.3850
     17 C13        -2.8368   -9.0154   -2.4209 C.3       1 <0>         0.0626
     18 C14        -1.9524   -8.4195   -1.3224 C.3       1 <0>         0.0175
     19 C15         2.5361   -2.5234    4.2482 C.ar      1 <0>         0.4639
     20 N2          3.2308   -1.7396    5.0625 N.ar      1 <0>        -0.5813
     21 C16         3.1493   -0.4206    4.9892 C.ar      1 <0>         0.3427
     22 N3          2.3876    0.1999    4.1200 N.ar      1 <0>        -0.5394
     23 N4          2.6306   -3.8977    4.3362 N.pl3     1 <0>        -0.6396
     24 C17         3.3713   -4.4833    5.3684 C.ar      1 <0>         0.1586
     25 C18         3.4039   -3.8902    6.6240 C.ar      1 <0>        -0.0764
     26 C19         4.1353   -4.4698    7.6421 C.ar      1 <0>        -0.1191
     27 C20         4.8362   -5.6416    7.4124 C.ar      1 <0>         0.0961
     28 C21         4.8054   -6.2354    6.1608 C.ar      1 <0>        -0.0542
     29 C22         4.0703   -5.6613    5.1406 C.ar      1 <0>        -0.1133
     30 Cl1         5.6852   -7.7046    5.8756 Cl        1 <0>        -0.0422
     31 F1          5.5513   -6.2065    8.4097 F         1 <0>        -0.1250
     32 H1          0.2683    1.7831    0.3285 H         1 <0>         0.0625
     33 H2         -1.4151    1.7702   -0.2495 H         1 <0>         0.1078
     34 H3         -1.0740    1.7722    1.4974 H         1 <0>         0.0624
     35 H4          0.7687    1.2128    2.2678 H         1 <0>         0.1567
     36 H5          0.9651   -3.7443    2.4164 H         1 <0>         0.1382
     37 H6          0.5060   -4.4884    0.5431 H         1 <0>         0.0655
     38 H7         -0.8359   -4.4993    1.7126 H         1 <0>         0.0633
     39 H8         -2.4649   -4.5227   -0.1568 H         1 <0>         0.0772
     40 H9         -1.1230   -4.5118   -1.3262 H         1 <0>         0.0870
     41 H10        -0.2976   -6.6584   -0.3991 H         1 <0>         0.0806
     42 H11        -1.6394   -6.6693    0.7704 H         1 <0>         0.0394
     43 H12        -3.8805   -7.1489    0.0207 H         1 <0>         0.0445
     44 H13        -3.7829   -5.6288   -0.9016 H         1 <0>         0.0906
     45 H14        -5.5369   -7.1717   -1.8001 H         1 <0>         0.0996
     46 H15        -4.2579   -6.8370   -2.9930 H         1 <0>         0.0614
     47 H16        -2.6980  -10.0960   -2.4536 H         1 <0>         0.0999
     48 H17        -2.5626   -8.5833   -3.3833 H         1 <0>         0.0613
     49 H18        -0.9041   -8.5942   -1.5643 H         1 <0>         0.0880
     50 H19        -2.1898   -8.8905   -0.3685 H         1 <0>         0.0446
     51 H20         3.7361    0.1714    5.6759 H         1 <0>         0.1991
     52 H21         2.1833   -4.4574    3.6823 H         1 <0>         0.4215
     53 H22         2.8578   -2.9760    6.8040 H         1 <0>         0.1516
     54 H23         4.1608   -4.0084    8.6183 H         1 <0>         0.1509
     55 H24         4.0430   -6.1262    4.1662 H         1 <0>         0.1452
@<TRIPOS>BOND
     1    1    2 1
     2    1   32 1
     3    1   33 1
     4    1   34 1
     5    2    3 1
     6    3    8 ar
     7    3    4 ar
     8    4    5 ar
     9    4   35 1
    10    5   22 ar
    11    5    6 ar
    12    6    7 ar
    13    6   19 ar
    14    7    8 ar
    15    7   36 1
    16    8    9 1
    17    9   10 1
    18   10   11 1
    19   10   37 1
    20   10   38 1
    21   11   12 1
    22   11   39 1
    23   11   40 1
    24   12   13 1
    25   12   41 1
    26   12   42 1
    27   13   18 1
    28   13   14 1
    29   14   15 1
    30   14   43 1
    31   14   44 1
    32   15   16 1
    33   15   45 1
    34   15   46 1
    35   16   17 1
    36   17   18 1
    37   17   47 1
    38   17   48 1
    39   18   49 1
    40   18   50 1
    41   19   20 ar
    42   19   23 1
    43   20   21 ar
    44   21   22 ar
    45   21   51 1
    46   23   24 1
    47   23   52 1
    48   24   29 ar
    49   24   25 ar
    50   25   26 ar
    51   25   53 1
    52   26   27 ar
    53   26   54 1
    54   27   28 ar
    55   27   31 1
    56   28   29 ar
    57   28   30 1
    58   29   55 1
@<TRIPOS>MOLECULE
ZINC19632614
   57    60     0     0     0
SMALL
USER_CHARGES

@<TRIPOS>ATOM
      1 C1          0.4957    0.6763   -1.2292 C.3       1 <0>         0.0097
      2 O1          0.3708   -0.6717   -0.7717 O.3       1 <0>        -0.2780
      3 C2         -0.8861   -1.1806   -0.6878 C.ar      1 <0>         0.2175
      4 C3         -1.9704   -0.3964   -1.0449 C.ar      1 <0>        -0.2163
      5 C4         -3.2517   -0.9159   -0.9595 C.ar      1 <0>         0.2109
      6 C5         -3.4429   -2.2355   -0.5110 C.ar      1 <0>        -0.1696
      7 C6         -2.3484   -3.0191   -0.1533 C.ar      1 <0>        -0.1343
      8 C7         -1.0748   -2.4922   -0.2475 C.ar      1 <0>         0.1172
      9 O2         -0.0002   -3.2528    0.0951 O.3       1 <0>        -0.2792
     10 C8         -0.2516   -4.6209    0.4223 C.3       1 <0>         0.0522
     11 C9          1.0783   -5.3474    0.6333 C.3       1 <0>        -0.1519
     12 C10         0.8148   -6.8369    0.8638 C.3       1 <0>        -0.0151
     13 N1          2.0946   -7.5463    0.9928 N.4       1 <0>        -0.3820
     14 C11         2.8253   -7.4743   -0.2800 C.3       1 <0>        -0.0514
     15 C12         4.1584   -8.2140   -0.1429 C.3       1 <0>         0.0361
     16 O3          3.9086   -9.5683    0.2435 O.3       1 <0>        -0.3530
     17 C13         3.1775   -9.6905    1.4668 C.3       1 <0>         0.0362
     18 C14         1.8426   -8.9535    1.3327 C.3       1 <0>        -0.0460
     19 C15        -4.8247   -2.7457   -0.4360 C.cat     1 <0>         0.5319
     20 N2         -5.0725   -3.9771   -0.0222 N.pl3     1 <0>        -0.5604
     21 C16        -4.2014   -4.6012    0.8249 C.ar      1 <0>         0.0974
     22 C17        -3.7272   -3.9360    1.9592 C.ar      1 <0>        -0.0816
     23 C18        -2.8483   -4.5713    2.8111 C.ar      1 <0>        -0.1175
     24 C19        -2.4343   -5.8665    2.5448 C.ar      1 <0>         0.1198
     25 C20        -2.9002   -6.5323    1.4212 C.ar      1 <0>        -0.0716
     26 C21        -3.7851   -5.9094    0.5642 C.ar      1 <0>        -0.0825
     27 Cl1        -2.3754   -8.1547    1.0956 Cl        1 <0>        -0.0183
     28 F1         -1.5728   -6.4831    3.3830 F         1 <0>        -0.1112
     29 N3         -5.8317   -1.9199   -0.8014 N.2       1 <0>        -0.5495
     30 C22        -5.6076   -0.7054   -1.2106 C.2       1 <0>         0.4712
     31 N4         -4.3672   -0.1695   -1.3053 N.pl3     1 <0>        -0.5812
     32 H1         -4.2589    0.7427   -1.6168 H         1 <0>         0.4503
     33 H2          1.5487    0.9571   -1.2491 H         1 <0>         0.1245
     34 H3          0.0784    0.7596   -2.2327 H         1 <0>         0.0727
     35 H4         -0.0447    1.3405   -0.5547 H         1 <0>         0.0731
     36 H5         -1.8176    0.6161   -1.3882 H         1 <0>         0.1754
     37 H6         -2.4939   -4.0322    0.1915 H         1 <0>         0.1665
     38 H7         -0.8431   -4.6731    1.3364 H         1 <0>         0.0710
     39 H8         -0.7992   -5.0947   -0.3924 H         1 <0>         0.0775
     40 H9          1.7051   -5.2217   -0.2495 H         1 <0>         0.1094
     41 H10         1.5867   -4.9297    1.5023 H         1 <0>         0.1099
     42 H11         0.2340   -6.9660    1.7771 H         1 <0>         0.1336
     43 H12         0.2581   -7.2423    0.0189 H         1 <0>         0.1350
     44 H13         2.2311   -7.9385   -1.0671 H         1 <0>         0.1411
     45 H14         3.0128   -6.4308   -0.5330 H         1 <0>         0.1444
     46 H15         4.6829   -8.1989   -1.0982 H         1 <0>         0.1447
     47 H16         4.7692   -7.7256    0.6163 H         1 <0>         0.0840
     48 H17         2.9923  -10.7439    1.6765 H         1 <0>         0.1456
     49 H18         3.7548   -9.2526    2.2811 H         1 <0>         0.0847
     50 H19         1.3007   -9.0081    2.2769 H         1 <0>         0.1448
     51 H20         1.2488   -9.4172    0.5450 H         1 <0>         0.1398
     52 H21        -4.0484   -2.9261    2.1679 H         1 <0>         0.1559
     53 H22        -2.4815   -4.0580    3.6876 H         1 <0>         0.1719
     54 H23        -4.1514   -6.4303   -0.3081 H         1 <0>         0.1696
     55 H24        -6.4530   -0.0939   -1.4891 H         1 <0>         0.2492
     56 H25        -5.8728   -4.4370   -0.3202 H         1 <0>         0.4487
     57 H26         2.6450   -7.1175    1.7216 H         1 <0>         0.4269
@<TRIPOS>BOND
     1    1    2 1
     2    1   33 1
     3    1   34 1
     4    1   35 1
     5    2    3 1
     6    3    8 ar
     7    3    4 ar
     8    4    5 ar
     9    4   36 1
    10    5   31 1
    11    5    6 ar
    12    6    7 ar
    13    6   19 1
    14    7    8 ar
    15    7   37 1
    16    8    9 1
    17    9   10 1
    18   10   11 1
    19   10   38 1
    20   10   39 1
    21   11   12 1
    22   11   40 1
    23   11   41 1
    24   12   13 1
    25   12   42 1
    26   12   43 1
    27   13   18 1
    28   13   14 1
    29   13   57 1
    30   14   15 1
    31   14   44 1
    32   14   45 1
    33   15   16 1
    34   15   46 1
    35   15   47 1
    36   16   17 1
    37   17   18 1
    38   17   48 1
    39   17   49 1
    40   18   50 1
    41   18   51 1
    42   19   20 2
    43   19   29 1
    44   20   21 1
    45   20   56 1
    46   21   26 ar
    47   21   22 ar
    48   22   23 ar
    49   22   52 1
    50   23   24 ar
    51   23   53 1
    52   24   25 ar
    53   24   28 1
    54   25   26 ar
    55   25   27 1
    56   26   54 1
    57   29   30 2
    58   30   31 1
    59   30   55 1
    60   31   32 1
