@<TRIPOS>MOLECULE
ZINC01679484
   38    40     0     0     0
SMALL
USER_CHARGES

@<TRIPOS>ATOM
      1 C1         -0.0173    1.4248    0.0099 C.3       1 <0>         0.0293
      2 O1          0.0021   -0.0041    0.0020 O.3       1 <0>        -0.3223
      3 C2          0.6062   -0.6076   -1.0565 C.ar      1 <0>         0.0674
      4 C3          1.1728    0.1615   -2.0621 C.ar      1 <0>        -0.1568
      5 C4          1.7865   -0.4505   -3.1374 C.ar      1 <0>        -0.1561
      6 C5          1.8363   -1.8362   -3.2115 C.ar      1 <0>         0.1865
      7 C6          1.2688   -2.6054   -2.2043 C.ar      1 <0>        -0.1599
      8 C7          0.6605   -1.9917   -1.1269 C.ar      1 <0>        -0.1016
      9 N1          2.4575   -2.4571   -4.3009 N.pl3     1 <0>        -0.7407
     10 C8          2.5098   -3.9191   -4.3787 C.3       1 <0>         0.1769
     11 C9          3.2268   -4.3298   -5.6390 C.ar      1 <0>        -0.1294
     12 C10         2.5075   -4.5225   -6.8299 C.ar      1 <0>        -0.0225
     13 C11         1.1146   -4.3394   -6.8780 C.ar      1 <0>        -0.1108
     14 C12         0.4498   -4.5345   -8.0493 C.ar      1 <0>        -0.1064
     15 C13         1.1294   -4.9144   -9.2053 C.ar      1 <0>        -0.1176
     16 C14         2.4775   -5.1009   -9.1964 C.ar      1 <0>        -0.1007
     17 C15         3.1986   -4.9084   -8.0058 C.ar      1 <0>        -0.0642
     18 C16         4.5918   -5.0914   -7.9598 C.ar      1 <0>        -0.0775
     19 C17         5.2594   -4.8969   -6.7912 C.ar      1 <0>        -0.1452
     20 C18         4.5804   -4.5112   -5.6310 C.ar      1 <0>         0.1353
     21 O2          5.2759   -4.3190   -4.4796 O.3       1 <0>        -0.4930
     22 H1          1.0053    1.8021    0.0021 H         1 <0>         0.0524
     23 H2         -0.5445    1.7859   -0.8732 H         1 <0>         0.0523
     24 H3         -0.5275    1.7763    0.9067 H         1 <0>         0.0974
     25 H4          1.1336    1.2393   -2.0045 H         1 <0>         0.1263
     26 H5          2.2273    0.1485   -3.9206 H         1 <0>         0.1214
     27 H6          1.3071   -3.6832   -2.2612 H         1 <0>         0.1259
     28 H7          0.2233   -2.5898   -0.3410 H         1 <0>         0.1291
     29 H8          2.8535   -1.9196   -5.0045 H         1 <0>         0.3996
     30 H9          3.0441   -4.3102   -3.5129 H         1 <0>         0.0684
     31 H10         1.4958   -4.3188   -4.3909 H         1 <0>         0.0672
     32 H11         0.5748   -4.0458   -5.9898 H         1 <0>         0.1299
     33 H12        -0.6204   -4.3932   -8.0835 H         1 <0>         0.1252
     34 H13         0.5778   -5.0635  -10.1218 H         1 <0>         0.1253
     35 H14         2.9905   -5.3956  -10.0999 H         1 <0>         0.1293
     36 H15         5.1296   -5.3856   -8.8490 H         1 <0>         0.1342
     37 H16         6.3296   -5.0387   -6.7595 H         1 <0>         0.1328
     38 H17         5.3620   -5.1133   -3.9349 H         1 <0>         0.3924
@<TRIPOS>BOND
     1    1    2 1
     2    1   22 1
     3    1   23 1
     4    1   24 1
     5    2    3 1
     6    3    8 ar
     7    3    4 ar
     8    4    5 ar
     9    4   25 1
    10    5    6 ar
    11    5   26 1
    12    6    7 ar
    13    6    9 1
    14    7    8 ar
    15    7   27 1
    16    8   28 1
    17    9   10 1
    18    9   29 1
    19   10   11 1
    20   10   30 1
    21   10   31 1
    22   11   20 ar
    23   11   12 ar
    24   12   17 ar
    25   12   13 ar
    26   13   14 ar
    27   13   32 1
    28   14   15 ar
    29   14   33 1
    30   15   16 ar
    31   15   34 1
    32   16   17 ar
    33   16   35 1
    34   17   18 ar
    35   18   19 ar
    36   18   36 1
    37   19   20 ar
    38   19   37 1
    39   20   21 1
    40   21   38 1
@<TRIPOS>MOLECULE
ZINC01607791
   38    41     0     0     0
SMALL
USER_CHARGES

@<TRIPOS>ATOM
      1 C1         -0.0167    1.3802    0.0096 C.ar      1 <0>        -0.0821
      2 C2          1.1934    2.0590    0.0017 C.ar      1 <0>        -0.1600
      3 C3          2.3748    1.3393   -0.0134 C.ar      1 <0>         0.0991
      4 N1          2.3644    0.0224   -0.0204 N.ar      1 <0>        -0.4389
      5 C4          1.2291   -0.6644   -0.0132 C.ar      1 <0>         0.1816
      6 C5          0.0021   -0.0041    0.0020 C.ar      1 <0>        -0.1216
      7 C6          1.2664   -2.1467   -0.0216 C.ar      1 <0>         0.2883
      8 N2          2.4391   -2.7697   -0.0307 N.ar      1 <0>        -0.4190
      9 C7          2.4728   -4.1013   -0.0381 C.ar      1 <0>         0.2622
     10 C8          1.2441   -4.8065   -0.0361 C.ar      1 <0>         0.1302
     11 N3          0.1064   -4.1146   -0.0268 N.ar      1 <0>        -0.1633
     12 N4          0.1263   -2.8280   -0.0143 N.ar      1 <0>        -0.2636
     13 C9          1.2253   -6.2791   -0.0445 C.2       1 <0>        -0.0128
     14 C10         0.3118   -7.0712    0.5836 C.2       1 <0>        -0.1425
     15 C11         0.6743   -8.4033    0.3096 C.2       1 <0>        -0.1622
     16 C12         1.7786   -8.3620   -0.4635 C.2       1 <0>        -0.4557
     17 O1          2.1053   -7.0780   -0.6797 O.3       1 <0>        -0.0970
     18 S1          2.6456   -9.7617   -1.0909 S.o2      1 <0>         2.6892
     19 O2          4.0421   -9.3734   -1.2138 O.2       1 <0>        -0.9917
     20 O3          2.4635  -10.8375   -0.1288 O.2       1 <0>        -1.0356
     21 O4          2.0548  -10.0810   -2.3813 O.3       1 <0>        -1.0671
     22 C13         3.7567   -4.8232   -0.0488 C.2       1 <0>        -0.0262
     23 C14         4.8950   -4.4217   -0.6806 C.2       1 <0>        -0.1296
     24 C15         5.8676   -5.4062   -0.4271 C.2       1 <0>        -0.1650
     25 C16         5.2842   -6.3513    0.3384 C.2       1 <0>        -0.4497
     26 O5          4.0119   -5.9932    0.5696 O.3       1 <0>        -0.0947
     27 S2          6.0658   -7.8109    0.9414 S.o2      1 <0>         2.6884
     28 O6          5.0309   -8.8264    1.0591 O.2       1 <0>        -0.9904
     29 O7          7.0808   -8.1798   -0.0330 O.2       1 <0>        -1.0349
     30 O8          6.6477   -7.4760    2.2319 O.3       1 <0>        -1.0663
     31 H1         -0.9522    1.9197    0.0259 H         1 <0>         0.1413
     32 H2          1.2129    3.1388    0.0070 H         1 <0>         0.1383
     33 H3          3.3185    1.8645   -0.0200 H         1 <0>         0.1625
     34 H4         -0.9212   -0.5643    0.0082 H         1 <0>         0.1521
     35 H5         -0.5277   -6.7409    1.1774 H         1 <0>         0.1544
     36 H6          0.1643   -9.2910    0.6535 H         1 <0>         0.1630
     37 H7          5.0254   -3.5219   -1.2635 H         1 <0>         0.1553
     38 H8          6.8885   -5.4058   -0.7796 H         1 <0>         0.1639
@<TRIPOS>BOND
     1    1    6 ar
     2    1    2 ar
     3    1   31 1
     4    2    3 ar
     5    2   32 1
     6    3    4 ar
     7    3   33 1
     8    4    5 ar
     9    5    6 ar
    10    5    7 1
    11    6   34 1
    12    7   12 ar
    13    7    8 ar
    14    8    9 ar
    15    9   10 ar
    16    9   22 1
    17   10   11 ar
    18   10   13 1
    19   11   12 ar
    20   13   17 1
    21   13   14 2
    22   14   15 1
    23   14   35 1
    24   15   16 2
    25   15   36 1
    26   16   17 1
    27   16   18 1
    28   18   19 2
    29   18   20 2
    30   18   21 1
    31   22   26 1
    32   22   23 2
    33   23   24 1
    34   23   37 1
    35   24   25 2
    36   24   38 1
    37   25   26 1
    38   25   27 1
    39   27   28 2
    40   27   29 2
    41   27   30 1
@<TRIPOS>MOLECULE
ZINC03953810
   53    55     0     0     0
SMALL
USER_CHARGES

@<TRIPOS>ATOM
      1 C1         -0.7202   -1.5772    1.5431 C.3       1 <0>         0.0914
      2 N1         -0.9487   -0.7601    0.3488 N.pl3     1 <0>        -0.6381
      3 C2         -1.4478    0.6107    0.4835 C.3       1 <0>         0.0946
      4 C3         -0.6905   -1.2879   -0.9183 C.ar      1 <0>         0.2176
      5 C4         -0.9011   -0.5126   -2.0515 C.ar      1 <0>        -0.1932
      6 C5         -0.6444   -1.0375   -3.3029 C.ar      1 <0>        -0.0572
      7 C6         -0.1787   -2.3335   -3.4286 C.ar      1 <0>        -0.1375
      8 C7          0.0316   -3.1082   -2.3026 C.ar      1 <0>        -0.0613
      9 C8         -0.2172   -2.5875   -1.0479 C.ar      1 <0>        -0.1961
     10 C9          0.0998   -2.9030   -4.7957 C.3       1 <0>         0.0425
     11 C10        -1.0773   -2.6394   -5.6991 C.ar      1 <0>        -0.1378
     12 C11        -0.8685   -2.2075   -6.9960 C.ar      1 <0>        -0.0650
     13 C12        -1.9449   -1.9654   -7.8267 C.ar      1 <0>        -0.1958
     14 C13        -3.2386   -2.1563   -7.3579 C.ar      1 <0>         0.2175
     15 C14        -3.4448   -2.5902   -6.0546 C.ar      1 <0>        -0.1980
     16 C15        -2.3637   -2.8354   -5.2309 C.ar      1 <0>        -0.0501
     17 N2         -4.3295   -1.9119   -8.1952 N.pl3     1 <0>        -0.6386
     18 C16        -4.1173   -1.3383   -9.5264 C.3       1 <0>         0.0929
     19 C17        -5.6861   -2.2293   -7.7421 C.3       1 <0>         0.0879
     20 C18         1.3304   -2.2502   -5.3707 C.ar      1 <0>        -0.0107
     21 C19         1.4300   -0.8719   -5.4040 C.ar      1 <0>        -0.1123
     22 C20         2.5588   -0.2730   -5.9314 C.ar      1 <0>        -0.0529
     23 C21         3.5881   -1.0526   -6.4251 C.ar      1 <0>        -0.0550
     24 C22         3.4888   -2.4309   -6.3910 C.ar      1 <0>        -0.0513
     25 C23         2.3619   -3.0298   -5.8597 C.ar      1 <0>        -0.1168
     26 N3          4.7963   -0.4113   -6.9907 N.pl3     1 <0>         0.0341
     27 O1          4.8830    0.7942   -7.0209 O.2       1 <0>        -0.1606
     28 O2          5.6966   -1.0931   -7.4226 O.3       1 <0>        -0.1607
     29 H1         -1.6296   -2.1264    1.7869 H         1 <0>         0.0489
     30 H2          0.0894   -2.2815    1.3521 H         1 <0>         0.0689
     31 H3         -0.4506   -0.9315    2.3789 H         1 <0>         0.0672
     32 H4         -1.5887    0.8439    1.5389 H         1 <0>         0.0735
     33 H5         -0.7264    1.3041    0.0513 H         1 <0>         0.0544
     34 H6         -2.3996    0.7038   -0.0394 H         1 <0>         0.0546
     35 H7         -1.2655    0.4994   -1.9541 H         1 <0>         0.1208
     36 H8         -0.8079   -0.4352   -4.1843 H         1 <0>         0.1217
     37 H9          0.3950   -4.1201   -2.4043 H         1 <0>         0.1217
     38 H10        -0.0482   -3.1914   -0.1686 H         1 <0>         0.1227
     39 H11         0.2626   -3.9778   -4.7153 H         1 <0>         0.0983
     40 H12         0.1376   -2.0590   -7.3597 H         1 <0>         0.1170
     41 H13        -1.7811   -1.6278   -8.8394 H         1 <0>         0.1208
     42 H14        -4.4493   -2.7392   -5.6869 H         1 <0>         0.1238
     43 H15        -2.5231   -3.1771   -4.2189 H         1 <0>         0.1225
     44 H16        -3.9747   -2.1413  -10.2495 H         1 <0>         0.0485
     45 H17        -4.9867   -0.7448   -9.8092 H         1 <0>         0.0670
     46 H18        -3.2324   -0.7020   -9.5110 H         1 <0>         0.0681
     47 H19        -5.6553   -2.5531   -6.7018 H         1 <0>         0.0782
     48 H20        -6.3146   -1.3429   -7.8282 H         1 <0>         0.0564
     49 H21        -6.0977   -3.0279   -8.3592 H         1 <0>         0.0527
     50 H22         0.6259   -0.2628   -5.0182 H         1 <0>         0.1499
     51 H23         2.6364    0.8039   -5.9580 H         1 <0>         0.1520
     52 H24         4.2928   -3.0399   -6.7771 H         1 <0>         0.1532
     53 H25         2.2859   -4.1067   -5.8296 H         1 <0>         0.1478
@<TRIPOS>BOND
     1    1    2 1
     2    1   29 1
     3    1   30 1
     4    1   31 1
     5    2    3 1
     6    2    4 1
     7    3   32 1
     8    3   33 1
     9    3   34 1
    10    4    9 ar
    11    4    5 ar
    12    5    6 ar
    13    5   35 1
    14    6    7 ar
    15    6   36 1
    16    7    8 ar
    17    7   10 1
    18    8    9 ar
    19    8   37 1
    20    9   38 1
    21   10   11 1
    22   10   20 1
    23   10   39 1
    24   11   16 ar
    25   11   12 ar
    26   12   13 ar
    27   12   40 1
    28   13   14 ar
    29   13   41 1
    30   14   15 ar
    31   14   17 1
    32   15   16 ar
    33   15   42 1
    34   16   43 1
    35   17   18 1
    36   17   19 1
    37   18   44 1
    38   18   45 1
    39   18   46 1
    40   19   47 1
    41   19   48 1
    42   19   49 1
    43   20   25 ar
    44   20   21 ar
    45   21   22 ar
    46   21   50 1
    47   22   23 ar
    48   22   51 1
    49   23   24 ar
    50   23   26 1
    51   24   25 ar
    52   24   52 1
    53   25   53 1
    54   26   27 2
    55   26   28 1
@<TRIPOS>MOLECULE
ZINC04523158
   46    48     0     0     0
SMALL
USER_CHARGES
5-[4-(2,4-diamino-5-methyl-phenyl)azophenyl]azo-2-hydroxy-benzoic acid
@<TRIPOS>ATOM
      1 C1         -2.4960    0.9643    0.0191 C.3       1 <0>        -0.0995
      2 C2         -1.2047    1.7413    0.0172 C.ar      1 <0>        -0.2217
      3 C3         -0.0126    1.0758    0.0080 C.ar      1 <0>         0.0043
      4 C4          1.1907    1.7911    0.0003 C.ar      1 <0>        -0.0822
      5 C5          1.1657    3.1987    0.0076 C.ar      1 <0>         0.3326
      6 C6         -0.0507    3.8612    0.0224 C.ar      1 <0>        -0.2963
      7 C7         -1.2348    3.1346    0.0298 C.ar      1 <0>         0.3007
      8 N1         -2.4567    3.8012    0.0450 N.pl3     1 <0>        -0.8617
      9 N2          2.3550    3.9196    0.0006 N.pl3     1 <0>        -0.8465
     10 N3          2.3788    1.1291   -0.0146 N.2       1 <0>        -0.1901
     11 N4          2.3984   -0.1607   -0.0217 N.2       1 <0>        -0.2698
     12 C8          3.5907   -0.8250   -0.0367 C.ar      1 <0>         0.0812
     13 C9          4.7918   -0.1068   -0.0500 C.ar      1 <0>        -0.1177
     14 C10         5.9845   -0.7712   -0.0592 C.ar      1 <0>        -0.1074
     15 C11         6.0058   -2.1707   -0.0674 C.ar      1 <0>         0.0748
     16 C12         4.8045   -2.8889   -0.0598 C.ar      1 <0>        -0.0688
     17 C13         3.6120   -2.2244   -0.0444 C.ar      1 <0>        -0.0779
     18 N5          7.1979   -2.8349   -0.0832 N.2       1 <0>        -0.2515
     19 N6          8.3050   -2.1730   -0.0903 N.2       1 <0>        -0.1790
     20 C14         9.4973   -2.8373   -0.1061 C.ar      1 <0>         0.0004
     21 C15         9.5190   -4.2384   -0.1148 C.ar      1 <0>        -0.0709
     22 C16        10.7185   -4.9129   -0.1308 C.ar      1 <0>        -0.1773
     23 C17        11.9171   -4.2101   -0.1394 C.ar      1 <0>         0.1835
     24 C18        11.9084   -2.8063   -0.1318 C.ar      1 <0>        -0.1560
     25 C19        10.6943   -2.1220   -0.1195 C.ar      1 <0>         0.0165
     26 C20        13.1791   -2.0585   -0.1414 C.2       1 <0>         0.4919
     27 O1         14.2363   -2.6573   -0.1559 O.co2     1 <0>        -0.6124
     28 O2         13.0951   -4.8802   -0.1556 O.3       1 <0>        -0.4739
     29 H1         -2.8025    0.7714    1.0472 H         1 <0>         0.0621
     30 H2         -3.2686    1.5424   -0.4880 H         1 <0>         0.0553
     31 H3         -2.3509    0.0172   -0.5006 H         1 <0>         0.0669
     32 H4          0.0021   -0.0041    0.0020 H         1 <0>         0.1390
     33 H5         -0.0785    4.9409    0.0277 H         1 <0>         0.1293
     34 H6         -2.4802    4.7709    0.0504 H         1 <0>         0.4006
     35 H7         -3.2848    3.2960    0.0502 H         1 <0>         0.4020
     36 H8          3.2051    3.4527   -0.0094 H         1 <0>         0.4116
     37 H9          2.3343    4.8894    0.0057 H         1 <0>         0.4016
     38 H10         4.7753    0.9731   -0.0489 H         1 <0>         0.1326
     39 H11         6.9114   -0.2170   -0.0650 H         1 <0>         0.1394
     40 H12         4.8209   -3.9688   -0.0657 H         1 <0>         0.1396
     41 H13         2.6850   -2.7786   -0.0385 H         1 <0>         0.1381
     42 H14         8.5911   -4.7910   -0.1085 H         1 <0>         0.1370
     43 H15        10.7282   -5.9928   -0.1370 H         1 <0>         0.1310
     44 H16        10.6806   -1.0420   -0.1170 H         1 <0>         0.1486
     45 H17        13.4276   -5.0696   -1.0437 H         1 <0>         0.3928
     46 O3         13.1680   -0.7112   -0.1341 O.co2     1 <0>        -0.7526
@<TRIPOS>BOND
     1    1    2 1
     2    1   29 1
     3    1   30 1
     4    1   31 1
     5    2    7 ar
     6    2    3 ar
     7    3    4 ar
     8    3   32 1
     9    4    5 ar
    10    4   10 1
    11    5    6 ar
    12    5    9 1
    13    6    7 ar
    14    6   33 1
    15    7    8 1
    16    8   34 1
    17    8   35 1
    18    9   36 1
    19    9   37 1
    20   10   11 2
    21   11   12 1
    22   12   17 ar
    23   12   13 ar
    24   13   14 ar
    25   13   38 1
    26   14   15 ar
    27   14   39 1
    28   15   16 ar
    29   15   18 1
    30   16   17 ar
    31   16   40 1
    32   17   41 1
    33   18   19 2
    34   19   20 1
    35   20   25 ar
    36   20   21 ar
    37   21   22 ar
    38   21   42 1
    39   22   23 ar
    40   22   43 1
    41   23   24 ar
    42   23   28 1
    43   24   25 ar
    44   24   26 1
    45   25   44 1
    46   26   27 2
    47   26   46 1
    48   28   45 1
@<TRIPOS>MOLECULE
ZINC01729576
   45    47     0     0     0
SMALL
USER_CHARGES
6-methoxy-N-[2-(2-piperidyl)ethyl]quinolin-8-amine
@<TRIPOS>ATOM
      1 C1         -5.7159    7.4242    6.5021 C.3       1 <0>         0.0246
      2 O1         -5.0297    6.7309    5.4579 O.3       1 <0>        -0.3155
      3 C2         -4.4197    7.4903    4.5104 C.ar      1 <0>         0.1849
      4 C3         -4.4852    8.8631    4.5917 C.ar      1 <0>        -0.2555
      5 C4         -3.8561    9.6499    3.6144 C.ar      1 <0>        -0.0209
      6 C5         -3.9033   11.0565    3.6681 C.ar      1 <0>        -0.0789
      7 C6         -3.2691   11.7607    2.6848 C.ar      1 <0>        -0.1471
      8 C7         -2.6001   11.0842    1.6669 C.ar      1 <0>         0.1087
      9 N1         -2.5578    9.7749    1.6212 N.ar      1 <0>        -0.4659
     10 C8         -3.1580    9.0269    2.5510 C.ar      1 <0>         0.0539
     11 C9         -3.1073    7.6163    2.4920 C.ar      1 <0>         0.2723
     12 C10        -3.7387    6.8698    3.4609 C.ar      1 <0>        -0.2296
     13 N2         -2.4255    6.9831    1.4539 N.pl3     1 <0>        -0.7272
     14 C11        -2.3749    5.5201    1.3958 C.3       1 <0>         0.1112
     15 C12        -1.5715    5.0859    0.1682 C.3       1 <0>        -0.1606
     16 C13        -1.5186    3.5580    0.1076 C.3       1 <0>         0.0394
     17 H1         -2.5327    3.1587    0.1266 H         1 <0>         0.1425
     18 C14        -0.8234    3.1228   -1.1844 C.3       1 <0>        -0.1397
     19 C15        -0.7548    1.5938   -1.2312 C.3       1 <0>        -0.1393
     20 C16        -0.0127    1.0858    0.0080 C.3       1 <0>        -0.1480
     21 C17        -0.7306    1.5801    1.2659 C.3       1 <0>        -0.0026
     22 H2         -6.5031    8.0430    6.0712 H         1 <0>         0.0607
     23 H3         -6.1567    6.7019    7.1892 H         1 <0>         0.1050
     24 H4         -5.0115    8.0566    7.0424 H         1 <0>         0.0603
     25 H5         -5.0191    9.3329    5.4044 H         1 <0>         0.1355
     26 H6         -4.4270   11.5642    4.4646 H         1 <0>         0.1414
     27 H7         -3.2862   12.8405    2.6961 H         1 <0>         0.1414
     28 H8         -2.1028   11.6536    0.8956 H         1 <0>         0.1612
     29 H9         -3.7029    5.7916    3.4116 H         1 <0>         0.1312
     30 H10        -1.9847    7.5112    0.7700 H         1 <0>         0.4177
     31 H11        -3.3880    5.1240    1.3257 H         1 <0>         0.0775
     32 H12        -1.8965    5.1370    2.2972 H         1 <0>         0.0535
     33 H13        -0.5584    5.4820    0.2383 H         1 <0>         0.0975
     34 H14        -2.0499    5.4690   -0.7332 H         1 <0>         0.1211
     35 H15         0.1861    3.5332   -1.2105 H         1 <0>         0.0899
     36 H16        -1.3872    3.4882   -2.0427 H         1 <0>         0.1128
     37 H17        -0.2219    1.2804   -2.1289 H         1 <0>         0.0956
     38 H18        -1.7645    1.1833   -1.2450 H         1 <0>         0.0826
     39 H19         0.0021   -0.0041    0.0020 H         1 <0>         0.1127
     40 H20         1.0097    1.4637    0.0003 H         1 <0>         0.0882
     41 H21        -1.7483    1.1900    1.2802 H         1 <0>         0.1305
     42 H22        -0.1959    1.2321    2.1497 H         1 <0>         0.1331
     43 N3         -0.7649    3.0552    1.2721 N.4       1 <0>        -0.5182
     44 H23        -1.2188    3.3793    2.1342 H         1 <0>         0.4315
     45 H24         0.1956    3.4160    1.2346 H         1 <0>         0.4307
@<TRIPOS>BOND
     1    1    2 1
     2    1   22 1
     3    1   23 1
     4    1   24 1
     5    2    3 1
     6    3   12 ar
     7    3    4 ar
     8    4    5 ar
     9    4   25 1
    10    5   10 ar
    11    5    6 ar
    12    6    7 ar
    13    6   26 1
    14    7    8 ar
    15    7   27 1
    16    8    9 ar
    17    8   28 1
    18    9   10 ar
    19   10   11 ar
    20   11   12 ar
    21   11   13 1
    22   12   29 1
    23   13   14 1
    24   13   30 1
    25   14   15 1
    26   14   31 1
    27   14   32 1
    28   15   16 1
    29   15   33 1
    30   15   34 1
    31   16   17 1
    32   16   18 1
    33   16   43 1
    34   18   19 1
    35   18   35 1
    36   18   36 1
    37   19   20 1
    38   19   37 1
    39   19   38 1
    40   20   21 1
    41   20   39 1
    42   20   40 1
    43   21   41 1
    44   21   42 1
    45   21   43 1
    46   43   44 1
    47   43   45 1
@<TRIPOS>MOLECULE
ZINC03953849
   45    47     0     0     0
SMALL
USER_CHARGES

@<TRIPOS>ATOM
      1 C1         -0.0173    1.4248    0.0099 C.3       1 <0>         0.0246
      2 O1          0.0021   -0.0041    0.0020 O.3       1 <0>        -0.3155
      3 C2         -1.2001   -0.6374    0.0101 C.ar      1 <0>         0.1849
      4 C3         -2.3604    0.1038    0.0194 C.ar      1 <0>        -0.2555
      5 C4         -3.6035   -0.5476    0.0273 C.ar      1 <0>        -0.0209
      6 C5         -4.8091    0.1804    0.0363 C.ar      1 <0>        -0.0790
      7 C6         -5.9832   -0.5170    0.0433 C.ar      1 <0>        -0.1471
      8 C7         -5.9637   -1.9102    0.0413 C.ar      1 <0>         0.1087
      9 N1         -4.8394   -2.5839    0.0333 N.ar      1 <0>        -0.4659
     10 C8         -3.6567   -1.9631    0.0257 C.ar      1 <0>         0.0539
     11 C9         -2.4506   -2.6987    0.0164 C.ar      1 <0>         0.2723
     12 C10        -1.2458   -2.0330    0.0030 C.ar      1 <0>        -0.2296
     13 N2         -2.4805   -4.0924    0.0150 N.pl3     1 <0>        -0.7271
     14 C11        -1.2278   -4.8519    0.0054 C.3       1 <0>         0.1109
     15 C12        -1.5397   -6.3498    0.0059 C.3       1 <0>        -0.1602
     16 C13        -0.2314   -7.1431   -0.0041 C.3       1 <0>         0.0350
     17 H1          0.3787   -6.8262   -0.8500 H         1 <0>         0.1433
     18 C14        -0.5419   -8.6361   -0.1310 C.3       1 <0>        -0.1401
     19 C15         0.7702   -9.4257   -0.1408 C.3       1 <0>        -0.1395
     20 C16         1.5584   -9.1029    1.1319 C.3       1 <0>        -0.1483
     21 C17         1.7911   -7.5926    1.2119 C.3       1 <0>        -0.0072
     22 N3          0.4991   -6.8966    1.2449 N.4       1 <0>        -0.5073
     23 H2          1.0053    1.8021    0.0021 H         1 <0>         0.1050
     24 H3         -0.5445    1.7859   -0.8732 H         1 <0>         0.0608
     25 H4         -0.5275    1.7763    0.9067 H         1 <0>         0.0604
     26 H5         -2.3141    1.1828    0.0210 H         1 <0>         0.1355
     27 H6         -4.8052    1.2604    0.0381 H         1 <0>         0.1414
     28 H7         -6.9255    0.0107    0.0506 H         1 <0>         0.1415
     29 H8         -6.8997   -2.4491    0.0469 H         1 <0>         0.1612
     30 H9         -0.3247   -2.5969   -0.0088 H         1 <0>         0.1312
     31 H10        -3.3308   -4.5592    0.0204 H         1 <0>         0.4178
     32 H11        -0.6570   -4.5999   -0.8882 H         1 <0>         0.0777
     33 H12        -0.6446   -4.6020    0.8917 H         1 <0>         0.0535
     34 H13        -2.1105   -6.6018    0.8996 H         1 <0>         0.0977
     35 H14        -2.1229   -6.5998   -0.8803 H         1 <0>         0.1216
     36 H15        -1.1517   -8.9542    0.7146 H         1 <0>         0.0902
     37 H16        -1.0830   -8.8177   -1.0596 H         1 <0>         0.1133
     38 H17         0.5529  -10.4933   -0.1741 H         1 <0>         0.0961
     39 H18         1.3581   -9.1449   -1.0147 H         1 <0>         0.0832
     40 H19         0.9921   -9.4307    2.0036 H         1 <0>         0.0886
     41 H20         2.5185   -9.6182    1.1059 H         1 <0>         0.1133
     42 H21         2.3522   -7.3594    2.1168 H         1 <0>         0.1345
     43 H22         2.3576   -7.2660    0.3399 H         1 <0>         0.1315
     44 H23         0.6553   -5.9055    1.3520 H         1 <0>         0.4272
     45 H24        -0.0450   -7.2354    2.0241 H         1 <0>         0.4266
@<TRIPOS>BOND
     1    1    2 1
     2    1   23 1
     3    1   24 1
     4    1   25 1
     5    2    3 1
     6    3   12 ar
     7    3    4 ar
     8    4    5 ar
     9    4   26 1
    10    5   10 ar
    11    5    6 ar
    12    6    7 ar
    13    6   27 1
    14    7    8 ar
    15    7   28 1
    16    8    9 ar
    17    8   29 1
    18    9   10 ar
    19   10   11 ar
    20   11   12 ar
    21   11   13 1
    22   12   30 1
    23   13   14 1
    24   13   31 1
    25   14   15 1
    26   14   32 1
    27   14   33 1
    28   15   16 1
    29   15   34 1
    30   15   35 1
    31   16   17 1
    32   16   22 1
    33   16   18 1
    34   18   19 1
    35   18   36 1
    36   18   37 1
    37   19   20 1
    38   19   38 1
    39   19   39 1
    40   20   21 1
    41   20   40 1
    42   20   41 1
    43   21   22 1
    44   21   42 1
    45   21   43 1
    46   22   44 1
    47   22   45 1
@<TRIPOS>MOLECULE
ZINC03953849
   46    48     0     0     0
SMALL
USER_CHARGES

@<TRIPOS>ATOM
      1 C1         -0.0173    1.4248    0.0099 C.3       1 <0>         0.0149
      2 O1          0.0021   -0.0041    0.0020 O.3       1 <0>        -0.2973
      3 C2         -1.2001   -0.6374    0.0101 C.ar      1 <0>         0.2129
      4 C3         -2.3604    0.1038    0.0194 C.ar      1 <0>        -0.2241
      5 C4         -3.6035   -0.5476    0.0273 C.ar      1 <0>         0.0005
      6 C5         -4.8091    0.1804    0.0363 C.ar      1 <0>         0.0341
      7 C6         -5.9832   -0.5170    0.0433 C.ar      1 <0>        -0.1521
      8 C7         -5.9637   -1.9102    0.0413 C.ar      1 <0>         0.1971
      9 N1         -4.8394   -2.5839    0.0333 N.ar      1 <0>        -0.4414
     10 C8         -3.6567   -1.9631    0.0257 C.ar      1 <0>         0.0414
     11 C9         -2.4506   -2.6987    0.0164 C.ar      1 <0>         0.2346
     12 C10        -1.2458   -2.0330    0.0030 C.ar      1 <0>        -0.1695
     13 N2         -2.4805   -4.0924    0.0150 N.pl3     1 <0>        -0.7374
     14 C11        -1.2278   -4.8519    0.0054 C.3       1 <0>         0.1060
     15 C12        -1.5397   -6.3498    0.0059 C.3       1 <0>        -0.1623
     16 C13        -0.2314   -7.1431   -0.0041 C.3       1 <0>         0.0346
     17 H1          0.3787   -6.8262   -0.8500 H         1 <0>         0.1459
     18 C14        -0.5419   -8.6361   -0.1310 C.3       1 <0>        -0.1402
     19 C15         0.7702   -9.4257   -0.1408 C.3       1 <0>        -0.1409
     20 C16         1.5584   -9.1029    1.1319 C.3       1 <0>        -0.1497
     21 C17         1.7911   -7.5926    1.2119 C.3       1 <0>        -0.0079
     22 N3          0.4991   -6.8966    1.2449 N.4       1 <0>        -0.5076
     23 H2          1.0053    1.8021    0.0021 H         1 <0>         0.1200
     24 H3         -0.5445    1.7859   -0.8732 H         1 <0>         0.0709
     25 H4         -0.5275    1.7763    0.9067 H         1 <0>         0.0705
     26 H5         -2.3141    1.1828    0.0210 H         1 <0>         0.1645
     27 H6         -4.8052    1.2604    0.0381 H         1 <0>         0.1817
     28 H7         -6.9255    0.0107    0.0506 H         1 <0>         0.1909
     29 H8         -6.8997   -2.4491    0.0469 H         1 <0>         0.2143
     30 H9         -0.3247   -2.5969   -0.0088 H         1 <0>         0.1556
     31 H10        -3.3308   -4.5592    0.0204 H         1 <0>         0.4030
     32 H11        -0.6570   -4.5999   -0.8882 H         1 <0>         0.0913
     33 H12        -0.6446   -4.6020    0.8917 H         1 <0>         0.0673
     34 H13        -2.1105   -6.6018    0.8996 H         1 <0>         0.0997
     35 H14        -2.1229   -6.5998   -0.8803 H         1 <0>         0.1234
     36 H15        -1.1517   -8.9542    0.7146 H         1 <0>         0.0910
     37 H16        -1.0830   -8.8177   -1.0596 H         1 <0>         0.1140
     38 H17         0.5529  -10.4933   -0.1741 H         1 <0>         0.0996
     39 H18         1.3581   -9.1449   -1.0147 H         1 <0>         0.0849
     40 H19         0.9921   -9.4307    2.0036 H         1 <0>         0.0899
     41 H20         2.5185   -9.6182    1.1059 H         1 <0>         0.1172
     42 H21         2.3522   -7.3594    2.1168 H         1 <0>         0.1376
     43 H22         2.3576   -7.2660    0.3399 H         1 <0>         0.1334
     44 H23         0.6553   -5.9055    1.3520 H         1 <0>         0.4239
     45 H24        -0.0450   -7.2354    2.0241 H         1 <0>         0.4273
     46 H25        -4.8668   -3.5535    0.0329 H         1 <0>         0.4364
@<TRIPOS>BOND
     1    1    2 1
     2    1   23 1
     3    1   24 1
     4    1   25 1
     5    2    3 1
     6    3   12 ar
     7    3    4 ar
     8    4    5 ar
     9    4   26 1
    10    5   10 ar
    11    5    6 ar
    12    6    7 ar
    13    6   27 1
    14    7    8 ar
    15    7   28 1
    16    8    9 ar
    17    8   29 1
    18    9   10 ar
    19    9   46 1
    20   10   11 ar
    21   11   12 ar
    22   11   13 1
    23   12   30 1
    24   13   14 1
    25   13   31 1
    26   14   15 1
    27   14   32 1
    28   14   33 1
    29   15   16 1
    30   15   34 1
    31   15   35 1
    32   16   17 1
    33   16   22 1
    34   16   18 1
    35   18   19 1
    36   18   36 1
    37   18   37 1
    38   19   20 1
    39   19   38 1
    40   19   39 1
    41   20   21 1
    42   20   40 1
    43   20   41 1
    44   21   22 1
    45   21   42 1
    46   21   43 1
    47   22   44 1
    48   22   45 1
@<TRIPOS>MOLECULE
ZINC00395004
   32    32     0     0     0
SMALL
USER_CHARGES

@<TRIPOS>ATOM
      1 C1         -0.0178    1.4648    0.0101 C.3       1 <0>        -0.0552
      2 N1          0.0021   -0.0041    0.0020 N.4       1 <0>        -0.3894
      3 C2         -1.3761   -0.5125    0.0124 C.3       1 <0>        -0.0473
      4 C3          0.6897   -0.4778   -1.2066 C.3       1 <0>        -0.0017
      5 C4          2.1588   -0.0534   -1.1571 C.3       1 <0>         0.0311
      6 O1          2.8089   -0.7134   -0.0690 O.3       1 <0>        -0.3703
      7 C5          4.1169   -0.4466    0.1148 C.2       1 <0>         0.5244
      8 O2          4.6899    0.3254   -0.6285 O.2       1 <0>        -0.4977
      9 C6          4.8526   -1.0911    1.2173 C.ar      1 <0>        -0.2103
     10 C7          4.1962   -1.9842    2.0701 C.ar      1 <0>        -0.0090
     11 C8          4.8837   -2.5824    3.0945 C.ar      1 <0>        -0.2166
     12 C9          6.2338   -2.3012    3.2865 C.ar      1 <0>         0.2679
     13 C10         6.8904   -1.4125    2.4393 C.ar      1 <0>        -0.2114
     14 C11         6.2102   -0.8153    1.4095 C.ar      1 <0>         0.0066
     15 N2          6.9276   -2.9088    4.3267 N.pl3     1 <0>        -0.8564
     16 H1          1.0047    1.8421    0.0024 H         1 <0>         0.1218
     17 H2         -0.5450    1.8259   -0.8730 H         1 <0>         0.1254
     18 H3         -0.5280    1.8163    0.9069 H         1 <0>         0.1276
     19 H4         -1.9033   -0.1515   -0.8706 H         1 <0>         0.1232
     20 H5         -1.3613   -1.6024    0.0065 H         1 <0>         0.1249
     21 H6         -1.8863   -0.1610    0.9092 H         1 <0>         0.1258
     22 H7          0.6270   -1.5648   -1.2578 H         1 <0>         0.1434
     23 H8          0.2158   -0.0447   -2.0875 H         1 <0>         0.1505
     24 H9          2.6477   -0.3267   -2.0922 H         1 <0>         0.1146
     25 H10         2.2206    1.0258   -1.0166 H         1 <0>         0.0929
     26 H11         3.1488   -2.2022    1.9221 H         1 <0>         0.1310
     27 H12         4.3773   -3.2723    3.7534 H         1 <0>         0.1324
     28 H13         7.9376   -1.1966    2.5910 H         1 <0>         0.1361
     29 H14         6.7212   -0.1294    0.7500 H         1 <0>         0.1392
     30 H15         6.4711   -3.5279    4.9177 H         1 <0>         0.4065
     31 H16         7.8681   -2.7137    4.4614 H         1 <0>         0.4076
     32 H17         0.4901   -0.3383    0.8195 H         1 <0>         0.4325
@<TRIPOS>BOND
     1    1    2 1
     2    1   16 1
     3    1   17 1
     4    1   18 1
     5    2    3 1
     6    2    4 1
     7    2   32 1
     8    3   19 1
     9    3   20 1
    10    3   21 1
    11    4    5 1
    12    4   22 1
    13    4   23 1
    14    5    6 1
    15    5   24 1
    16    5   25 1
    17    6    7 1
    18    7    8 2
    19    7    9 1
    20    9   14 ar
    21    9   10 ar
    22   10   11 ar
    23   10   26 1
    24   11   12 ar
    25   11   27 1
    26   12   13 ar
    27   12   15 1
    28   13   14 ar
    29   13   28 1
    30   14   29 1
    31   15   30 1
    32   15   31 1
