@<TRIPOS>MOLECULE
ZINC20148984
   41    45     0     0     0
SMALL
USER_CHARGES
1-cyclopentyl-3-(1H-pyrrolo[3,2-e]pyridin-5-yl)pyrazolo[4,5-e]pyrimidin-4-amine
@<TRIPOS>ATOM
      1 C1          4.4845    4.9055    2.0125 C.2       1 <0>        -0.1900
      2 C2          5.5992    4.3307    1.5348 C.2       1 <0>         0.0669
      3 N1          5.2848    3.4893    0.5015 N.pl3     1 <0>        -0.5784
      4 H1          5.9256    2.9627   -0.0014 H         1 <0>         0.4233
      5 C3          3.9281    3.5001    0.2812 C.ar      1 <0>         0.2921
      6 C4          3.3669    4.3889    1.2195 C.ar      1 <0>        -0.1505
      7 C5          1.9890    4.6049    1.2249 C.ar      1 <0>         0.0123
      8 C6          1.2154    3.9130    0.2940 C.ar      1 <0>        -0.1086
      9 C7          1.8449    3.0477   -0.6050 C.ar      1 <0>         0.1517
     10 N2          3.1471    2.8701   -0.5872 N.ar      1 <0>        -0.4865
     11 C8         -0.2553    4.0974    0.2542 C.2       1 <0>         0.1769
     12 C9         -1.2579    3.0400    0.1283 C.ar      1 <0>        -0.3246
     13 C10        -1.2161    1.6416    0.0009 C.ar      1 <0>         0.5185
     14 N3         -2.3661    0.9828   -0.1017 N.ar      1 <0>        -0.6042
     15 C11        -3.5224    1.6223   -0.0898 C.ar      1 <0>         0.3863
     16 N4         -3.6100    2.9293    0.0228 N.ar      1 <0>        -0.5738
     17 C12        -2.5123    3.6779    0.1313 C.ar      1 <0>         0.3755
     18 N5         -2.2765    5.0144    0.2581 N.pl3     1 <0>        -0.3684
     19 N6         -0.8976    5.2388    0.3304 N.2       1 <0>        -0.2292
     20 C13        -3.3071    6.0542    0.3110 C.3       1 <0>         0.1632
     21 C14        -3.0862    7.0753   -0.8240 C.3       1 <0>        -0.1330
     22 C15        -3.4640    8.4369   -0.1879 C.3       1 <0>        -0.1220
     23 C16        -2.9184    8.3038    1.2556 C.3       1 <0>        -0.1210
     24 C17        -3.2009    6.8348    1.6328 C.3       1 <0>        -0.1322
     25 N7         -0.0104    0.9674   -0.0117 N.pl3     1 <0>        -0.8291
     26 H2          4.4234    5.6137    2.8256 H         1 <0>         0.1556
     27 H3          6.5967    4.5059    1.9100 H         1 <0>         0.1829
     28 H4          1.5348    5.2845    1.9308 H         1 <0>         0.1424
     29 H5          1.2485    2.5132   -1.3297 H         1 <0>         0.1671
     30 H6         -4.4328    1.0478   -0.1756 H         1 <0>         0.2050
     31 H7         -4.2959    5.6044    0.2215 H         1 <0>         0.1144
     32 H8         -2.0422    7.0775   -1.1374 H         1 <0>         0.0814
     33 H9         -3.7386    6.8539   -1.6687 H         1 <0>         0.0742
     34 H10        -4.5455    8.5726   -0.1810 H         1 <0>         0.0720
     35 H11        -2.9740    9.2575   -0.7119 H         1 <0>         0.0733
     36 H12        -3.4484    8.9788    1.9276 H         1 <0>         0.0704
     37 H13        -1.8473    8.5043    1.2786 H         1 <0>         0.0705
     38 H14        -4.1384    6.7646    2.1843 H         1 <0>         0.0772
     39 H15        -2.3825    6.4400    2.2349 H         1 <0>         0.0748
     40 H16         0.0305    0.0526   -0.3317 H         1 <0>         0.4120
     41 H17         0.7961    1.4102    0.2956 H         1 <0>         0.4116
@<TRIPOS>BOND
     1    1    6 1
     2    1    2 2
     3    1   26 1
     4    2    3 1
     5    2   27 1
     6    3    4 1
     7    3    5 1
     8    5   10 ar
     9    5    6 ar
    10    6    7 ar
    11    7    8 ar
    12    7   28 1
    13    8    9 ar
    14    8   11 1
    15    9   10 ar
    16    9   29 1
    17   11   19 2
    18   11   12 1
    19   12   17 ar
    20   12   13 ar
    21   13   14 ar
    22   13   25 1
    23   14   15 ar
    24   15   16 ar
    25   15   30 1
    26   16   17 ar
    27   17   18 1
    28   18   19 1
    29   18   20 1
    30   20   24 1
    31   20   21 1
    32   20   31 1
    33   21   22 1
    34   21   32 1
    35   21   33 1
    36   22   23 1
    37   22   34 1
    38   22   35 1
    39   23   24 1
    40   23   36 1
    41   23   37 1
    42   24   38 1
    43   24   39 1
    44   25   40 1
    45   25   41 1
@<TRIPOS>MOLECULE
ZINC36377992
   41    43     0     0     0
SMALL
USER_CHARGES

@<TRIPOS>ATOM
      1 C1         -0.4515    0.6754    0.2601 C.ar      1 <0>        -0.0384
      2 C2          0.6760    0.9916   -0.4750 C.ar      1 <0>        -0.1566
      3 C3          1.7918    0.1756   -0.4188 C.ar      1 <0>         0.1477
      4 C4          1.7785   -0.9629    0.3780 C.ar      1 <0>         0.0226
      5 C5          0.6435   -1.2771    1.1157 C.ar      1 <0>         0.1464
      6 C6         -0.4686   -0.4565    1.0540 C.ar      1 <0>        -0.1570
      7 F1          0.6257   -2.3831    1.8915 F         1 <0>        -0.1144
      8 N1          2.9080   -1.7932    0.4373 N.am      1 <0>        -0.5048
      9 C7          3.8916   -1.5617    1.3921 C.ar      1 <0>         0.4090
     10 C8          3.6937   -0.5728    2.3546 C.ar      1 <0>        -0.2052
     11 C9          4.6693   -0.3428    3.3021 C.ar      1 <0>        -0.0088
     12 C10         5.8358   -1.1196    3.2623 C.ar      1 <0>        -0.2080
     13 C11         5.9664   -2.1000    2.2617 C.ar      1 <0>         0.2617
     14 N2          4.9981   -2.2874    1.3759 N.ar      1 <0>        -0.4541
     15 C12         7.1899   -2.9309    2.2011 C.ar      1 <0>        -0.0596
     16 C13         7.2993   -4.0749    2.9922 C.ar      1 <0>        -0.0259
     17 C14         8.4405   -4.8460    2.9321 C.ar      1 <0>        -0.1576
     18 C15         9.4800   -4.4874    2.0872 C.ar      1 <0>         0.1374
     19 C16         9.3790   -3.3530    1.2992 C.ar      1 <0>        -0.1885
     20 C17         8.2371   -2.5757    1.3471 C.ar      1 <0>         0.1638
     21 F2          8.1362   -1.4722    0.5743 F         1 <0>        -0.1281
     22 F3         10.5957   -5.2473    2.0329 F         1 <0>        -0.1310
     23 C18         6.9076   -0.9123    4.2518 C.2       1 <0>         0.5688
     24 O1          7.9558   -1.5203    4.1492 O.2       1 <0>        -0.5180
     25 N3          6.7262   -0.0488    5.2707 N.am      1 <0>        -0.8501
     26 C19         3.0394   -2.8152   -0.4315 C.2       1 <0>         0.7040
     27 O2          4.0180   -3.5346   -0.3802 O.2       1 <0>        -0.5065
     28 N4          2.0858   -3.0396   -1.3572 N.am      1 <0>        -0.8545
     29 F4          2.8928    0.4848   -1.1381 F         1 <0>        -0.1138
     30 H1         -1.3196    1.3165    0.2175 H         1 <0>         0.1561
     31 H2          0.6857    1.8765   -1.0940 H         1 <0>         0.1561
     32 H3         -1.3511   -0.7001    1.6270 H         1 <0>         0.1561
     33 H4          2.7838    0.0089    2.3580 H         1 <0>         0.1421
     34 H5          4.5379    0.4183    4.0570 H         1 <0>         0.1497
     35 H6          6.4911   -4.3559    3.6512 H         1 <0>         0.1382
     36 H7          8.5253   -5.7313    3.5447 H         1 <0>         0.1450
     37 H8         10.1916   -3.0779    0.6432 H         1 <0>         0.1500
     38 H9          5.8902    0.4361    5.3525 H         1 <0>         0.3988
     39 H10         7.4318    0.0877    5.9221 H         1 <0>         0.4086
     40 H11         1.3050   -2.4656   -1.3981 H         1 <0>         0.3955
     41 H12         2.1804   -3.7751   -1.9825 H         1 <0>         0.4233
@<TRIPOS>BOND
     1    1    6 ar
     2    1    2 ar
     3    1   30 1
     4    2    3 ar
     5    2   31 1
     6    3    4 ar
     7    3   29 1
     8    4    5 ar
     9    4    8 1
    10    5    6 ar
    11    5    7 1
    12    6   32 1
    13    8    9 1
    14    8   26 am
    15    9   14 ar
    16    9   10 ar
    17   10   11 ar
    18   10   33 1
    19   11   12 ar
    20   11   34 1
    21   12   13 ar
    22   12   23 1
    23   13   14 ar
    24   13   15 1
    25   15   20 ar
    26   15   16 ar
    27   16   17 ar
    28   16   35 1
    29   17   18 ar
    30   17   36 1
    31   18   19 ar
    32   18   22 1
    33   19   20 ar
    34   19   37 1
    35   20   21 1
    36   23   24 2
    37   23   25 am
    38   25   38 1
    39   25   39 1
    40   26   27 2
    41   26   28 am
    42   28   40 1
    43   28   41 1
@<TRIPOS>MOLECULE
ZINC20148983
   39    42     0     0     0
SMALL
USER_CHARGES
1-isopropyl-3-(6-quinolyl)pyrazolo[4,5-e]pyrimidin-4-amine
@<TRIPOS>ATOM
      1 C1          1.0254    8.7978   -2.0248 C.3       1 <0>        -0.1621
      2 C2          1.2018    8.9153   -0.5095 C.3       1 <0>         0.1606
      3 C3         -0.1710    9.0289    0.1564 C.3       1 <0>        -0.1621
      4 N1          1.8926    7.7262   -0.0046 N.pl3     1 <0>        -0.3691
      5 C4          3.0880    7.7288    0.6508 C.ar      1 <0>         0.3756
      6 C5          3.3891    6.3885    0.9574 C.ar      1 <0>        -0.3235
      7 C6          2.2832    5.5859    0.4354 C.2       1 <0>         0.1611
      8 N2          1.4309    6.4112   -0.1252 N.2       1 <0>        -0.2249
      9 C7          2.1525    4.1119    0.5188 C.ar      1 <0>        -0.0128
     10 C8          1.7465    3.3824   -0.6110 C.ar      1 <0>        -0.0754
     11 C9          1.6190    2.0318   -0.5611 C.ar      1 <0>        -0.0829
     12 C10         1.8956    1.3409    0.6333 C.ar      1 <0>         0.1347
     13 C11         2.3061    2.0687    1.7786 C.ar      1 <0>        -0.1018
     14 C12         2.4317    3.4637    1.7084 C.ar      1 <0>        -0.0831
     15 C13         2.5804    1.3697    2.9700 C.ar      1 <0>        -0.0542
     16 C14         2.4374    0.0111    2.9678 C.ar      1 <0>        -0.1718
     17 C15         2.0303   -0.6425    1.8073 C.ar      1 <0>         0.1391
     18 N3          1.7757    0.0115    0.6997 N.ar      1 <0>        -0.4734
     19 C16         4.5832    6.1084    1.6415 C.ar      1 <0>         0.5181
     20 N4          5.3762    7.1241    1.9688 N.ar      1 <0>        -0.6038
     21 C17         5.0541    8.3678    1.6609 C.ar      1 <0>         0.3865
     22 N5          3.9473    8.6775    1.0220 N.ar      1 <0>        -0.5731
     23 N6          4.9255    4.8098    1.9657 N.pl3     1 <0>        -0.8303
     24 H1          2.0034    8.7169   -2.4992 H         1 <0>         0.0603
     25 H2          0.4358    7.9102   -2.2542 H         1 <0>         0.0702
     26 H3          0.5114    9.6825   -2.4004 H         1 <0>         0.0791
     27 H4          1.7914    9.8029   -0.2801 H         1 <0>         0.1120
     28 H5         -0.0453    9.1126    1.2359 H         1 <0>         0.0600
     29 H6         -0.6850    9.9136   -0.2192 H         1 <0>         0.0791
     30 H7         -0.7606    8.1413   -0.0730 H         1 <0>         0.0701
     31 H8          1.5326    3.9036   -1.5325 H         1 <0>         0.1376
     32 H9          1.3057    1.4868   -1.4393 H         1 <0>         0.1440
     33 H10         2.7434    4.0269    2.5755 H         1 <0>         0.1398
     34 H11         2.8910    1.8936    3.8619 H         1 <0>         0.1419
     35 H12         2.6394   -0.5553    3.8649 H         1 <0>         0.1418
     36 H13         1.9210   -1.7169    1.8201 H         1 <0>         0.1629
     37 H14         5.7273    9.1628    1.9460 H         1 <0>         0.2058
     38 H15         4.4796    4.0672    1.5292 H         1 <0>         0.4125
     39 H16         5.6119    4.6406    2.6300 H         1 <0>         0.4110
@<TRIPOS>BOND
     1    1    2 1
     2    1   24 1
     3    1   25 1
     4    1   26 1
     5    2    3 1
     6    2    4 1
     7    2   27 1
     8    3   28 1
     9    3   29 1
    10    3   30 1
    11    4    8 1
    12    4    5 1
    13    5   22 ar
    14    5    6 ar
    15    6    7 1
    16    6   19 ar
    17    7    8 2
    18    7    9 1
    19    9   14 ar
    20    9   10 ar
    21   10   11 ar
    22   10   31 1
    23   11   12 ar
    24   11   32 1
    25   12   18 ar
    26   12   13 ar
    27   13   14 ar
    28   13   15 ar
    29   14   33 1
    30   15   16 ar
    31   15   34 1
    32   16   17 ar
    33   16   35 1
    34   17   18 ar
    35   17   36 1
    36   19   20 ar
    37   19   23 1
    38   20   21 ar
    39   21   22 ar
    40   21   37 1
    41   23   38 1
    42   23   39 1
@<TRIPOS>MOLECULE
ZINC08581906
   35    37     0     0     0
SMALL
USER_CHARGES

@<TRIPOS>ATOM
      1 C1          0.4062    0.7134    0.7743 C.3       1 <0>        -0.1622
      2 C2          0.2062   -0.7227    0.2861 C.3       1 <0>         0.1603
      3 C3          0.8807   -1.6910    1.2599 C.3       1 <0>        -0.1622
      4 N1         -1.2267   -1.0197    0.2161 N.pl3     1 <0>        -0.3682
      5 C4         -1.9008   -1.3860   -0.9107 C.ar      1 <0>         0.3764
      6 C5         -3.2452   -1.5750   -0.5394 C.ar      1 <0>        -0.3225
      7 C6         -3.3224   -1.2938    0.8939 C.2       1 <0>         0.1576
      8 N2         -2.1144   -0.9772    1.2964 N.2       1 <0>        -0.2230
      9 C7         -4.5398   -1.3596    1.7373 C.ar      1 <0>         0.0119
     10 C8         -5.4110   -2.4425    1.6242 C.ar      1 <0>        -0.1154
     11 C9         -6.5434   -2.5019    2.4107 C.ar      1 <0>        -0.0699
     12 C10        -6.8177   -1.4892    3.3123 C.ar      1 <0>        -0.1122
     13 C11        -5.9551   -0.4073    3.4309 C.ar      1 <0>         0.1435
     14 C12        -4.8137   -0.3425    2.6492 C.ar      1 <0>        -0.1062
     15 O1         -6.2283    0.5856    4.3181 O.3       1 <0>        -0.4823
     16 Br1        -8.3720   -1.5780    4.3858 Br        1 <0>        -0.0262
     17 C13        -4.1663   -1.9613   -1.5268 C.ar      1 <0>         0.5186
     18 N3         -3.7252   -2.1311   -2.7695 N.ar      1 <0>        -0.6031
     19 C14        -2.4536   -1.9426   -3.0738 C.ar      1 <0>         0.3877
     20 N4         -1.5560   -1.5814   -2.1832 N.ar      1 <0>        -0.5731
     21 N5         -5.4973   -2.1603   -1.2145 N.pl3     1 <0>        -0.8288
     22 H1          1.4723    0.9344    0.8264 H         1 <0>         0.0796
     23 H2         -0.0744    1.4033    0.0805 H         1 <0>         0.0606
     24 H3         -0.0369    0.8258    1.7638 H         1 <0>         0.0698
     25 H4          0.6493   -0.8351   -0.7034 H         1 <0>         0.1127
     26 H5          0.4376   -1.5786    2.2494 H         1 <0>         0.0699
     27 H6          0.7383   -2.7142    0.9121 H         1 <0>         0.0604
     28 H7          1.9468   -1.4701    1.3120 H         1 <0>         0.0794
     29 H8         -5.1997   -3.2345    0.9210 H         1 <0>         0.1438
     30 H9         -7.2175   -3.3410    2.3219 H         1 <0>         0.1472
     31 H10        -4.1397    0.4960    2.7436 H         1 <0>         0.1455
     32 H11        -5.8524    0.4419    5.1973 H         1 <0>         0.3991
     33 H12        -2.1380   -2.0919   -4.0958 H         1 <0>         0.2063
     34 H13        -5.8559   -1.8196   -0.3801 H         1 <0>         0.4127
     35 H14        -6.0732   -2.6406   -1.8297 H         1 <0>         0.4121
@<TRIPOS>BOND
     1    1    2 1
     2    1   22 1
     3    1   23 1
     4    1   24 1
     5    2    3 1
     6    2    4 1
     7    2   25 1
     8    3   26 1
     9    3   27 1
    10    3   28 1
    11    4    8 1
    12    4    5 1
    13    5   20 ar
    14    5    6 ar
    15    6    7 1
    16    6   17 ar
    17    7    8 2
    18    7    9 1
    19    9   14 ar
    20    9   10 ar
    21   10   11 ar
    22   10   29 1
    23   11   12 ar
    24   11   30 1
    25   12   13 ar
    26   12   16 1
    27   13   14 ar
    28   13   15 1
    29   14   31 1
    30   15   32 1
    31   17   18 ar
    32   17   21 1
    33   18   19 ar
    34   19   20 ar
    35   19   33 1
    36   21   34 1
    37   21   35 1
@<TRIPOS>MOLECULE
ZINC36056301
   39    42     0     0     0
SMALL
USER_CHARGES

@<TRIPOS>ATOM
      1 C1          0.9254    1.9991    0.1115 C.3       1 <0>        -0.1625
      2 C2          0.5644    0.5164    0.0017 C.3       1 <0>         0.1602
      3 C3         -0.9547    0.3678   -0.1037 C.3       1 <0>        -0.1630
      4 N1          1.1948   -0.0526   -1.1921 N.pl3     1 <0>        -0.3660
      5 C4          2.0845   -1.0857   -1.1960 C.ar      1 <0>         0.3791
      6 C5          2.4399   -1.3150   -2.5382 C.ar      1 <0>        -0.3289
      7 C6          1.6949   -0.3401   -3.3365 C.2       1 <0>         0.1761
      8 N2          0.9724    0.3761   -2.5050 N.2       1 <0>        -0.2098
      9 C7          1.7418   -0.1929   -4.8056 C.2       1 <0>         0.1339
     10 C8          0.6708    0.0518   -5.6025 C.2       1 <0>        -0.1346
     11 C9          1.1678    0.1218   -6.9754 C.ar      1 <0>        -0.0943
     12 C10         0.5575    0.3431   -8.2141 C.ar      1 <0>        -0.0897
     13 C11         1.3249    0.3481   -9.3611 C.ar      1 <0>         0.0805
     14 C12         2.6992    0.1341   -9.2873 C.ar      1 <0>        -0.1109
     15 C13         3.3112   -0.0854   -8.0732 C.ar      1 <0>        -0.1139
     16 C14         2.5568   -0.0941   -6.9049 C.ar      1 <0>         0.1038
     17 N3          2.8789   -0.2768   -5.5757 N.pl3     1 <0>        -0.5932
     18 H1          3.7722   -0.4418   -5.2356 H         1 <0>         0.4168
     19 O1          0.7369    0.5623  -10.5684 O.3       1 <0>        -0.4967
     20 C15         3.3555   -2.3402   -2.8244 C.ar      1 <0>         0.5168
     21 N4          3.8460   -3.0492   -1.8121 N.ar      1 <0>        -0.6021
     22 C16         3.4845   -2.7997   -0.5663 C.ar      1 <0>         0.3889
     23 N5          2.6311   -1.8502   -0.2510 N.ar      1 <0>        -0.5714
     24 N6          3.7369   -2.6060   -4.1255 N.pl3     1 <0>        -0.8317
     25 H2          2.0076    2.1050    0.1866 H         1 <0>         0.0602
     26 H3          0.5693    2.5263   -0.7736 H         1 <0>         0.0709
     27 H4          0.4564    2.4224    0.9997 H         1 <0>         0.0802
     28 H5          0.9205   -0.0108    0.8868 H         1 <0>         0.1134
     29 H6         -1.3108    0.8949   -0.9888 H         1 <0>         0.0712
     30 H7         -1.2119   -0.6886   -0.1820 H         1 <0>         0.0610
     31 H8         -1.4237    0.7911    0.7845 H         1 <0>         0.0801
     32 H9         -0.3538    0.1719   -5.2829 H         1 <0>         0.1573
     33 H10        -0.5081    0.5089   -8.2728 H         1 <0>         0.1338
     34 H11         3.2906    0.1399  -10.1910 H         1 <0>         0.1358
     35 H12         4.3776   -0.2505   -8.0283 H         1 <0>         0.1290
     36 H13         0.6969    1.4933  -10.8268 H         1 <0>         0.3892
     37 H14         3.9074   -3.3999    0.2258 H         1 <0>         0.2077
     38 H15         3.2729   -2.1806   -4.8634 H         1 <0>         0.4091
     39 H16         4.4688   -3.2179   -4.3009 H         1 <0>         0.4134
@<TRIPOS>BOND
     1    1    2 1
     2    1   25 1
     3    1   26 1
     4    1   27 1
     5    2    3 1
     6    2    4 1
     7    2   28 1
     8    3   29 1
     9    3   30 1
    10    3   31 1
    11    4    8 1
    12    4    5 1
    13    5   23 ar
    14    5    6 ar
    15    6    7 1
    16    6   20 ar
    17    7    8 2
    18    7    9 1
    19    9   17 1
    20    9   10 2
    21   10   11 1
    22   10   32 1
    23   11   16 ar
    24   11   12 ar
    25   12   13 ar
    26   12   33 1
    27   13   14 ar
    28   13   19 1
    29   14   15 ar
    30   14   34 1
    31   15   16 ar
    32   15   35 1
    33   16   17 1
    34   17   18 1
    35   19   36 1
    36   20   21 ar
    37   20   24 1
    38   21   22 ar
    39   22   23 ar
    40   22   37 1
    41   24   38 1
    42   24   39 1
@<TRIPOS>MOLECULE
ZINC36056301
   40    43     0     0     0
SMALL
NO_CHARGES

@<TRIPOS>ATOM
      1 C1          0.4668   -0.4939    1.1218 C.3       1 <0>        -0.1699
      2 C2          0.3340   -1.7615    0.2754 C.3       1 <0>         0.1613
      3 C3          1.1061   -2.9024    0.9410 C.3       1 <0>        -0.1701
      4 N1         -1.0799   -2.1284    0.1641 N.pl3     1 <0>        -0.3634
      5 C4         -1.7908   -2.2350   -1.0057 C.ar      1 <0>         0.4043
      6 C5         -3.1109   -2.6092   -0.6652 C.ar      1 <0>        -0.2157
      7 C6         -4.0447   -2.7836   -1.7054 C.ar      1 <0>         0.3985
      8 N2         -3.6387   -2.5876   -2.9589 N.ar      1 <0>        -0.5485
      9 C7         -2.3961   -2.2391   -3.2258 C.ar      1 <0>         0.3110
     10 N3         -1.4867   -2.0641   -2.2858 N.ar      1 <0>        -0.5580
     11 N4         -5.3440   -3.1479   -1.4334 N.pl3     1 <0>        -0.8571
     12 C8         -3.1685   -2.7231    0.7407 C.2       1 <0>         0.1060
     13 C9         -4.3454   -3.0906    1.5281 C.2       1 <0>         0.1145
     14 C10        -4.5167   -2.8192    2.8889 C.2       1 <0>        -0.1932
     15 C11        -5.7650   -3.3339    3.2429 C.ar      1 <0>        -0.0803
     16 C12        -6.5191   -3.3917    4.4278 C.ar      1 <0>        -0.1106
     17 C13        -7.7442   -3.9909    4.4147 C.ar      1 <0>         0.0839
     18 C14        -8.2689   -4.5512    3.2463 C.ar      1 <0>        -0.1283
     19 C15        -7.5862   -4.5260    2.0714 C.ar      1 <0>        -0.1066
     20 C16        -6.3164   -3.9222    2.0150 C.ar      1 <0>         0.0610
     21 N5         -5.4208   -3.7321    1.0501 N.pl3     1 <0>        -0.5313
     22 O1         -8.4709   -4.0448    5.5631 O.3       1 <0>        -0.5017
     23 N6         -1.9318   -2.4352    1.2329 N.pl3     1 <0>        -0.4440
     24 H1          1.5188   -0.2209    1.2046 H         1 <0>         0.0835
     25 H2         -0.0832    0.3190    0.6476 H         1 <0>         0.0676
     26 H3          0.0595   -0.6766    2.1162 H         1 <0>         0.0606
     27 H4          0.7413   -1.5787   -0.7190 H         1 <0>         0.1243
     28 H5          1.0115   -3.8055    0.3380 H         1 <0>         0.0673
     29 H6          2.1581   -2.6294    1.0238 H         1 <0>         0.0835
     30 H7          0.6988   -3.0851    1.9354 H         1 <0>         0.0606
     31 H8         -2.1102   -2.0906   -4.2566 H         1 <0>         0.1998
     32 H9         -5.8197   -2.7336   -0.6966 H         1 <0>         0.4069
     33 H10        -5.7838   -3.8189   -1.9786 H         1 <0>         0.4071
     34 H11        -3.8197   -2.3112    3.5389 H         1 <0>         0.1445
     35 H12        -6.1313   -2.9654    5.3413 H         1 <0>         0.1279
     36 H13        -9.2428   -5.0169    3.2782 H         1 <0>         0.1286
     37 H14        -8.0164   -4.9676    1.1847 H         1 <0>         0.1247
     38 H15        -9.0572   -3.2870    5.6936 H         1 <0>         0.3860
     39 H16        -1.6823   -2.4395    2.1702 H         1 <0>         0.4490
     40 H17        -5.5296   -4.0197    0.1301 H         1 <0>         0.4163
@<TRIPOS>BOND
     1    1    2 1
     2    1   24 1
     3    1   25 1
     4    1   26 1
     5    2    3 1
     6    2    4 1
     7    2   27 1
     8    3   28 1
     9    3   29 1
    10    3   30 1
    11    4   23 1
    12    4    5 1
    13    5   10 ar
    14    5    6 ar
    15    6    7 ar
    16    6   12 1
    17    7    8 ar
    18    7   11 1
    19    8    9 ar
    20    9   10 ar
    21    9   31 1
    22   11   32 1
    23   11   33 1
    24   12   13 2
    25   12   23 1
    26   13   21 1
    27   13   14 1
    28   14   15 2
    29   14   34 1
    30   15   20 ar
    31   15   16 ar
    32   16   17 ar
    33   16   35 1
    34   17   18 ar
    35   17   22 1
    36   18   19 ar
    37   18   36 1
    38   19   20 ar
    39   19   37 1
    40   20   21 2
    41   21   40 1
    42   22   38 1
    43   23   39 1
@<TRIPOS>MOLECULE
ZINC64521265
   46    49     0     0     0
SMALL
USER_CHARGES

@<TRIPOS>ATOM
      1 C1          0.3476   -2.5642    0.7938 C.3       1 <0>        -0.1628
      2 C2         -0.3724   -2.4367   -0.5502 C.3       1 <0>         0.1606
      3 C3         -0.6891   -3.8315   -1.0934 C.3       1 <0>        -0.1622
      4 N1         -1.6190   -1.6892   -0.3674 N.pl3     1 <0>        -0.3682
      5 C4         -1.9328   -0.5173   -0.9891 C.ar      1 <0>         0.3758
      6 C5         -3.2117   -0.1436   -0.5353 C.ar      1 <0>        -0.3225
      7 C6         -3.6371   -1.1809    0.4040 C.2       1 <0>         0.1593
      8 N2         -2.6746   -2.0702    0.4677 N.2       1 <0>        -0.2224
      9 C7         -4.9218   -1.2229    1.1432 C.ar      1 <0>        -0.0245
     10 C8         -6.1183   -0.9455    0.4812 C.ar      1 <0>        -0.0801
     11 C9         -7.3162   -0.9844    1.1672 C.ar      1 <0>        -0.1161
     12 C10        -7.3388   -1.2973    2.5117 C.ar      1 <0>        -0.0731
     13 C11        -6.1481   -1.5766    3.1861 C.ar      1 <0>        -0.1285
     14 C12        -4.9368   -1.5447    2.4966 C.ar      1 <0>        -0.0211
     15 C13        -6.1728   -1.9106    4.6256 C.2       1 <0>         0.5570
     16 O1         -5.1357   -2.1534    5.2109 O.2       1 <0>        -0.4587
     17 N3         -7.3453   -1.9460    5.2893 N.am      1 <0>        -0.6240
     18 C14        -7.3683   -2.2582    6.6345 C.2       1 <0>         0.4093
     19 N4         -6.3504   -2.5344    7.3965 N.2       1 <0>        -0.5323
     20 C15        -6.5264   -2.8706    8.7976 C.3       1 <0>         0.0491
     21 C16        -7.9176   -2.4104    9.3123 C.3       1 <0>        -0.0885
     22 S1         -8.8003   -2.3601    7.6961 S.3       1 <0>        -0.2223
     23 C17        -3.7785    1.0433   -1.0279 C.ar      1 <0>         0.5179
     24 N5         -3.0796    1.7609   -1.9021 N.ar      1 <0>        -0.6035
     25 C18        -1.8816    1.3723   -2.3010 C.ar      1 <0>         0.3866
     26 N6         -1.3117    0.2693   -1.8675 N.ar      1 <0>        -0.5726
     27 N7         -5.0310    1.4545   -0.6148 N.pl3     1 <0>        -0.8297
     28 H1          1.2751   -3.1204    0.6578 H         1 <0>         0.0793
     29 H2          0.5732   -1.5705    1.1808 H         1 <0>         0.0605
     30 H3         -0.2926   -3.0925    1.5003 H         1 <0>         0.0708
     31 H4          0.2678   -1.9084   -1.2566 H         1 <0>         0.1123
     32 H5         -1.2020   -3.7407   -2.0509 H         1 <0>         0.0601
     33 H6          0.2384   -4.3877   -1.2294 H         1 <0>         0.0792
     34 H7         -1.3293   -4.3598   -0.3870 H         1 <0>         0.0703
     35 H8         -6.1075   -0.6993   -0.5703 H         1 <0>         0.1397
     36 H9         -8.2394   -0.7687    0.6498 H         1 <0>         0.1436
     37 H10        -8.2787   -1.3258    3.0429 H         1 <0>         0.1334
     38 H11        -4.0135   -1.7645    3.0120 H         1 <0>         0.1460
     39 H12        -8.1730   -1.7523    4.8221 H         1 <0>         0.4258
     40 H13        -6.4387   -3.9501    8.9203 H         1 <0>         0.1010
     41 H14        -5.7483   -2.3813    9.3834 H         1 <0>         0.1095
     42 H15        -8.3569   -3.1421    9.9903 H         1 <0>         0.1289
     43 H16        -7.8696   -1.4222    9.7696 H         1 <0>         0.1075
     44 H17        -1.3485    1.9855   -3.0124 H         1 <0>         0.2059
     45 H18        -5.4326    1.0649    0.1775 H         1 <0>         0.4118
     46 H19        -5.5089    2.1329   -1.1171 H         1 <0>         0.4117
@<TRIPOS>BOND
     1    1    2 1
     2    1   28 1
     3    1   29 1
     4    1   30 1
     5    2    3 1
     6    2    4 1
     7    2   31 1
     8    3   32 1
     9    3   33 1
    10    3   34 1
    11    4    8 1
    12    4    5 1
    13    5   26 ar
    14    5    6 ar
    15    6    7 1
    16    6   23 ar
    17    7    8 2
    18    7    9 1
    19    9   14 ar
    20    9   10 ar
    21   10   11 ar
    22   10   35 1
    23   11   12 ar
    24   11   36 1
    25   12   13 ar
    26   12   37 1
    27   13   14 ar
    28   13   15 1
    29   14   38 1
    30   15   16 2
    31   15   17 am
    32   17   18 1
    33   17   39 1
    34   18   22 1
    35   18   19 2
    36   19   20 1
    37   20   21 1
    38   20   40 1
    39   20   41 1
    40   21   22 1
    41   21   42 1
    42   21   43 1
    43   23   24 ar
    44   23   27 1
    45   24   25 ar
    46   25   26 ar
    47   25   44 1
    48   27   45 1
    49   27   46 1
@<TRIPOS>MOLECULE
ZINC64539506
   73    79     0     0     0
SMALL
USER_CHARGES

@<TRIPOS>ATOM
      1 C1         -0.8034    1.1981   -2.0475 C.3       1 <0>        -0.1373
      2 C2         -0.9132   -0.3251   -1.9533 C.3       1 <0>        -0.1439
      3 C3         -1.8869   -0.6921   -0.8632 C.2       1 <0>         0.5116
      4 O1         -2.4388    0.1788   -0.2246 O.2       1 <0>        -0.5400
      5 N1         -2.1445   -1.9882   -0.5981 N.am      1 <0>        -0.6057
      6 C4         -1.4786   -3.0541   -1.3597 C.3       1 <0>         0.0914
      7 C5         -0.7731   -3.9935   -0.3738 C.3       1 <0>         0.1227
      8 N2         -1.7246   -4.3662    0.6825 N.pl3     1 <0>        -0.6412
      9 C6         -2.3905   -3.3002    1.4441 C.3       1 <0>         0.0982
     10 C7         -3.0917   -2.3609    0.4620 C.3       1 <0>         0.0636
     11 C8         -1.9917   -5.7105    0.9575 C.ar      1 <0>         0.2762
     12 C9         -0.9536   -6.5704    1.2942 C.ar      1 <0>        -0.1610
     13 C10        -1.2176   -7.8974    1.5661 C.ar      1 <0>        -0.0493
     14 C11        -2.5211   -8.3734    1.5033 C.ar      1 <0>         0.0715
     15 C12        -3.5587   -7.5142    1.1664 C.ar      1 <0>        -0.0251
     16 C13        -3.2958   -6.1854    0.8999 C.ar      1 <0>        -0.2300
     17 C14        -4.4227   -5.2515    0.5409 C.3       1 <0>         0.5187
     18 F1         -5.5990   -5.9873    0.3618 F         1 <0>        -0.1736
     19 F2         -4.6056   -4.3235    1.5717 F         1 <0>        -0.1666
     20 F3         -4.1097   -4.5767   -0.6439 F         1 <0>        -0.1590
     21 N3         -2.7889   -9.7207    1.7794 N.am      1 <0>        -0.4580
     22 C15        -3.0107  -10.5803    0.7663 C.2       1 <0>         0.5296
     23 O2         -2.9762  -10.1764   -0.3836 O.2       1 <0>        -0.5112
     24 C16        -3.2818  -11.9407    1.0174 C.2       1 <0>        -0.2197
     25 C17        -3.3235  -12.4049    2.2923 C.2       1 <0>         0.0019
     26 C18        -3.0911  -11.5032    3.3608 C.ar      1 <0>        -0.1955
     27 C19        -2.8179  -10.1560    3.0758 C.ar      1 <0>         0.2428
     28 C20        -2.5848   -9.2810    4.1622 C.ar      1 <0>        -0.1182
     29 C21        -2.3121   -7.9243    3.9592 C.ar      1 <0>        -0.1236
     30 C22        -2.0902   -7.1022    5.0517 C.ar      1 <0>        -0.0374
     31 C23        -2.1382   -7.6250    6.3522 C.ar      1 <0>        -0.0785
     32 C24        -2.4020   -8.9415    6.5657 C.ar      1 <0>        -0.0891
     33 C25        -2.6316   -9.8018    5.4788 C.ar      1 <0>         0.1627
     34 N4         -2.8928  -11.1013    5.6841 N.ar      1 <0>        -0.4901
     35 C26        -3.1232  -11.9324    4.7010 C.ar      1 <0>         0.2010
     36 C27        -1.7999   -5.6625    4.8453 C.ar      1 <0>        -0.1016
     37 C28        -1.5923   -4.8284    5.9343 C.ar      1 <0>        -0.0453
     38 C29        -1.3208   -3.4723    5.6840 C.ar      1 <0>        -0.0944
     39 C30        -1.0992   -2.5671    6.7358 C.ar      1 <0>        -0.0959
     40 C31        -0.8385   -1.2607    6.4555 C.ar      1 <0>        -0.1116
     41 C32        -0.7888   -0.8087    5.1382 C.ar      1 <0>        -0.0939
     42 C33        -0.9990   -1.6577    4.0955 C.ar      1 <0>        -0.0952
     43 C34        -1.2702   -3.0147    4.3431 C.ar      1 <0>         0.1182
     44 N5         -1.4790   -3.8675    3.3344 N.ar      1 <0>        -0.4443
     45 C35        -1.7275   -5.1349    3.5462 C.ar      1 <0>         0.0932
     46 H1         -0.0991    1.4635   -2.8359 H         1 <0>         0.0611
     47 H2         -1.7820    1.6193   -2.2775 H         1 <0>         0.0612
     48 H3         -0.4509    1.5965   -1.0961 H         1 <0>         0.0611
     49 H4         -1.2657   -0.7235   -2.9046 H         1 <0>         0.0917
     50 H5          0.0655   -0.7463   -1.7232 H         1 <0>         0.0919
     51 H6         -2.2196   -3.6131   -1.9312 H         1 <0>         0.0768
     52 H7         -0.7449   -2.6165   -2.0367 H         1 <0>         0.0956
     53 H8         -0.4386   -4.8891   -0.8974 H         1 <0>         0.0876
     54 H9          0.0831   -3.4839    0.0682 H         1 <0>         0.0691
     55 H10        -3.1241   -3.7379    2.1211 H         1 <0>         0.1097
     56 H11        -1.6495   -2.7412    2.0156 H         1 <0>         0.1163
     57 H12        -3.4232   -1.4654    0.9877 H         1 <0>         0.0941
     58 H13        -3.9503   -2.8693    0.0232 H         1 <0>         0.0751
     59 H14         0.0599   -6.2005    1.3427 H         1 <0>         0.1551
     60 H15        -0.4106   -8.5659    1.8275 H         1 <0>         0.1467
     61 H16        -4.5721   -7.8845    1.1173 H         1 <0>         0.1487
     62 H17        -3.4573  -12.6157    0.1928 H         1 <0>         0.1630
     63 H18        -3.5312  -13.4462    2.4896 H         1 <0>         0.1550
     64 H19        -2.2745   -7.5207    2.9581 H         1 <0>         0.1643
     65 H20        -1.9630   -6.9732    7.1952 H         1 <0>         0.1371
     66 H21        -2.4352   -9.3272    7.5739 H         1 <0>         0.1467
     67 H22        -3.3290  -12.9695    4.9208 H         1 <0>         0.1769
     68 H23        -1.6383   -5.2094    6.9438 H         1 <0>         0.1431
     69 H24        -1.1358   -2.9058    7.7606 H         1 <0>         0.1315
     70 H25        -0.6683   -0.5656    7.2644 H         1 <0>         0.1300
     71 H26        -0.5805    0.2326    4.9415 H         1 <0>         0.1318
     72 H27        -0.9575   -1.2900    3.0808 H         1 <0>         0.1353
     73 H28        -1.8855   -5.7895    2.7018 H         1 <0>         0.1764
@<TRIPOS>BOND
     1    1    2 1
     2    1   46 1
     3    1   47 1
     4    1   48 1
     5    2    3 1
     6    2   49 1
     7    2   50 1
     8    3    4 2
     9    3    5 am
    10    5   10 1
    11    5    6 1
    12    6    7 1
    13    6   51 1
    14    6   52 1
    15    7    8 1
    16    7   53 1
    17    7   54 1
    18    8    9 1
    19    8   11 1
    20    9   10 1
    21    9   55 1
    22    9   56 1
    23   10   57 1
    24   10   58 1
    25   11   16 ar
    26   11   12 ar
    27   12   13 ar
    28   12   59 1
    29   13   14 ar
    30   13   60 1
    31   14   15 ar
    32   14   21 1
    33   15   16 ar
    34   15   61 1
    35   16   17 1
    36   17   18 1
    37   17   19 1
    38   17   20 1
    39   21   27 1
    40   21   22 am
    41   22   23 2
    42   22   24 1
    43   24   25 2
    44   24   62 1
    45   25   26 1
    46   25   63 1
    47   26   35 ar
    48   26   27 ar
    49   27   28 ar
    50   28   33 ar
    51   28   29 ar
    52   29   30 ar
    53   29   64 1
    54   30   31 ar
    55   30   36 1
    56   31   32 ar
    57   31   65 1
    58   32   33 ar
    59   32   66 1
    60   33   34 ar
    61   34   35 ar
    62   35   67 1
    63   36   45 ar
    64   36   37 ar
    65   37   38 ar
    66   37   68 1
    67   38   43 ar
    68   38   39 ar
    69   39   40 ar
    70   39   69 1
    71   40   41 ar
    72   40   70 1
    73   41   42 ar
    74   41   71 1
    75   42   43 ar
    76   42   72 1
    77   43   44 ar
    78   44   45 ar
    79   45   73 1
@<TRIPOS>MOLECULE
ZINC43154043
   48    51     0     0     0
SMALL
USER_CHARGES

@<TRIPOS>ATOM
      1 C1         -4.2370   -8.6810    0.2591 C.3       1 <0>         0.0402
      2 O1         -5.2414   -7.8807    0.8858 O.3       1 <0>        -0.3083
      3 C2         -5.1728   -6.5393    0.6880 C.ar      1 <0>         0.3030
      4 C3         -6.1186   -5.7097    1.2767 C.ar      1 <0>        -0.1694
      5 C4         -6.0406   -4.3442    1.0695 C.ar      1 <0>        -0.0370
      6 C5         -5.0084   -3.8520    0.2724 C.ar      1 <0>         0.0749
      7 C6         -4.1005   -4.7415   -0.2823 C.ar      1 <0>         0.1137
      8 N1         -4.2036   -6.0378   -0.0581 N.ar      1 <0>        -0.5202
      9 N2         -4.8900   -2.4770    0.0346 N.pl3     1 <0>        -0.6438
     10 C7         -6.0272   -1.6894   -0.0608 C.ar      1 <0>         0.4764
     11 C8         -5.9196   -0.3039   -0.1708 C.ar      1 <0>        -0.3335
     12 C9         -7.0901    0.4457   -0.2639 C.ar      1 <0>         0.3131
     13 N3         -8.2659   -0.1836   -0.2449 N.ar      1 <0>        -0.6001
     14 C10        -8.3274   -1.5014   -0.1392 C.ar      1 <0>         0.6160
     15 N4         -7.2351   -2.2464   -0.0541 N.ar      1 <0>        -0.6192
     16 N5         -9.5662   -2.1185   -0.1228 N.pl3     1 <0>        -0.5851
     17 C11       -10.8056   -1.3321   -0.2271 C.3       1 <0>         0.0943
     18 C12       -11.6771   -1.9470   -1.3281 C.3       1 <0>         0.0461
     19 O2        -11.8321   -3.3462   -1.0794 O.3       1 <0>        -0.3792
     20 C13       -10.6090   -4.0857   -1.1132 C.3       1 <0>         0.0471
     21 C14        -9.6826   -3.5808   -0.0069 C.3       1 <0>         0.0925
     22 C15        -7.0297    1.9221   -0.3821 C.ar      1 <0>        -0.2311
     23 C16        -5.8015    2.5894   -0.4083 C.ar      1 <0>         0.2302
     24 N6         -5.7892    3.9058   -0.5150 N.ar      1 <0>        -0.5711
     25 C17        -6.9204    4.5923   -0.5967 C.ar      1 <0>         0.5762
     26 N7         -8.1042    3.9957   -0.5753 N.ar      1 <0>        -0.5734
     27 C18        -8.1993    2.6820   -0.4761 C.ar      1 <0>         0.2470
     28 N8         -6.8641    5.9688   -0.7069 N.pl3     1 <0>        -0.8125
     29 H1         -4.4079   -9.7308    0.4974 H         1 <0>         0.0965
     30 H2         -4.2827   -8.5415   -0.8209 H         1 <0>         0.0585
     31 H3         -3.2542   -8.3812    0.6229 H         1 <0>         0.0585
     32 H4         -6.9055   -6.1256    1.8884 H         1 <0>         0.1443
     33 H5         -6.7625   -3.6754    1.5145 H         1 <0>         0.1503
     34 H6         -3.2977   -4.3687   -0.9011 H         1 <0>         0.1594
     35 H7         -4.0124   -2.0755   -0.0635 H         1 <0>         0.4243
     36 H8         -4.9524    0.1766   -0.1831 H         1 <0>         0.1422
     37 H9        -11.3396   -1.3608    0.7227 H         1 <0>         0.0755
     38 H10       -10.5652   -0.3001   -0.4826 H         1 <0>         0.1081
     39 H11       -12.6556   -1.4667   -1.3287 H         1 <0>         0.1086
     40 H12       -11.1982   -1.8001   -2.2962 H         1 <0>         0.0552
     41 H13       -10.8191   -5.1441   -0.9592 H         1 <0>         0.1082
     42 H14       -10.1262   -3.9466   -2.0805 H         1 <0>         0.0542
     43 H15        -8.6989   -4.0372   -0.1166 H         1 <0>         0.1066
     44 H16       -10.1016   -3.8397    0.9655 H         1 <0>         0.0748
     45 H17        -4.8762    2.0365   -0.3418 H         1 <0>         0.1733
     46 H18        -9.1669    2.2023   -0.4638 H         1 <0>         0.1793
     47 H19        -6.0052    6.4193   -0.7236 H         1 <0>         0.4174
     48 H20        -7.6835    6.4845   -0.7676 H         1 <0>         0.4177
@<TRIPOS>BOND
     1    1    2 1
     2    1   29 1
     3    1   30 1
     4    1   31 1
     5    2    3 1
     6    3    8 ar
     7    3    4 ar
     8    4    5 ar
     9    4   32 1
    10    5    6 ar
    11    5   33 1
    12    6    7 ar
    13    6    9 1
    14    7    8 ar
    15    7   34 1
    16    9   10 1
    17    9   35 1
    18   10   15 ar
    19   10   11 ar
    20   11   12 ar
    21   11   36 1
    22   12   13 ar
    23   12   22 1
    24   13   14 ar
    25   14   15 ar
    26   14   16 1
    27   16   21 1
    28   16   17 1
    29   17   18 1
    30   17   37 1
    31   17   38 1
    32   18   19 1
    33   18   39 1
    34   18   40 1
    35   19   20 1
    36   20   21 1
    37   20   41 1
    38   20   42 1
    39   21   43 1
    40   21   44 1
    41   22   27 ar
    42   22   23 ar
    43   23   24 ar
    44   23   45 1
    45   24   25 ar
    46   25   26 ar
    47   25   28 1
    48   26   27 ar
    49   27   46 1
    50   28   47 1
    51   28   48 1
@<TRIPOS>MOLECULE
ZINC43154043
   49    52     0     0     0
SMALL
USER_CHARGES

@<TRIPOS>ATOM
      1 C1          2.8334   -8.5330   -3.4328 C.3       1 <0>         0.0358
      2 O1          2.7629   -7.8179   -4.6680 O.3       1 <0>        -0.3005
      3 C2          2.6963   -6.4639   -4.5934 C.ar      1 <0>         0.3317
      4 C3          2.6204   -5.7153   -5.7609 C.ar      1 <0>        -0.1751
      5 C4          2.5529   -4.3363   -5.6748 C.ar      1 <0>        -0.0295
      6 C5          2.5639   -3.7491   -4.4106 C.ar      1 <0>         0.0184
      7 C6          2.6416   -4.5614   -3.2893 C.ar      1 <0>         0.1492
      8 N1          2.6992   -5.8741   -3.4103 N.ar      1 <0>        -0.5191
      9 N2          2.4978   -2.3568   -4.2747 N.pl3     1 <0>        -0.5913
     10 C7          3.1159   -1.5390   -5.2083 C.ar      1 <0>         0.5226
     11 C8          3.1156   -0.1546   -5.0447 C.ar      1 <0>        -0.2790
     12 C9          3.7494    0.6262   -6.0088 C.ar      1 <0>         0.3313
     13 N3          4.3309    0.0264   -7.0485 N.ar      1 <0>        -0.5826
     14 C10         4.3097   -1.2913   -7.1694 C.ar      1 <0>         0.6641
     15 N4          3.7218   -2.0653   -6.2691 N.ar      1 <0>        -0.5765
     16 N5          4.9239   -1.8771   -8.2627 N.pl3     1 <0>        -0.5686
     17 C11         5.7133   -1.0730   -9.2091 C.3       1 <0>         0.0642
     18 C12         7.0756   -1.7496   -9.3994 C.3       1 <0>         0.0475
     19 O2          6.8752   -3.1221   -9.7456 O.3       1 <0>        -0.3639
     20 C13         6.2136   -3.8895   -8.7371 C.3       1 <0>         0.0433
     21 C14         4.8118   -3.3234   -8.5097 C.3       1 <0>         0.0797
     22 C15         3.7766    2.1027   -5.8812 C.ar      1 <0>        -0.2974
     23 C16         4.4053    2.8941   -6.8470 C.ar      1 <0>         0.2461
     24 N6          4.4079    4.2065   -6.6980 N.ar      1 <0>        -0.5570
     25 C17         3.8251    4.7734   -5.6508 C.ar      1 <0>         0.6029
     26 N7          3.2191    4.0570   -4.7143 N.ar      1 <0>        -0.5575
     27 C18         3.1693    2.7396   -4.7949 C.ar      1 <0>         0.2711
     28 N8          3.8505    6.1502   -5.5318 N.pl3     1 <0>        -0.7868
     29 H1          3.7244   -8.2257   -2.8854 H         1 <0>         0.0633
     30 H2          1.9474   -8.3158   -2.8362 H         1 <0>         0.0639
     31 H3          2.8820   -9.6031   -3.6348 H         1 <0>         0.1042
     32 H4          2.6144   -6.2038   -6.7241 H         1 <0>         0.1531
     33 H5          2.4934   -3.7291   -6.5659 H         1 <0>         0.1561
     34 H6          2.6507   -4.1148   -2.3060 H         1 <0>         0.1673
     35 H7          2.0196   -1.9646   -3.5274 H         1 <0>         0.4395
     36 H8          2.6355    0.3015   -4.1915 H         1 <0>         0.1843
     37 H9          5.1941   -1.0175  -10.1658 H         1 <0>         0.1137
     38 H10         5.8547   -0.0690   -8.8088 H         1 <0>         0.0875
     39 H11         7.6224   -1.2487  -10.1983 H         1 <0>         0.1261
     40 H12         7.6457   -1.6874   -8.4724 H         1 <0>         0.0657
     41 H13         6.1403   -4.9282   -9.0594 H         1 <0>         0.1256
     42 H14         6.7805   -3.8352   -7.8077 H         1 <0>         0.0648
     43 H15         4.3566   -3.8091   -7.6465 H         1 <0>         0.1211
     44 H16         4.2003   -3.4984   -9.3949 H         1 <0>         0.1021
     45 H17         4.8823    2.4390   -7.7024 H         1 <0>         0.1660
     46 H18         2.6699    2.1625   -4.0307 H         1 <0>         0.1859
     47 H19         4.2905    6.6875   -6.2090 H         1 <0>         0.4269
     48 H20         3.4284    6.5791   -4.7711 H         1 <0>         0.4278
     49 H21         4.7744    0.5625   -7.7244 H         1 <0>         0.4319
@<TRIPOS>BOND
     1    1    2 1
     2    1   29 1
     3    1   30 1
     4    1   31 1
     5    2    3 1
     6    3    8 ar
     7    3    4 ar
     8    4    5 ar
     9    4   32 1
    10    5    6 ar
    11    5   33 1
    12    6    7 ar
    13    6    9 1
    14    7    8 ar
    15    7   34 1
    16    9   10 1
    17    9   35 1
    18   10   15 ar
    19   10   11 ar
    20   11   12 ar
    21   11   36 1
    22   12   13 ar
    23   12   22 1
    24   13   14 ar
    25   13   49 1
    26   14   15 ar
    27   14   16 1
    28   16   21 1
    29   16   17 1
    30   17   18 1
    31   17   37 1
    32   17   38 1
    33   18   19 1
    34   18   39 1
    35   18   40 1
    36   19   20 1
    37   20   21 1
    38   20   41 1
    39   20   42 1
    40   21   43 1
    41   21   44 1
    42   22   27 ar
    43   22   23 ar
    44   23   24 ar
    45   23   45 1
    46   24   25 ar
    47   25   26 ar
    48   25   28 1
    49   26   27 ar
    50   27   46 1
    51   28   47 1
    52   28   48 1
@<TRIPOS>MOLECULE
ZINC71318831
   47    51     0     0     0
SMALL
USER_CHARGES

@<TRIPOS>ATOM
      1 C1          0.2267    1.2917    3.1105 C.ar      1 <0>        -0.1048
      2 C2          0.7883    2.0335    2.0872 C.ar      1 <0>        -0.0492
      3 C3          1.3809    1.3967    1.0124 C.ar      1 <0>        -0.1770
      4 C4          1.4134    0.0169    0.9574 C.ar      1 <0>        -0.0607
      5 C5          0.8504   -0.7308    1.9832 C.ar      1 <0>         0.1153
      6 C6          0.2562   -0.0880    3.0617 C.ar      1 <0>        -0.0726
      7 N1          0.8813   -2.1292    1.9303 N.am      1 <0>        -0.4650
      8 C7          1.9425   -2.7946    2.4261 C.2       1 <0>         0.5305
      9 O1          2.8677   -2.1707    2.9170 O.2       1 <0>        -0.5127
     10 C8          1.9975   -4.2027    2.3852 C.2       1 <0>        -0.2210
     11 C9          0.9748   -4.9109    1.8422 C.2       1 <0>         0.0033
     12 C10        -0.1435   -4.2143    1.3195 C.ar      1 <0>        -0.1948
     13 C11        -0.1693   -2.8122    1.3805 C.ar      1 <0>         0.2404
     14 C12        -1.3002   -2.1448    0.8557 C.ar      1 <0>        -0.1170
     15 C13        -1.3968   -0.7495    0.8750 C.ar      1 <0>        -0.1287
     16 C14        -2.5222   -0.1364    0.3498 C.ar      1 <0>        -0.0197
     17 C15        -3.5579   -0.9075   -0.1974 C.ar      1 <0>        -0.0774
     18 C16        -3.4791   -2.2645   -0.2231 C.ar      1 <0>        -0.0904
     19 C17        -2.3506   -2.9170    0.3011 C.ar      1 <0>         0.1577
     20 N2         -2.2672   -4.2555    0.2770 N.ar      1 <0>        -0.4883
     21 C18        -1.2302   -4.9002    0.7452 C.ar      1 <0>         0.1970
     22 C19        -2.6328    1.3425    0.3668 C.ar      1 <0>        -0.1697
     23 C20        -3.8678    1.9592    0.6001 C.ar      1 <0>        -0.0151
     24 C21        -3.9221    3.3386    0.6066 C.ar      1 <0>        -0.2349
     25 C22        -2.7560    4.0659    0.3826 C.ar      1 <0>         0.4102
     26 N3         -1.6034    3.4512    0.1646 N.ar      1 <0>        -0.5346
     27 C23        -1.5090    2.1365    0.1567 C.ar      1 <0>         0.1618
     28 N4         -2.8024    5.4544    0.3876 N.pl3     1 <0>        -0.8471
     29 C24         1.9916    2.2090   -0.1004 C.3       1 <0>         0.5102
     30 F1          1.8362    3.5713    0.1772 F         1 <0>        -0.1642
     31 F2          3.3535    1.9068   -0.2051 F         1 <0>        -0.1718
     32 F3          1.3520    1.9028   -1.3064 F         1 <0>        -0.1720
     33 H1         -0.2315    1.7920    3.9508 H         1 <0>         0.1508
     34 H2          0.7635    3.1124    2.1275 H         1 <0>         0.1536
     35 H3          1.8758   -0.4799    0.1173 H         1 <0>         0.1444
     36 H4         -0.1825   -0.6667    3.8611 H         1 <0>         0.1432
     37 H5          2.8564   -4.7197    2.7871 H         1 <0>         0.1630
     38 H6          1.0128   -5.9897    1.8085 H         1 <0>         0.1550
     39 H7         -0.5999   -0.1548    1.2966 H         1 <0>         0.1586
     40 H8         -4.4300   -0.4167   -0.6036 H         1 <0>         0.1365
     41 H9         -4.2863   -2.8427   -0.6478 H         1 <0>         0.1451
     42 H10        -1.2128   -5.9792    0.7016 H         1 <0>         0.1761
     43 H11        -4.7567    1.3699    0.7705 H         1 <0>         0.1373
     44 H12        -4.8581    3.8477    0.7829 H         1 <0>         0.1350
     45 H13        -0.5508    1.6705   -0.0194 H         1 <0>         0.1482
     46 H14        -3.6434    5.9110    0.5463 H         1 <0>         0.4097
     47 H15        -1.9939    5.9673    0.2323 H         1 <0>         0.4063
@<TRIPOS>BOND
     1    1    6 ar
     2    1    2 ar
     3    1   33 1
     4    2    3 ar
     5    2   34 1
     6    3    4 ar
     7    3   29 1
     8    4    5 ar
     9    4   35 1
    10    5    6 ar
    11    5    7 1
    12    6   36 1
    13    7   13 1
    14    7    8 am
    15    8    9 2
    16    8   10 1
    17   10   11 2
    18   10   37 1
    19   11   12 1
    20   11   38 1
    21   12   21 ar
    22   12   13 ar
    23   13   14 ar
    24   14   19 ar
    25   14   15 ar
    26   15   16 ar
    27   15   39 1
    28   16   17 ar
    29   16   22 1
    30   17   18 ar
    31   17   40 1
    32   18   19 ar
    33   18   41 1
    34   19   20 ar
    35   20   21 ar
    36   21   42 1
    37   22   27 ar
    38   22   23 ar
    39   23   24 ar
    40   23   43 1
    41   24   25 ar
    42   24   44 1
    43   25   26 ar
    44   25   28 1
    45   26   27 ar
    46   27   45 1
    47   28   46 1
    48   28   47 1
    49   29   30 1
    50   29   31 1
    51   29   32 1
@<TRIPOS>MOLECULE
ZINC71318831
   48    52     0     0     0
SMALL
USER_CHARGES

@<TRIPOS>ATOM
      1 C1          0.2240    1.2917    3.1082 C.ar      1 <0>        -0.1055
      2 C2          0.7886    2.0335    2.0865 C.ar      1 <0>        -0.0699
      3 C3          1.3842    1.3968    1.0134 C.ar      1 <0>        -0.1869
      4 C4          1.4167    0.0169    0.9584 C.ar      1 <0>        -0.0576
      5 C5          0.8507   -0.7307    1.9826 C.ar      1 <0>         0.1208
      6 C6          0.2535   -0.0880    3.0594 C.ar      1 <0>        -0.0709
      7 N1          0.8816   -2.1292    1.9297 N.am      1 <0>        -0.4702
      8 C7          1.9429   -2.7946    2.4252 C.2       1 <0>         0.5309
      9 O1          2.8682   -2.1706    2.9160 O.2       1 <0>        -0.5022
     10 C8          1.9979   -4.2027    2.3844 C.2       1 <0>        -0.2090
     11 C9          0.9751   -4.9109    1.8416 C.2       1 <0>        -0.0011
     12 C10        -0.1433   -4.2142    1.3191 C.ar      1 <0>        -0.1850
     13 C11        -0.1691   -2.8122    1.3801 C.ar      1 <0>         0.2400
     14 C12        -1.3001   -2.1448    0.8555 C.ar      1 <0>        -0.1250
     15 C13        -1.3967   -0.7495    0.8748 C.ar      1 <0>        -0.0953
     16 C14        -2.5222   -0.1364    0.3498 C.ar      1 <0>        -0.0720
     17 C15        -3.5580   -0.9075   -0.1972 C.ar      1 <0>        -0.0787
     18 C16        -3.4792   -2.2645   -0.2229 C.ar      1 <0>        -0.0796
     19 C17        -2.3506   -2.9170    0.3012 C.ar      1 <0>         0.1789
     20 N2         -2.2672   -4.2555    0.2770 N.ar      1 <0>        -0.4909
     21 C18        -1.2301   -4.9002    0.7450 C.ar      1 <0>         0.2178
     22 C19        -2.6328    1.3425    0.3668 C.ar      1 <0>        -0.0726
     23 C20        -1.5036    2.1411    0.1497 C.ar      1 <0>         0.0267
     24 C21        -1.6550    3.5131    0.1748 C.ar      1 <0>        -0.1861
     25 C22        -2.9158    4.0536    0.4133 C.ar      1 <0>         0.4528
     26 N3         -3.9639    3.2696    0.6153 N.ar      1 <0>        -0.4933
     27 C23        -3.8617    1.9556    0.5931 C.ar      1 <0>         0.1497
     28 N4         -3.0764    5.4333    0.4401 N.pl3     1 <0>        -0.8160
     29 C24         1.9982    2.2090   -0.0976 C.3       1 <0>         0.5078
     30 F1          1.8421    3.5713    0.1796 F         1 <0>        -0.1721
     31 F2          3.3604    1.9067   -0.1984 F         1 <0>        -0.1603
     32 F3          1.3620    1.9030   -1.3054 F         1 <0>        -0.1731
     33 H1         -0.2366    1.7921    3.9472 H         1 <0>         0.1554
     34 H2          0.7639    3.1125    2.1268 H         1 <0>         0.1546
     35 H3          1.8815   -0.4798    0.1196 H         1 <0>         0.1506
     36 H4         -0.1876   -0.6667    3.8575 H         1 <0>         0.1492
     37 H5          2.8569   -4.7196    2.7861 H         1 <0>         0.1689
     38 H6          1.0131   -5.9897    1.8079 H         1 <0>         0.1611
     39 H7         -0.5997   -0.1548    1.2962 H         1 <0>         0.1588
     40 H8         -4.4302   -0.4167   -0.6033 H         1 <0>         0.1399
     41 H9         -4.2865   -2.8427   -0.6475 H         1 <0>         0.1540
     42 H10        -1.2128   -5.9792    0.7015 H         1 <0>         0.1843
     43 H11        -0.5372    1.6946   -0.0326 H         1 <0>         0.1625
     44 H12        -0.8053    4.1595    0.0117 H         1 <0>         0.1839
     45 H13        -4.7398    1.3485    0.7568 H         1 <0>         0.2119
     46 H14        -2.3129    6.0134    0.2932 H         1 <0>         0.4424
     47 H15        -3.9519    5.8166    0.6056 H         1 <0>         0.4236
     48 H16        -4.8306    3.6730    0.7794 H         1 <0>         0.4467
@<TRIPOS>BOND
     1    1    6 ar
     2    1    2 ar
     3    1   33 1
     4    2    3 ar
     5    2   34 1
     6    3    4 ar
     7    3   29 1
     8    4    5 ar
     9    4   35 1
    10    5    6 ar
    11    5    7 1
    12    6   36 1
    13    7   13 1
    14    7    8 am
    15    8    9 2
    16    8   10 1
    17   10   11 2
    18   10   37 1
    19   11   12 1
    20   11   38 1
    21   12   21 ar
    22   12   13 ar
    23   13   14 ar
    24   14   19 ar
    25   14   15 ar
    26   15   16 ar
    27   15   39 1
    28   16   17 ar
    29   16   22 1
    30   17   18 ar
    31   17   40 1
    32   18   19 ar
    33   18   41 1
    34   19   20 ar
    35   20   21 ar
    36   21   42 1
    37   22   27 ar
    38   22   23 ar
    39   23   24 ar
    40   23   43 1
    41   24   25 ar
    42   24   44 1
    43   25   26 ar
    44   25   28 1
    45   26   27 ar
    46   26   48 1
    47   27   45 1
    48   28   46 1
    49   28   47 1
    50   29   30 1
    51   29   31 1
    52   29   32 1
@<TRIPOS>MOLECULE
ZINC13952160
   13    13     0     0     0
SMALL
USER_CHARGES
pyridin-2-amine
@<TRIPOS>ATOM
      1 C1         -1.2206    1.7609    0.0173 C.ar      1 <0>        -0.0333
      2 C2         -0.0126    1.0758    0.0080 C.ar      1 <0>        -0.2360
      3 C3          1.1691    1.7890    0.0005 C.ar      1 <0>         0.1484
      4 N1          1.1632    3.1087    0.0072 N.ar      1 <0>        -0.5484
      5 C4          0.0327    3.7978    0.0212 C.ar      1 <0>         0.4010
      6 C5         -1.1952    3.1436    0.0294 C.ar      1 <0>        -0.2417
      7 N2          0.0730    5.1872    0.0283 N.pl3     1 <0>        -0.8532
      8 H1         -2.1588    1.2259    0.0192 H         1 <0>         0.1330
      9 H2          0.0021   -0.0041    0.0020 H         1 <0>         0.1322
     10 H3          2.1107    1.2603   -0.0113 H         1 <0>         0.1560
     11 H4         -2.1160    3.7079    0.0405 H         1 <0>         0.1298
     12 H5          0.9267    5.6477    0.0230 H         1 <0>         0.4041
     13 H6         -0.7526    5.6963    0.0386 H         1 <0>         0.4081
@<TRIPOS>BOND
     1    1    6 ar
     2    1    2 ar
     3    1    8 1
     4    2    3 ar
     5    2    9 1
     6    3    4 ar
     7    3   10 1
     8    4    5 ar
     9    5    6 ar
    10    5    7 1
    11    6   11 1
    12    7   12 1
    13    7   13 1
@<TRIPOS>MOLECULE
ZINC00087515
   39    42     0     0     0
SMALL
USER_CHARGES
[4-(6-aminopurin-9-yl)-7,7-dimethyl-3,6,8-trioxabicyclo[3.3.0]oct-2-yl]methanol
@<TRIPOS>ATOM
      1 C1         -4.3295    1.5596    4.1901 C.3       1 <0>        -0.1663
      2 C2         -2.9658    1.1318    3.6440 C.3       1 <0>         0.2451
      3 O1         -3.0457   -0.2282    3.1270 O.3       1 <0>        -0.3410
      4 C3         -2.5104   -0.1415    1.8391 C.3       1 <0>         0.0062
      5 H1         -1.4219   -0.1289    1.8951 H         1 <0>         0.0902
      6 C4         -2.9562   -0.9000    0.6125 C.3       1 <0>         0.0926
      7 H2         -4.0351   -1.0548    0.6256 H         1 <0>         0.1111
      8 O2         -2.5720   -0.0108   -0.4776 O.3       1 <0>        -0.3348
      9 C5         -2.5206    1.3539    0.0199 C.3       1 <0>         0.3256
     10 H3         -3.1509    2.0024   -0.5886 H         1 <0>         0.1458
     11 C6         -3.0465    1.2889    1.4274 C.3       1 <0>        -0.0082
     12 H4         -4.1365    1.2908    1.4198 H         1 <0>         0.1102
     13 O3         -2.5781    2.0069    2.5394 O.3       1 <0>        -0.3275
     14 N1         -1.1395    1.8426    0.0169 N.pl3     1 <0>        -0.4780
     15 C7         -0.0126    1.0758    0.0080 C.2       1 <0>         0.2662
     16 N2          1.0431    1.8369    0.0020 N.2       1 <0>        -0.4505
     17 C8          0.6618    3.1368    0.0121 C.ar      1 <0>        -0.0676
     18 C9         -0.7433    3.1561    0.0253 C.ar      1 <0>         0.3084
     19 N3         -1.3730    4.3263    0.0367 N.ar      1 <0>        -0.5340
     20 C10        -0.6935    5.4539    0.0357 C.ar      1 <0>         0.3485
     21 N4          0.6264    5.4861    0.0240 N.ar      1 <0>        -0.5743
     22 C11         1.3422    4.3662    0.0113 C.ar      1 <0>         0.4487
     23 N5          2.7253    4.4100   -0.0010 N.pl3     1 <0>        -0.7435
     24 C12        -2.2205   -2.2372    0.5055 C.3       1 <0>         0.0820
     25 O4         -2.7443   -2.9822   -0.5957 O.3       1 <0>        -0.5633
     26 C13        -1.9161    1.2032    4.7548 C.3       1 <0>        -0.1556
     27 H5         -4.6152    0.9013    5.0105 H         1 <0>         0.0841
     28 H6         -4.2703    2.5862    4.5517 H         1 <0>         0.0856
     29 H7         -5.0746    1.4961    3.3970 H         1 <0>         0.0682
     30 H8          0.0021   -0.0041    0.0020 H         1 <0>         0.2179
     31 H9         -1.2361    6.3876    0.0452 H         1 <0>         0.2065
     32 H10         3.0807    3.9458    0.8103 H         1 <0>         0.3695
     33 H11         3.1835    5.2649   -0.0014 H         1 <0>         0.3738
     34 H12        -1.1573   -2.0553    0.3483 H         1 <0>         0.0587
     35 H13        -2.3600   -2.8033    1.4264 H         1 <0>         0.0740
     36 H14        -2.3234   -3.8434   -0.7236 H         1 <0>         0.3884
     37 H15        -0.9497    0.8870    4.3623 H         1 <0>         0.0681
     38 H16        -1.8424    2.2276    5.1198 H         1 <0>         0.0820
     39 H17        -2.2084    0.5459    5.5737 H         1 <0>         0.0868
@<TRIPOS>BOND
     1    1    2 1
     2    1   27 1
     3    1   28 1
     4    1   29 1
     5    2   13 1
     6    2    3 1
     7    2   26 1
     8    3    4 1
     9    4    5 1
    10    4   11 1
    11    4    6 1
    12    6    7 1
    13    6    8 1
    14    6   24 1
    15    8    9 1
    16    9   10 1
    17    9   11 1
    18    9   14 1
    19   11   12 1
    20   11   13 1
    21   14   18 1
    22   14   15 1
    23   15   16 2
    24   15   30 1
    25   16   17 1
    26   17   22 ar
    27   17   18 ar
    28   18   19 ar
    29   19   20 ar
    30   20   21 ar
    31   20   31 1
    32   21   22 ar
    33   22   23 1
    34   23   32 1
    35   23   33 1
    36   24   25 1
    37   24   34 1
    38   24   35 1
    39   25   36 1
    40   26   37 1
    41   26   38 1
    42   26   39 1
@<TRIPOS>MOLECULE
ZINC00171553
   39    42     0     0     0
SMALL
USER_CHARGES
[4-(6-aminopurin-9-yl)-7,7-dimethyl-3,6,8-trioxabicyclo[3.3.0]oct-2-yl]methanol
@<TRIPOS>ATOM
      1 C1         -3.7336    7.1395   -4.2333 C.3       1 <0>        -0.1850
      2 C2         -2.8160    7.6393   -3.1157 C.3       1 <0>         0.2474
      3 O1         -3.4936    8.6294   -2.3222 O.3       1 <0>        -0.3599
      4 C3         -4.1494    7.9318   -1.2491 C.3       1 <0>         0.0311
      5 H1         -5.2327    8.0496   -1.2758 H         1 <0>         0.1313
      6 C4         -3.5399    8.3854    0.0908 C.3       1 <0>         0.0754
      7 H2         -4.3323    8.5651    0.8174 H         1 <0>         0.1001
      8 O2         -2.6876    7.3210    0.5486 O.3       1 <0>        -0.3459
      9 C5         -3.2612    6.0937    0.0491 C.3       1 <0>         0.3116
     10 H3         -4.1249    5.8031    0.6472 H         1 <0>         0.1260
     11 C6         -3.6935    6.4478   -1.3945 C.3       1 <0>         0.0086
     12 H4         -4.4588    5.7845   -1.7975 H         1 <0>         0.1275
     13 O3         -2.5005    6.5599   -2.2096 O.3       1 <0>        -0.3448
     14 N1         -2.2602    5.0240    0.0391 N.pl3     1 <0>        -0.4627
     15 C7         -0.9067    5.1860    0.0338 C.2       1 <0>         0.3023
     16 N2         -0.3199    4.0245    0.0252 N.2       1 <0>        -0.4722
     17 C8         -1.2568    3.0459    0.0304 C.ar      1 <0>        -0.0948
     18 C9         -2.5131    3.6756    0.0334 C.ar      1 <0>         0.2973
     19 N3         -3.6109    2.9267    0.0346 N.ar      1 <0>        -0.5426
     20 C10        -3.5269    1.6129    0.0275 C.ar      1 <0>         0.3482
     21 N4         -2.3698    0.9768    0.0186 N.ar      1 <0>        -0.5478
     22 C11        -1.2188    1.6414    0.0168 C.ar      1 <0>         0.4557
     23 N5         -0.0111    0.9658    0.0074 N.pl3     1 <0>        -0.7510
     24 C12        -2.7179    9.6593   -0.1152 C.3       1 <0>         0.0926
     25 O4         -2.2352   10.1240    1.1470 O.3       1 <0>        -0.5696
     26 C13        -1.5321    8.2247   -3.7072 C.3       1 <0>        -0.1409
     27 H5         -3.9960    7.9713   -4.8872 H         1 <0>         0.0820
     28 H6         -3.2181    6.3721   -4.8108 H         1 <0>         0.0796
     29 H7         -4.6403    6.7192   -3.7983 H         1 <0>         0.0628
     30 H8         -0.3965    6.1379    0.0369 H         1 <0>         0.2230
     31 H9         -4.4384    1.0338    0.0287 H         1 <0>         0.2099
     32 H10         0.0554    0.3907    0.8227 H         1 <0>         0.3676
     33 H11         0.8223    1.4622    0.0021 H         1 <0>         0.3835
     34 H12        -1.8736    9.4450   -0.7705 H         1 <0>         0.0614
     35 H13        -3.3447   10.4267   -0.5694 H         1 <0>         0.0697
     36 H14        -1.7044   10.9305    1.0924 H         1 <0>         0.3850
     37 H15        -0.8852    8.5702   -2.9008 H         1 <0>         0.0729
     38 H16        -1.0154    7.4578   -4.2843 H         1 <0>         0.0815
     39 H17        -1.7811    9.0630   -4.3578 H         1 <0>         0.0833
@<TRIPOS>BOND
     1    1    2 1
     2    1   27 1
     3    1   28 1
     4    1   29 1
     5    2   13 1
     6    2    3 1
     7    2   26 1
     8    3    4 1
     9    4    5 1
    10    4   11 1
    11    4    6 1
    12    6    7 1
    13    6    8 1
    14    6   24 1
    15    8    9 1
    16    9   10 1
    17    9   11 1
    18    9   14 1
    19   11   12 1
    20   11   13 1
    21   14   18 1
    22   14   15 1
    23   15   16 2
    24   15   30 1
    25   16   17 1
    26   17   22 ar
    27   17   18 ar
    28   18   19 ar
    29   19   20 ar
    30   20   21 ar
    31   20   31 1
    32   21   22 ar
    33   22   23 1
    34   23   32 1
    35   23   33 1
    36   24   25 1
    37   24   34 1
    38   24   35 1
    39   25   36 1
    40   26   37 1
    41   26   38 1
    42   26   39 1
@<TRIPOS>MOLECULE
ZINC03860533
   39    42     0     0     0
SMALL
USER_CHARGES
[4-(6-aminopurin-9-yl)-7,7-dimethyl-3,6,8-trioxabicyclo[3.3.0]oct-2-yl]methanol
@<TRIPOS>ATOM
      1 C1         -1.1094    0.3308   -4.4637 C.3       1 <0>        -0.1699
      2 C2         -0.7235    0.2913   -2.9837 C.3       1 <0>         0.2584
      3 O1         -1.7971    0.8116   -2.1975 O.3       1 <0>        -0.3574
      4 C3         -2.4790   -0.3099   -1.6022 C.3       1 <0>         0.0289
      5 H1         -3.4027   -0.5727   -2.1177 H         1 <0>         0.1289
      6 C4         -2.6880    0.0073   -0.1080 C.3       1 <0>         0.0642
      7 H2         -2.4141    1.0435    0.0904 H         1 <0>         0.1034
      8 O2         -1.8507   -0.8683    0.6527 O.3       1 <0>        -0.3282
      9 C5         -0.8058   -1.3671   -0.1951 C.3       1 <0>         0.2853
     10 H3         -0.4966   -2.3597    0.1323 H         1 <0>         0.1495
     11 C6         -1.4129   -1.4381   -1.6047 C.3       1 <0>         0.0276
     12 H4         -1.8549   -2.4141   -1.8048 H         1 <0>         0.1456
     13 O3         -0.4590   -1.0586   -2.5961 O.3       1 <0>        -0.3389
     14 N1          0.3375   -0.4512   -0.1817 N.pl3     1 <0>        -0.4800
     15 C7          0.3287    0.8439    0.2436 C.2       1 <0>         0.2724
     16 N2          1.5155    1.3621    0.1153 N.2       1 <0>        -0.4516
     17 C8          2.3591    0.4352   -0.3989 C.ar      1 <0>        -0.0713
     18 C9          1.6134   -0.7395   -0.5957 C.ar      1 <0>         0.3162
     19 N3          2.2175   -1.8115   -1.0977 N.ar      1 <0>        -0.5279
     20 C10         3.4966   -1.7776   -1.4069 C.ar      1 <0>         0.3454
     21 N4          4.2379   -0.6977   -1.2399 N.ar      1 <0>        -0.5752
     22 C11         3.7210    0.4221   -0.7445 C.ar      1 <0>         0.4463
     23 N5          4.5058    1.5491   -0.5736 N.pl3     1 <0>        -0.7440
     24 C12        -4.1531   -0.2213    0.2691 C.3       1 <0>         0.0796
     25 O4         -4.3658    0.1862    1.6221 O.3       1 <0>        -0.5625
     26 C13         0.5299    1.1399   -2.7606 C.3       1 <0>        -0.1810
     27 H5         -1.2853    1.3632   -4.7659 H         1 <0>         0.0792
     28 H6         -0.3007   -0.0899   -5.0613 H         1 <0>         0.0769
     29 H7         -2.0169   -0.2527   -4.6182 H         1 <0>         0.0648
     30 H8         -0.5368    1.3645    0.6261 H         1 <0>         0.2176
     31 H9          3.9569   -2.6663   -1.8129 H         1 <0>         0.2048
     32 H10         4.1329    2.3006   -1.1179 H         1 <0>         0.3687
     33 H11         5.4447    1.5276   -0.8160 H         1 <0>         0.3733
     34 H12        -4.7937    0.3631   -0.3914 H         1 <0>         0.0691
     35 H13        -4.3939   -1.2794    0.1661 H         1 <0>         0.0602
     36 H14        -5.2751    0.0693    1.9297 H         1 <0>         0.3874
     37 H15         0.7246    1.2264   -1.6917 H         1 <0>         0.0880
     38 H16         1.3816    0.6651   -3.2478 H         1 <0>         0.0688
     39 H17         0.3765    2.1328   -3.1835 H         1 <0>         0.0771
@<TRIPOS>BOND
     1    1    2 1
     2    1   27 1
     3    1   28 1
     4    1   29 1
     5    2   13 1
     6    2    3 1
     7    2   26 1
     8    3    4 1
     9    4    5 1
    10    4   11 1
    11    4    6 1
    12    6    7 1
    13    6    8 1
    14    6   24 1
    15    8    9 1
    16    9   10 1
    17    9   11 1
    18    9   14 1
    19   11   12 1
    20   11   13 1
    21   14   18 1
    22   14   15 1
    23   15   16 2
    24   15   30 1
    25   16   17 1
    26   17   22 ar
    27   17   18 ar
    28   18   19 ar
    29   19   20 ar
    30   20   21 ar
    31   20   31 1
    32   21   22 ar
    33   22   23 1
    34   23   32 1
    35   23   33 1
    36   24   25 1
    37   24   34 1
    38   24   35 1
    39   25   36 1
    40   26   37 1
    41   26   38 1
    42   26   39 1
@<TRIPOS>MOLECULE
ZINC03860534
   39    42     0     0     0
SMALL
USER_CHARGES
[4-(6-aminopurin-9-yl)-7,7-dimethyl-3,6,8-trioxabicyclo[3.3.0]oct-2-yl]methanol
@<TRIPOS>ATOM
      1 C1         -5.1998    2.8201   -4.1713 C.3       1 <0>        -0.1650
      2 C2         -4.0905    3.6881   -3.5738 C.3       1 <0>         0.2442
      3 O1         -4.6552    4.9349   -3.0717 O.3       1 <0>        -0.3370
      4 C3         -4.1913    5.0172   -1.7636 C.3       1 <0>         0.0071
      5 H1         -3.1485    5.3337   -1.7851 H         1 <0>         0.0850
      6 C4         -4.8483    5.6244   -0.5625 C.3       1 <0>         0.0886
      7 H2         -4.5035    6.6486   -0.4209 H         1 <0>         0.1225
      8 O2         -4.4395    4.7940    0.5645 O.3       1 <0>        -0.3274
      9 C5         -3.6874    3.6530    0.0576 C.3       1 <0>         0.3173
     10 H3         -3.8931    2.7619    0.6507 H         1 <0>         0.1544
     11 C6         -4.2134    3.4898   -1.3543 C.3       1 <0>        -0.0112
     12 H4         -5.2255    3.0852   -1.3536 H         1 <0>         0.1182
     13 O3         -3.4564    2.9963   -2.4376 O.3       1 <0>        -0.3292
     14 N1         -2.2516    3.9439    0.0447 N.pl3     1 <0>        -0.4806
     15 C7         -1.6792    5.1811    0.0459 C.2       1 <0>         0.2646
     16 N2         -0.3825    5.0711    0.0329 N.2       1 <0>        -0.4591
     17 C8         -0.0413    3.7601    0.0226 C.ar      1 <0>        -0.1026
     18 C9         -1.2364    3.0211    0.0301 C.ar      1 <0>         0.3130
     19 N3         -1.1750    1.6936    0.0170 N.ar      1 <0>        -0.5358
     20 C10        -0.0126    1.0758    0.0080 C.ar      1 <0>         0.3521
     21 N4          1.1361    1.7270    0.0005 N.ar      1 <0>        -0.5486
     22 C11         1.1743    3.0555    0.0073 C.ar      1 <0>         0.4579
     23 N5          2.3831    3.7292   -0.0011 N.pl3     1 <0>        -0.7507
     24 C12        -6.3700    5.5952   -0.7193 C.3       1 <0>         0.0716
     25 O4         -6.9752    6.2811    0.3786 O.3       1 <0>        -0.5635
     26 C13        -3.0364    3.9891   -4.6411 C.3       1 <0>        -0.1558
     27 H5         -5.6606    3.3448   -5.0083 H         1 <0>         0.0849
     28 H6         -4.7759    1.8790   -4.5215 H         1 <0>         0.0866
     29 H7         -5.9532    2.6183   -3.4099 H         1 <0>         0.0673
     30 H8         -2.2218    6.1148    0.0568 H         1 <0>         0.2191
     31 H9          0.0021   -0.0041    0.0020 H         1 <0>         0.2099
     32 H10         2.9118    3.4753    0.8088 H         1 <0>         0.3680
     33 H11         2.3979    4.6991    0.0040 H         1 <0>         0.3832
     34 H12        -6.6486    6.0855   -1.6521 H         1 <0>         0.0722
     35 H13        -6.7138    4.5610   -0.7356 H         1 <0>         0.0544
     36 H14        -7.9414    6.3021    0.3448 H         1 <0>         0.3865
     37 H15        -2.2547    4.6167   -4.2129 H         1 <0>         0.0680
     38 H16        -2.5996    3.0549   -4.9940 H         1 <0>         0.0829
     39 H17        -3.5037    4.5102   -5.4766 H         1 <0>         0.0869
@<TRIPOS>BOND
     1    1    2 1
     2    1   27 1
     3    1   28 1
     4    1   29 1
     5    2   13 1
     6    2    3 1
     7    2   26 1
     8    3    4 1
     9    4    5 1
    10    4   11 1
    11    4    6 1
    12    6    7 1
    13    6    8 1
    14    6   24 1
    15    8    9 1
    16    9   10 1
    17    9   11 1
    18    9   14 1
    19   11   12 1
    20   11   13 1
    21   14   18 1
    22   14   15 1
    23   15   16 2
    24   15   30 1
    25   16   17 1
    26   17   22 ar
    27   17   18 ar
    28   18   19 ar
    29   19   20 ar
    30   20   21 ar
    31   20   31 1
    32   21   22 ar
    33   22   23 1
    34   23   32 1
    35   23   33 1
    36   24   25 1
    37   24   34 1
    38   24   35 1
    39   25   36 1
    40   26   37 1
    41   26   38 1
    42   26   39 1
@<TRIPOS>MOLECULE
ZINC01566904
   28    30     0     0     0
SMALL
USER_CHARGES

@<TRIPOS>ATOM
      1 C1         -0.0158    1.3119    0.0093 C.ar      1 <0>         0.3644
      2 N1          1.0888    2.0360    0.0026 N.ar      1 <0>        -0.5942
      3 C2          2.2875    1.4625   -0.0119 C.ar      1 <0>         0.5092
      4 C3          2.3582    0.0588   -0.0202 C.ar      1 <0>        -0.1135
      5 C4          1.1547   -0.6659   -0.0126 C.ar      1 <0>         0.3009
      6 N2          0.0021   -0.0041    0.0020 N.ar      1 <0>        -0.5608
      7 N3          1.5110   -1.9908   -0.0227 N.pl3     1 <0>        -0.4624
      8 C5          2.8729   -2.0476   -0.0358 C.2       1 <0>         0.2504
      9 N4          3.3680   -0.8441   -0.0343 N.2       1 <0>        -0.4635
     10 C6          0.5956   -3.1347   -0.0195 C.3       1 <0>         0.1334
     11 C7          0.8671   -4.0321   -1.2445 C.3       1 <0>        -0.1348
     12 C8          1.8138   -5.1335   -0.7062 C.3       1 <0>        -0.1288
     13 C9          1.2558   -5.3996    0.7140 C.3       1 <0>        -0.1247
     14 C10         0.8428   -4.0041    1.2258 C.3       1 <0>        -0.1358
     15 N5          3.4393    2.2295   -0.0193 N.pl3     1 <0>        -0.8178
     16 H1         -0.9693    1.8187    0.0257 H         1 <0>         0.2047
     17 H2          3.4551   -2.9572   -0.0459 H         1 <0>         0.2175
     18 H3         -0.4371   -2.7861   -0.0326 H         1 <0>         0.1112
     19 H4         -0.0615   -4.4717   -1.6086 H         1 <0>         0.0892
     20 H5          1.3557   -3.4618   -2.0345 H         1 <0>         0.0759
     21 H6          1.7503   -6.0316   -1.3206 H         1 <0>         0.0771
     22 H7          2.8402   -4.7701   -0.6562 H         1 <0>         0.0688
     23 H8          0.3901   -6.0600    0.6662 H         1 <0>         0.0736
     24 H9          2.0282   -5.8271    1.3534 H         1 <0>         0.0737
     25 H10         1.6438   -3.5750    1.8277 H         1 <0>         0.0753
     26 H11        -0.0702   -4.0782    1.8166 H         1 <0>         0.0817
     27 H12         3.3774    3.1975   -0.0138 H         1 <0>         0.4106
     28 H13         4.3085    1.7992   -0.0299 H         1 <0>         0.4188
@<TRIPOS>BOND
     1    1    6 ar
     2    1    2 ar
     3    1   16 1
     4    2    3 ar
     5    3    4 ar
     6    3   15 1
     7    4    9 1
     8    4    5 ar
     9    5    6 ar
    10    5    7 1
    11    7    8 1
    12    7   10 1
    13    8    9 2
    14    8   17 1
    15   10   14 1
    16   10   11 1
    17   10   18 1
    18   11   12 1
    19   11   19 1
    20   11   20 1
    21   12   13 1
    22   12   21 1
    23   12   22 1
    24   13   14 1
    25   13   23 1
    26   13   24 1
    27   14   25 1
    28   14   26 1
    29   15   27 1
    30   15   28 1
@<TRIPOS>MOLECULE
ZINC00012513
   31    33     0     0     0
SMALL
USER_CHARGES
9-cyclohexylpurin-6-amine
@<TRIPOS>ATOM
      1 C1          0.5056    5.6712    4.7403 C.ar      1 <0>         0.3454
      2 N1         -0.4224    5.8792    5.6568 N.ar      1 <0>        -0.5764
      3 C2         -1.6373    5.3542    5.5375 C.ar      1 <0>         0.4477
      4 C3         -1.9186    4.5667    4.4079 C.ar      1 <0>        -0.0709
      5 C4         -0.8978    4.3755    3.4619 C.ar      1 <0>         0.2898
      6 N2          0.2874    4.9413    3.6670 N.ar      1 <0>        -0.5384
      7 N3         -1.4353    3.5815    2.4806 N.pl3     1 <0>        -0.4667
      8 C5         -2.7263    3.3178    2.8299 C.2       1 <0>         0.2603
      9 N4         -3.0062    3.8922    3.9636 N.2       1 <0>        -0.4566
     10 C6         -0.7496    3.1091    1.2752 C.3       1 <0>         0.1397
     11 C7         -0.7288    1.5792    1.2668 C.3       1 <0>        -0.1282
     12 C8         -0.0127    1.0858    0.0080 C.3       1 <0>        -0.1164
     13 C9         -0.7527    1.5927   -1.2315 C.3       1 <0>        -0.1245
     14 C10        -0.7734    3.1225   -1.2231 C.3       1 <0>        -0.1163
     15 C11        -1.4896    3.6159    0.0357 C.3       1 <0>        -0.1279
     16 N5         -2.6032    5.5781    6.5029 N.pl3     1 <0>        -0.7440
     17 H1          1.4798    6.1171    4.8764 H         1 <0>         0.2057
     18 H2         -3.4143    2.7182    2.2524 H         1 <0>         0.2214
     19 H3          0.2730    3.4864    1.2675 H         1 <0>         0.1087
     20 H4         -1.7514    1.2020    1.2746 H         1 <0>         0.0733
     21 H5         -0.2017    1.2182    2.1499 H         1 <0>         0.0709
     22 H6          0.0021   -0.0041    0.0020 H         1 <0>         0.0729
     23 H7          1.0099    1.4631    0.0003 H         1 <0>         0.0677
     24 H8         -0.2425    1.2411   -2.1283 H         1 <0>         0.0692
     25 H9         -1.7753    1.2154   -1.2238 H         1 <0>         0.0660
     26 H10         0.2491    3.4998   -1.2308 H         1 <0>         0.0678
     27 H11        -1.3006    3.4836   -2.1062 H         1 <0>         0.0728
     28 H12        -1.5044    4.7058    0.0417 H         1 <0>         0.0707
     29 H13        -2.5122    3.2386    0.0434 H         1 <0>         0.0733
     30 H14        -3.3895    6.0358    6.0878 H         1 <0>         0.3695
     31 H15        -2.3969    6.1235    7.2781 H         1 <0>         0.3733
@<TRIPOS>BOND
     1    1    6 ar
     2    1    2 ar
     3    1   17 1
     4    2    3 ar
     5    3    4 ar
     6    3   16 1
     7    4    9 1
     8    4    5 ar
     9    5    6 ar
    10    5    7 1
    11    7    8 1
    12    7   10 1
    13    8    9 2
    14    8   18 1
    15   10   15 1
    16   10   11 1
    17   10   19 1
    18   11   12 1
    19   11   20 1
    20   11   21 1
    21   12   13 1
    22   12   22 1
    23   12   23 1
    24   13   14 1
    25   13   24 1
    26   13   25 1
    27   14   15 1
    28   14   26 1
    29   14   27 1
    30   15   28 1
    31   15   29 1
    32   16   30 1
    33   16   31 1
