@<TRIPOS>MOLECULE
ZINC58638454
   36    39     0     0     0
SMALL
USER_CHARGES

@<TRIPOS>ATOM
      1 C1          1.0856   -0.4596    0.7542 C.ar      1 <0>        -0.0832
      2 C2          2.2742    0.2440    0.7408 C.ar      1 <0>        -0.1072
      3 C3          2.3814    1.4102   -0.0062 C.ar      1 <0>         0.1804
      4 C4          1.2919    1.8655   -0.7379 C.ar      1 <0>        -0.1496
      5 C5          0.1054    1.1571   -0.7204 C.ar      1 <0>        -0.0148
      6 C6          0.0026   -0.0047    0.0253 C.ar      1 <0>        -0.1319
      7 Cl1        -1.2573    1.7249   -1.6338 Cl        1 <0>        -0.0755
      8 N1          3.5827    2.1243   -0.0212 N.pl3     1 <0>        -0.6509
      9 C7          4.7876    1.4521    0.0681 C.ar      1 <0>         0.4153
     10 C8          6.0341    2.2096    0.1758 C.ar      1 <0>        -0.0765
     11 C9          6.0766    3.6057    0.1939 C.ar      1 <0>        -0.1369
     12 C10         7.2943    4.2214    0.2981 C.ar      1 <0>         0.0773
     13 N2          8.4194    3.5315    0.3811 N.ar      1 <0>        -0.4714
     14 C11         8.4464    2.2147    0.3695 C.ar      1 <0>         0.1272
     15 C12         7.2551    1.5004    0.2664 C.ar      1 <0>        -0.0441
     16 C13         7.1958    0.0359    0.2463 C.ar      1 <0>        -0.1077
     17 C14         8.3565   -0.7366    0.3320 C.ar      1 <0>        -0.1123
     18 C15         8.2776   -2.0965    0.3119 C.ar      1 <0>        -0.0757
     19 C16         7.0321   -2.7341    0.2047 C.ar      1 <0>        -0.1079
     20 C17         5.8644   -1.9869    0.1182 C.ar      1 <0>        -0.0623
     21 C18         5.9309   -0.5872    0.1382 C.ar      1 <0>         0.1355
     22 N3          4.8025    0.1408    0.0611 N.ar      1 <0>        -0.5111
     23 C19         6.9625   -4.2076    0.1833 C.2       1 <0>         0.5195
     24 O1          7.9882   -4.8693    0.2588 O.co2     1 <0>        -0.6816
     25 O2          5.8791   -4.7673    0.0900 O.co2     1 <0>        -0.6793
     26 H1          1.0036   -1.3687    1.3314 H         1 <0>         0.1366
     27 H2          3.1195   -0.1121    1.3110 H         1 <0>         0.1448
     28 H3          1.3719    2.7720   -1.3194 H         1 <0>         0.1316
     29 H4         -0.9254   -0.5569    0.0374 H         1 <0>         0.1318
     30 H5          3.5711    3.0914   -0.0942 H         1 <0>         0.4165
     31 H6          5.1685    4.1865    0.1268 H         1 <0>         0.1362
     32 H7          7.3377    5.3004    0.3126 H         1 <0>         0.1575
     33 H8          9.3884    1.6910    0.4392 H         1 <0>         0.1690
     34 H9          9.3193   -0.2543    0.4140 H         1 <0>         0.1236
     35 H10         9.1791   -2.6874    0.3786 H         1 <0>         0.1360
     36 H11         4.9085   -2.4828    0.0363 H         1 <0>         0.1412
@<TRIPOS>BOND
     1    1    6 ar
     2    1    2 ar
     3    1   26 1
     4    2    3 ar
     5    2   27 1
     6    3    4 ar
     7    3    8 1
     8    4    5 ar
     9    4   28 1
    10    5    6 ar
    11    5    7 1
    12    6   29 1
    13    8    9 1
    14    8   30 1
    15    9   22 ar
    16    9   10 ar
    17   10   15 ar
    18   10   11 ar
    19   11   12 ar
    20   11   31 1
    21   12   13 ar
    22   12   32 1
    23   13   14 ar
    24   14   15 ar
    25   14   33 1
    26   15   16 ar
    27   16   21 ar
    28   16   17 ar
    29   17   18 ar
    30   17   34 1
    31   18   19 ar
    32   18   35 1
    33   19   20 ar
    34   19   23 1
    35   20   21 ar
    36   20   36 1
    37   21   22 ar
    38   23   24 2
    39   23   25 1
@<TRIPOS>MOLECULE
ZINC03814434
   62    69     0     0     0
SMALL
USER_CHARGES

@<TRIPOS>ATOM
      1 C1         -0.1295    1.5952   -0.2973 C.3       1 <0>        -0.1687
      2 C2         -0.0862    0.0696   -0.1900 C.3       1 <0>         0.3342
      3 C3          0.5692   -0.4501   -1.4637 C.3       1 <0>         0.0405
      4 H1          1.4796    0.1159   -1.6612 H         1 <0>         0.1372
      5 C4          0.9167   -1.9328   -1.2889 C.3       1 <0>        -0.0061
      6 H2          1.3963   -2.3075   -2.1932 H         1 <0>         0.1555
      7 C5          1.8785   -2.0596   -0.1021 C.3       1 <0>        -0.1827
      8 C6          1.2061   -1.5198    1.1541 C.3       1 <0>         0.2999
      9 H3          1.9797   -1.4243    1.9161 H         1 <0>         0.1550
     10 O1          0.6555   -0.2442    0.9666 O.3       1 <0>        -0.3234
     11 N1          0.2189   -2.4746    1.6600 N.pl3     1 <0>        -0.5366
     12 C7          0.4705   -3.5508    2.4739 C.ar      1 <0>         0.1469
     13 C8          1.6649   -4.0152    3.0240 C.ar      1 <0>        -0.1522
     14 C9          1.5948   -5.1456    3.8201 C.ar      1 <0>        -0.0582
     15 C10         0.4006   -5.7997    4.0696 C.ar      1 <0>        -0.1457
     16 C11        -0.7984   -5.3597    3.5358 C.ar      1 <0>        -0.0280
     17 C12        -0.7487   -4.2198    2.7307 C.ar      1 <0>        -0.1131
     18 C13        -1.7893   -3.4830    2.0197 C.ar      1 <0>         0.0276
     19 C14        -1.1442   -2.4197    1.3841 C.ar      1 <0>         0.0376
     20 C15        -1.8806   -1.5095    0.6175 C.ar      1 <0>         0.0894
     21 N2         -1.4718   -0.3951   -0.1095 N.pl3     1 <0>        -0.5183
     22 C16        -2.5611    0.1913   -0.7090 C.ar      1 <0>         0.1618
     23 C17        -2.6521    1.3277   -1.5118 C.ar      1 <0>        -0.1305
     24 C18        -3.9109    1.6745   -1.9733 C.ar      1 <0>        -0.0737
     25 C19        -5.0393    0.9368   -1.6616 C.ar      1 <0>        -0.1358
     26 C20        -4.9745   -0.1955   -0.8662 C.ar      1 <0>        -0.0503
     27 C21        -3.7147   -0.5596   -0.3919 C.ar      1 <0>        -0.1042
     28 C22        -3.2693   -1.6660    0.4845 C.ar      1 <0>        -0.0360
     29 C23        -3.9084   -2.7313    1.1102 C.ar      1 <0>        -0.0288
     30 C24        -3.1873   -3.6421    1.8754 C.ar      1 <0>        -0.1255
     31 C25        -4.1221   -4.6480    2.4030 C.2       1 <0>         0.5632
     32 O2         -3.8062   -5.5851    3.1110 O.2       1 <0>        -0.5106
     33 N3         -5.3744   -4.3851    1.9926 N.am      1 <0>        -0.7162
     34 C26        -5.3495   -3.1771    1.1601 C.3       1 <0>         0.1358
     35 N4         -0.3067   -2.7008   -1.0216 N.4       1 <0>        -0.5252
     36 C27         0.0145   -4.1336   -0.9773 C.3       1 <0>        -0.0497
     37 O3         -0.3340   -0.2979   -2.5607 O.3       1 <0>        -0.3614
     38 C28         0.3101   -0.0933   -3.8198 C.3       1 <0>         0.0162
     39 H4          0.8261    2.0094    0.0240 H         1 <0>         0.0984
     40 H5         -0.3202    1.8814   -1.3317 H         1 <0>         0.1036
     41 H6         -0.9255    1.9818    0.3392 H         1 <0>         0.0921
     42 H7          2.1370   -3.1081    0.0458 H         1 <0>         0.1233
     43 H8          2.7835   -1.4869   -0.3048 H         1 <0>         0.1455
     44 H9          2.6036   -3.5149    2.8368 H         1 <0>         0.1365
     45 H10         2.5026   -5.5304    4.2610 H         1 <0>         0.1359
     46 H11         0.4045   -6.6780    4.6980 H         1 <0>         0.1352
     47 H12        -1.7278   -5.8736    3.7323 H         1 <0>         0.1600
     48 H13        -1.7792    1.9122   -1.7624 H         1 <0>         0.1440
     49 H14        -4.0153    2.5500   -2.5970 H         1 <0>         0.1336
     50 H15        -5.9967    1.2527   -2.0488 H         1 <0>         0.1332
     51 H16        -5.8575   -0.7687   -0.6249 H         1 <0>         0.1415
     52 H17        -6.1628   -4.9065    2.2103 H         1 <0>         0.4348
     53 H18        -5.9671   -2.3994    1.6094 H         1 <0>         0.1115
     54 H19        -5.7060   -3.4063    0.1559 H         1 <0>         0.1103
     55 H20        -0.6958   -2.4158   -0.1353 H         1 <0>         0.4186
     56 H21         0.4349   -4.4415   -1.9347 H         1 <0>         0.1256
     57 H22         0.7403   -4.3189   -0.1854 H         1 <0>         0.1191
     58 H23        -0.8932   -4.7035   -0.7789 H         1 <0>         0.1256
     59 H24         0.9168    0.8112   -3.7748 H         1 <0>         0.0633
     60 H25         0.9482   -0.9479   -4.0446 H         1 <0>         0.0514
     61 H26        -0.4433    0.0130   -4.6003 H         1 <0>         0.1100
     62 H27        -0.9785   -2.5293   -1.7546 H         1 <0>         0.4274
@<TRIPOS>BOND
     1    1    2 1
     2    1   39 1
     3    1   40 1
     4    1   41 1
     5    2   10 1
     6    2   21 1
     7    2    3 1
     8    3    4 1
     9    3    5 1
    10    3   37 1
    11    5    6 1
    12    5    7 1
    13    5   35 1
    14    7    8 1
    15    7   42 1
    16    7   43 1
    17    8    9 1
    18    8   10 1
    19    8   11 1
    20   11   19 1
    21   11   12 1
    22   12   17 ar
    23   12   13 ar
    24   13   14 ar
    25   13   44 1
    26   14   15 ar
    27   14   45 1
    28   15   16 ar
    29   15   46 1
    30   16   17 ar
    31   16   47 1
    32   17   18 1
    33   18   30 ar
    34   18   19 ar
    35   19   20 ar
    36   20   28 ar
    37   20   21 1
    38   21   22 1
    39   22   27 ar
    40   22   23 ar
    41   23   24 ar
    42   23   48 1
    43   24   25 ar
    44   24   49 1
    45   25   26 ar
    46   25   50 1
    47   26   27 ar
    48   26   51 1
    49   27   28 1
    50   28   29 ar
    51   29   34 1
    52   29   30 ar
    53   30   31 1
    54   31   32 2
    55   31   33 am
    56   33   34 1
    57   33   52 1
    58   34   53 1
    59   34   54 1
    60   35   36 1
    61   35   55 1
    62   35   62 1
    63   36   56 1
    64   36   57 1
    65   36   58 1
    66   37   38 1
    67   38   59 1
    68   38   60 1
    69   38   61 1
@<TRIPOS>MOLECULE
ZINC02532865
   21    22     0     0     0
SMALL
USER_CHARGES
5-bromo-7-methoxy-benzofuran-2-carboxylic acid
@<TRIPOS>ATOM
      1 C1         -6.9123    0.0419    0.0678 C.3       1 <0>         0.0252
      2 O1         -5.4838    0.0773    0.0543 O.3       1 <0>        -0.3050
      3 C2         -4.8368   -1.1184    0.0412 C.ar      1 <0>         0.1578
      4 C3         -5.5584   -2.2976    0.0418 C.ar      1 <0>        -0.1842
      5 C4         -4.9096   -3.5251    0.0286 C.ar      1 <0>        -0.0720
      6 C5         -3.5441   -3.5875    0.0147 C.ar      1 <0>        -0.0745
      7 C6         -2.7946   -2.4074    0.0147 C.ar      1 <0>        -0.0883
      8 C7         -3.4429   -1.1596    0.0276 C.ar      1 <0>         0.0295
      9 O2         -2.4913   -0.2050    0.0243 O.3       1 <0>        -0.1534
     10 C8         -1.2593   -0.7554    0.0100 C.2       1 <0>         0.0461
     11 C9         -1.3630   -2.1104   -0.0017 C.2       1 <0>        -0.1967
     12 C10         0.0021   -0.0041    0.0020 C.2       1 <0>         0.5225
     13 O3          1.0631   -0.5976   -0.0113 O.co2     1 <0>        -0.5951
     14 Br1        -5.9222   -5.1221    0.0291 Br        1 <0>        -0.0540
     15 H1         -7.2714   -0.4757   -0.8217 H         1 <0>         0.0567
     16 H2         -7.2543   -0.4859    0.9581 H         1 <0>         0.0567
     17 H3         -7.3010    1.0602    0.0774 H         1 <0>         0.1022
     18 H4         -6.6378   -2.2636    0.0524 H         1 <0>         0.1441
     19 H5         -3.0458   -4.5455    0.0044 H         1 <0>         0.1376
     20 H6         -0.5520   -2.8235   -0.0178 H         1 <0>         0.1671
     21 O4         -0.0162    1.3444    0.0094 O.co2     1 <0>        -0.7220
@<TRIPOS>BOND
     1    1    2 1
     2    1   15 1
     3    1   16 1
     4    1   17 1
     5    2    3 1
     6    3    8 ar
     7    3    4 ar
     8    4    5 ar
     9    4   18 1
    10    5    6 ar
    11    5   14 1
    12    6    7 ar
    13    6   19 1
    14    7   11 1
    15    7    8 ar
    16    8    9 1
    17    9   10 1
    18   10   11 2
    19   10   12 1
    20   11   20 1
    21   12   13 2
    22   12   21 1
@<TRIPOS>MOLECULE
ZINC00151407
   17    18     0     0     0
SMALL
USER_CHARGES
5-bromobenzofuran-2-carboxylic acid
@<TRIPOS>ATOM
      1 C1          0.5341    7.5647    0.0368 C.ar      1 <0>        -0.0824
      2 C2         -0.1519    6.3692    0.0373 C.ar      1 <0>        -0.0958
      3 C3          0.5489    5.1690    0.0246 C.ar      1 <0>         0.0556
      4 C4          1.9563    5.1963    0.0113 C.ar      1 <0>        -0.1253
      5 C5          2.6332    6.4181    0.0110 C.ar      1 <0>        -0.0398
      6 C6          1.9227    7.5862    0.0232 C.ar      1 <0>        -0.1123
      7 Br1         2.8365    9.2417    0.0228 Br        1 <0>        -0.0592
      8 C7          2.3798    3.7968   -0.0003 C.2       1 <0>        -0.1935
      9 C8          1.2390    3.0583    0.0067 C.2       1 <0>         0.0387
     10 O1          0.1663    3.8772    0.0154 O.3       1 <0>        -0.1651
     11 C9          1.1821    1.5914   -0.0007 C.2       1 <0>         0.5224
     12 O2          2.2106    0.9431   -0.0140 O.co2     1 <0>        -0.5960
     13 H1         -0.0143    8.4950    0.0467 H         1 <0>         0.1393
     14 H2         -1.2318    6.3651    0.0472 H         1 <0>         0.1394
     15 H3          3.7129    6.4401    0.0012 H         1 <0>         0.1346
     16 H4          3.3938    3.4252   -0.0120 H         1 <0>         0.1640
     17 O3         -0.0110    0.9628    0.0073 O.co2     1 <0>        -0.7244
@<TRIPOS>BOND
     1    1    6 ar
     2    1    2 ar
     3    1   13 1
     4    2    3 ar
     5    2   14 1
     6    3   10 1
     7    3    4 ar
     8    4    5 ar
     9    4    8 1
    10    5    6 ar
    11    5   15 1
    12    6    7 1
    13    8    9 2
    14    8   16 1
    15    9   10 1
    16    9   11 1
    17   11   12 2
    18   11   17 1
@<TRIPOS>MOLECULE
ZINC12576047
   24    25     0     0     0
SMALL
USER_CHARGES
(5Z)-5-[[3-(trifluoromethyl)phenyl]methylene]thiazolidine-2,4-dione
@<TRIPOS>ATOM
      1 C1          0.4438    1.3547    1.0268 C.ar      1 <0>        -0.1200
      2 C2          0.3133    0.0035    0.7846 C.ar      1 <0>        -0.0462
      3 C3          1.3850   -0.7122    0.2399 C.ar      1 <0>        -0.0946
      4 C4          2.5817   -0.0493   -0.0546 C.ar      1 <0>        -0.0449
      5 C5          2.6959    1.3018    0.1936 C.ar      1 <0>        -0.1796
      6 C6          1.6307    2.0028    0.7327 C.ar      1 <0>        -0.0448
      7 C7          3.9836    2.0178   -0.1228 C.3       1 <0>         0.5071
      8 F1          3.9388    2.4999   -1.4353 F         1 <0>        -0.1716
      9 F2          4.1513    3.0885    0.7619 F         1 <0>        -0.1735
     10 F3          5.0561    1.1296    0.0114 F         1 <0>        -0.1720
     11 C8          1.2544   -2.1529   -0.0220 C.2       1 <0>         0.0722
     12 C9          2.2231   -2.8077   -0.7084 C.2       1 <0>        -0.2103
     13 C10         2.3968   -4.2571   -0.9424 C.2       1 <0>         0.5631
     14 O1          1.6124   -5.0750   -0.4994 O.2       1 <0>        -0.4660
     15 N1          3.4482   -4.6189   -1.6582 N.am      1 <0>        -0.6842
     16 C11         4.3147   -3.7090   -2.1476 C.2       1 <0>         0.5348
     17 O2          5.3132   -3.9000   -2.8154 O.2       1 <0>        -0.4120
     18 S1          3.6373   -2.1553   -1.5859 S.3       1 <0>        -0.0363
     19 H1         -0.3840    1.9096    1.4430 H         1 <0>         0.1469
     20 H2         -0.6137   -0.5008    1.0143 H         1 <0>         0.1469
     21 H3          3.4137   -0.5948   -0.4749 H         1 <0>         0.1465
     22 H4          1.7265    3.0612    0.9249 H         1 <0>         0.1450
     23 H5          0.3868   -2.6898    0.3323 H         1 <0>         0.1711
     24 H6          3.5997   -5.5605   -1.8351 H         1 <0>         0.4225
@<TRIPOS>BOND
     1    1    6 ar
     2    1    2 ar
     3    1   19 1
     4    2    3 ar
     5    2   20 1
     6    3    4 ar
     7    3   11 1
     8    4    5 ar
     9    4   21 1
    10    5    6 ar
    11    5    7 1
    12    6   22 1
    13    7    8 1
    14    7    9 1
    15    7   10 1
    16   11   12 2
    17   11   23 1
    18   12   18 1
    19   12   13 1
    20   13   14 2
    21   13   15 am
    22   15   16 am
    23   15   24 1
    24   16   17 2
    25   16   18 1
@<TRIPOS>MOLECULE
ZINC13647791
   43    46     0     0     0
SMALL
USER_CHARGES

@<TRIPOS>ATOM
      1 C1         -0.0166    1.3699    0.0096 C.ar      1 <0>        -0.0800
      2 C2          1.1572    2.1045    0.0023 C.ar      1 <0>        -0.1190
      3 C3          2.3694    1.4373   -0.0129 C.ar      1 <0>        -0.0394
      4 C4          2.3887    0.0627   -0.0205 C.ar      1 <0>        -0.1883
      5 C5          1.2179   -0.7095   -0.0134 C.ar      1 <0>         0.1191
      6 C6          0.0021   -0.0041    0.0020 C.ar      1 <0>        -0.1207
      7 N1          1.3955   -2.0811   -0.0225 N.pl3     1 <0>        -0.6290
      8 C7          2.6545   -2.6113   -0.0374 C.2       1 <0>         0.2414
      9 C8          3.0385   -3.9533   -0.0487 C.2       1 <0>        -0.1370
     10 C9          2.0433   -4.9829   -0.0452 C.1       1 <0>         0.2720
     11 N2          1.2537   -5.7996   -0.0424 N.1       1 <0>        -0.4249
     12 C10         4.4680   -4.3104   -0.0642 C.ar      1 <0>         0.3088
     13 C11         4.8666   -5.6555   -0.0815 C.ar      1 <0>        -0.2844
     14 C12         6.2058   -5.9409   -0.0954 C.ar      1 <0>         0.2007
     15 N3          7.0848   -4.9482   -0.0923 N.ar      1 <0>        -0.5794
     16 C13         6.6886   -3.6836   -0.0759 C.ar      1 <0>         0.5826
     17 N4          5.4049   -3.3593   -0.0676 N.ar      1 <0>        -0.5825
     18 N5          7.6395   -2.6778   -0.0728 N.pl3     1 <0>        -0.7005
     19 C14         9.0646   -3.0170   -0.0875 C.3       1 <0>         0.1450
     20 C15         9.8948   -1.7318   -0.0805 C.3       1 <0>        -0.0888
     21 C16        11.3608   -2.0808   -0.0957 C.ar      1 <0>        -0.1340
     22 C17        12.0518   -2.2615    1.0929 C.ar      1 <0>        -0.0689
     23 C18        13.3992   -2.5815    1.0307 C.ar      1 <0>        -0.1701
     24 C19        14.0048   -2.7089   -0.2053 C.ar      1 <0>         0.0971
     25 N6         13.3163   -2.5294   -1.3154 N.ar      1 <0>        -0.4833
     26 C20        12.0320   -2.2302   -1.2943 C.ar      1 <0>         0.1060
     27 S1          3.6842   -1.1528   -0.0394 S.3       1 <0>         0.1837
     28 H1         -0.9648    1.8866    0.0260 H         1 <0>         0.1374
     29 H2          1.1270    3.1841    0.0081 H         1 <0>         0.1413
     30 H3          3.2952    1.9934   -0.0191 H         1 <0>         0.1400
     31 H4         -0.9301   -0.5494    0.0080 H         1 <0>         0.1308
     32 H5          0.6237   -2.6686   -0.0180 H         1 <0>         0.4164
     33 H6          4.1333   -6.4484   -0.0833 H         1 <0>         0.1381
     34 H7          6.5434   -6.9667   -0.1085 H         1 <0>         0.1667
     35 H8          7.3622   -1.7483   -0.0608 H         1 <0>         0.4130
     36 H9          9.3060   -3.6103    0.7944 H         1 <0>         0.0692
     37 H10         9.2920   -3.5916   -0.9854 H         1 <0>         0.0705
     38 H11         9.6534   -1.1385   -0.9624 H         1 <0>         0.0847
     39 H12         9.6674   -1.1572    0.8174 H         1 <0>         0.0829
     40 H13        11.5523   -2.1551    2.0445 H         1 <0>         0.1348
     41 H14        13.9686   -2.7291    1.9364 H         1 <0>         0.1364
     42 H15        15.0542   -2.9580   -0.2624 H         1 <0>         0.1564
     43 H16        11.4998   -2.0959   -2.2244 H         1 <0>         0.1551
@<TRIPOS>BOND
     1    1    6 ar
     2    1    2 ar
     3    1   28 1
     4    2    3 ar
     5    2   29 1
     6    3    4 ar
     7    3   30 1
     8    4   27 1
     9    4    5 ar
    10    5    6 ar
    11    5    7 1
    12    6   31 1
    13    7    8 1
    14    7   32 1
    15    8    9 2
    16    8   27 1
    17    9   10 1
    18    9   12 1
    19   10   11 3
    20   12   17 ar
    21   12   13 ar
    22   13   14 ar
    23   13   33 1
    24   14   15 ar
    25   14   34 1
    26   15   16 ar
    27   16   17 ar
    28   16   18 1
    29   18   19 1
    30   18   35 1
    31   19   20 1
    32   19   36 1
    33   19   37 1
    34   20   21 1
    35   20   38 1
    36   20   39 1
    37   21   26 ar
    38   21   22 ar
    39   22   23 ar
    40   22   40 1
    41   23   24 ar
    42   23   41 1
    43   24   25 ar
    44   24   42 1
    45   25   26 ar
    46   26   43 1
@<TRIPOS>MOLECULE
ZINC13126601
   35    37     0     0     0
SMALL
USER_CHARGES

@<TRIPOS>ATOM
      1 C1         -0.0167    1.3792    0.0096 C.ar      1 <0>        -0.1050
      2 C2          1.1686    2.0926    0.0021 C.ar      1 <0>        -0.1170
      3 C3          2.3774    1.4273   -0.0135 C.ar      1 <0>        -0.0932
      4 C4          2.4027    0.0332   -0.0212 C.ar      1 <0>        -0.0721
      5 C5          1.2047   -0.6804   -0.0131 C.ar      1 <0>        -0.0917
      6 C6          0.0021   -0.0041    0.0020 C.ar      1 <0>        -0.1192
      7 C7          3.6975   -0.6872   -0.0384 C.ar      1 <0>         0.0992
      8 C8          3.9561   -1.7154    0.8656 C.ar      1 <0>        -0.2151
      9 C9          5.1839   -2.3698    0.8191 C.ar      1 <0>         0.2606
     10 N1          6.1101   -2.0298   -0.0709 N.ar      1 <0>        -0.5390
     11 C10         5.9142   -1.0621   -0.9496 C.ar      1 <0>         0.4660
     12 C11         4.6998   -0.3541   -0.9751 C.ar      1 <0>        -0.1552
     13 C12         4.4854    0.6903   -1.9311 C.1       1 <0>         0.2578
     14 N2          4.3153    1.5188   -2.6895 N.1       1 <0>        -0.4123
     15 N3          6.9114   -0.7465   -1.8561 N.pl3     1 <0>        -0.8357
     16 C13         5.4628   -3.4636    1.7786 C.ar      1 <0>        -0.0734
     17 C14         4.4979   -3.8349    2.7152 C.ar      1 <0>        -0.0722
     18 C15         4.7606   -4.8529    3.6065 C.ar      1 <0>        -0.1513
     19 C16         5.9843   -5.5089    3.5729 C.ar      1 <0>         0.1261
     20 C17         6.9472   -5.1417    2.6417 C.ar      1 <0>        -0.1542
     21 C18         6.6887   -4.1284    1.7438 C.ar      1 <0>        -0.0526
     22 O1          6.2402   -6.5113    4.4529 O.3       1 <0>        -0.4992
     23 H1         -0.9603    1.9042    0.0260 H         1 <0>         0.1268
     24 H2          1.1477    3.1724    0.0082 H         1 <0>         0.1273
     25 H3          3.3021    1.9853   -0.0200 H         1 <0>         0.1212
     26 H4          1.2182   -1.7603   -0.0194 H         1 <0>         0.1301
     27 H5         -0.9264   -0.5557    0.0079 H         1 <0>         0.1294
     28 H6          3.2123   -2.0012    1.5946 H         1 <0>         0.1481
     29 H7          7.7494   -1.2348   -1.8447 H         1 <0>         0.4129
     30 H8          6.7722   -0.0370   -2.5028 H         1 <0>         0.4113
     31 H9          3.5462   -3.3250    2.7420 H         1 <0>         0.1355
     32 H10         4.0141   -5.1406    4.3321 H         1 <0>         0.1352
     33 H11         7.8979   -5.6535    2.6184 H         1 <0>         0.1340
     34 H12         7.4360   -3.8466    1.0168 H         1 <0>         0.1416
     35 H13         5.9842   -7.3882    4.1355 H         1 <0>         0.3952
@<TRIPOS>BOND
     1    1    6 ar
     2    1    2 ar
     3    1   23 1
     4    2    3 ar
     5    2   24 1
     6    3    4 ar
     7    3   25 1
     8    4    5 ar
     9    4    7 1
    10    5    6 ar
    11    5   26 1
    12    6   27 1
    13    7   12 ar
    14    7    8 ar
    15    8    9 ar
    16    8   28 1
    17    9   10 ar
    18    9   16 1
    19   10   11 ar
    20   11   12 ar
    21   11   15 1
    22   12   13 1
    23   13   14 3
    24   15   29 1
    25   15   30 1
    26   16   21 ar
    27   16   17 ar
    28   17   18 ar
    29   17   31 1
    30   18   19 ar
    31   18   32 1
    32   19   20 ar
    33   19   22 1
    34   20   21 ar
    35   20   33 1
    36   21   34 1
    37   22   35 1
@<TRIPOS>MOLECULE
ZINC13657821
   35    38     0     0     0
SMALL
USER_CHARGES

@<TRIPOS>ATOM
      1 C1         -0.0166    1.3760    0.0096 C.ar      1 <0>        -0.1446
      2 C2          1.1700    2.0907    0.0021 C.ar      1 <0>        -0.0535
      3 C3          2.3867    1.4350   -0.0144 C.ar      1 <0>        -0.1435
      4 C4          2.4251    0.0514   -0.0227 C.ar      1 <0>         0.1703
      5 C5          1.2222   -0.6742   -0.0124 C.ar      1 <0>        -0.1661
      6 C6          0.0021   -0.0041    0.0020 C.ar      1 <0>        -0.0565
      7 C7          1.2957   -2.1473   -0.0123 C.2       1 <0>         0.2816
      8 C8          2.5086   -2.7315    0.3074 C.2       1 <0>        -0.2414
      9 C9          2.6288   -4.1255    0.3082 C.2       1 <0>         0.1471
     10 C10         1.4997   -4.9037   -0.0158 C.2       1 <0>        -0.1591
     11 C11         0.2810   -4.2548   -0.3274 C.2       1 <0>         0.5485
     12 N1          0.2067   -2.9101   -0.3179 N.am      1 <0>        -0.5901
     13 O1         -0.7051   -4.9156   -0.6059 O.2       1 <0>        -0.5204
     14 C12         1.5842   -6.3332   -0.0301 C.1       1 <0>         0.2731
     15 N2          1.6513   -7.4671   -0.0414 N.1       1 <0>        -0.4014
     16 C13         3.9177   -4.7705    0.6425 C.ar      1 <0>        -0.0843
     17 C14         4.4513   -4.6457    1.9262 C.ar      1 <0>        -0.0793
     18 C15         5.6532   -5.2491    2.2320 C.ar      1 <0>        -0.1071
     19 C16         6.3306   -5.9774    1.2681 C.ar      1 <0>        -0.0188
     20 C17         5.8061   -6.1043   -0.0074 C.ar      1 <0>        -0.1050
     21 C18         4.6018   -5.5109   -0.3229 C.ar      1 <0>        -0.0735
     22 Cl1         7.8432   -6.7336    1.6602 Cl        1 <0>        -0.0578
     23 C19         3.6825   -1.8569    0.6597 C.3       1 <0>         0.1331
     24 O2          3.6046   -0.6161   -0.0427 O.3       1 <0>        -0.3024
     25 H1         -0.9604    1.9009    0.0259 H         1 <0>         0.1377
     26 H2          1.1442    3.1704    0.0089 H         1 <0>         0.1406
     27 H3          3.3061    2.0015   -0.0212 H         1 <0>         0.1452
     28 H4         -0.9236   -0.5603    0.0069 H         1 <0>         0.1318
     29 H5          3.9243   -4.0775    2.6784 H         1 <0>         0.1411
     30 H6          6.0671   -5.1532    3.2249 H         1 <0>         0.1433
     31 H7          6.3390   -6.6728   -0.7552 H         1 <0>         0.1423
     32 H8          4.1914   -5.6145   -1.3165 H         1 <0>         0.1377
     33 H9          3.6803   -1.6649    1.7327 H         1 <0>         0.0811
     34 H10         4.6068   -2.3673    0.3891 H         1 <0>         0.1258
     35 H11        -0.6346   -2.4771   -0.5313 H         1 <0>         0.4244
@<TRIPOS>BOND
     1    1    6 ar
     2    1    2 ar
     3    1   25 1
     4    2    3 ar
     5    2   26 1
     6    3    4 ar
     7    3   27 1
     8    4   24 1
     9    4    5 ar
    10    5    6 ar
    11    5    7 1
    12    6   28 1
    13    7   12 1
    14    7    8 2
    15    8    9 1
    16    8   23 1
    17    9   10 2
    18    9   16 1
    19   10   11 1
    20   10   14 1
    21   11   12 am
    22   11   13 2
    23   12   35 1
    24   14   15 3
    25   16   21 ar
    26   16   17 ar
    27   17   18 ar
    28   17   29 1
    29   18   19 ar
    30   18   30 1
    31   19   20 ar
    32   19   22 1
    33   20   21 ar
    34   20   31 1
    35   21   32 1
    36   23   24 1
    37   23   33 1
    38   23   34 1
@<TRIPOS>MOLECULE
ZINC13657821
   34    37     0     0     0
SMALL
USER_CHARGES

@<TRIPOS>ATOM
      1 C1         -0.0167    1.3772    0.0096 C.ar      1 <0>        -0.1590
      2 C2          1.1700    2.0902    0.0021 C.ar      1 <0>        -0.0846
      3 C3          2.3854    1.4321   -0.0152 C.ar      1 <0>        -0.1563
      4 C4          2.4212    0.0480   -0.0237 C.ar      1 <0>         0.1444
      5 C5          1.2190   -0.6734   -0.0124 C.ar      1 <0>        -0.1086
      6 C6          0.0021   -0.0041    0.0020 C.ar      1 <0>        -0.0439
      7 C7          1.2913   -2.1535   -0.0106 C.ar      1 <0>         0.2606
      8 C8          2.5183   -2.7379    0.3138 C.ar      1 <0>        -0.3010
      9 C9          2.6344   -4.1219    0.3190 C.ar      1 <0>         0.0869
     10 C10         1.4891   -4.8852   -0.0040 C.ar      1 <0>        -0.2110
     11 C11         0.2941   -4.2180   -0.3132 C.ar      1 <0>         0.4627
     12 N1          0.2354   -2.8979   -0.3065 N.ar      1 <0>        -0.5480
     13 O1         -0.8127   -4.9357   -0.6223 O.3       1 <0>        -0.6669
     14 C12         1.5478   -6.3160   -0.0160 C.1       1 <0>         0.3057
     15 N2          1.5944   -7.4510   -0.0255 N.1       1 <0>        -0.4800
     16 C13         3.9200   -4.7786    0.6527 C.ar      1 <0>        -0.0359
     17 C14         5.0289   -4.6073   -0.1755 C.ar      1 <0>        -0.0924
     18 C15         6.2234   -5.2211    0.1398 C.ar      1 <0>        -0.1090
     19 C16         6.3226   -6.0060    1.2762 C.ar      1 <0>        -0.0355
     20 C17         5.2246   -6.1797    2.1017 C.ar      1 <0>        -0.1066
     21 C18         4.0270   -5.5655    1.7991 C.ar      1 <0>        -0.0854
     22 Cl1         7.8289   -6.7754    1.6671 Cl        1 <0>        -0.0782
     23 C19         3.6886   -1.8575    0.6596 C.3       1 <0>         0.1370
     24 O2          3.6015   -0.6191   -0.0458 O.3       1 <0>        -0.3170
     25 H1         -0.9601    1.9025    0.0260 H         1 <0>         0.1240
     26 H2          1.1459    3.1699    0.0095 H         1 <0>         0.1251
     27 H3          3.3059    1.9969   -0.0225 H         1 <0>         0.1297
     28 H4         -0.9238   -0.5601    0.0076 H         1 <0>         0.1387
     29 H5          4.9524   -3.9956   -1.0623 H         1 <0>         0.1385
     30 H6          7.0827   -5.0894   -0.5011 H         1 <0>         0.1352
     31 H7          5.3072   -6.7932    2.9867 H         1 <0>         0.1339
     32 H8          3.1725   -5.6977    2.4462 H         1 <0>         0.1336
     33 H9          3.6892   -1.6627    1.7321 H         1 <0>         0.0581
     34 H10         4.6144   -2.3640    0.3867 H         1 <0>         0.1055
@<TRIPOS>BOND
     1    1    6 ar
     2    1    2 ar
     3    1   25 1
     4    2    3 ar
     5    2   26 1
     6    3    4 ar
     7    3   27 1
     8    4   24 1
     9    4    5 ar
    10    5    6 ar
    11    5    7 1
    12    6   28 1
    13    7   12 ar
    14    7    8 ar
    15    8    9 ar
    16    8   23 1
    17    9   10 ar
    18    9   16 1
    19   10   11 ar
    20   10   14 1
    21   11   12 ar
    22   11   13 1
    23   14   15 3
    24   16   21 ar
    25   16   17 ar
    26   17   18 ar
    27   17   29 1
    28   18   19 ar
    29   18   30 1
    30   19   20 ar
    31   19   22 1
    32   20   21 ar
    33   20   31 1
    34   21   32 1
    35   23   24 1
    36   23   33 1
    37   23   34 1
@<TRIPOS>MOLECULE
ZINC13657827
   35    38     0     0     0
SMALL
USER_CHARGES

@<TRIPOS>ATOM
      1 C1         -0.0166    1.3760    0.0096 C.ar      1 <0>        -0.1443
      2 C2          1.1700    2.0907    0.0021 C.ar      1 <0>        -0.0543
      3 C3          2.3867    1.4350   -0.0145 C.ar      1 <0>        -0.1431
      4 C4          2.4251    0.0514   -0.0228 C.ar      1 <0>         0.1697
      5 C5          1.2222   -0.6742   -0.0126 C.ar      1 <0>        -0.1641
      6 C6          0.0021   -0.0041    0.0020 C.ar      1 <0>        -0.0569
      7 C7          1.2957   -2.1473   -0.0127 C.2       1 <0>         0.2792
      8 C8          2.5086   -2.7316    0.3068 C.2       1 <0>        -0.2364
      9 C9          2.6288   -4.1256    0.3072 C.2       1 <0>         0.1434
     10 C10         1.4996   -4.9038   -0.0169 C.2       1 <0>        -0.1502
     11 C11         0.2809   -4.2547   -0.3282 C.2       1 <0>         0.5487
     12 N1          0.2066   -2.9101   -0.3183 N.am      1 <0>        -0.5893
     13 O1         -0.7052   -4.9155   -0.6064 O.2       1 <0>        -0.5201
     14 C12         1.5842   -6.3332   -0.0315 C.1       1 <0>         0.2740
     15 N2          1.6512   -7.4672   -0.0431 N.1       1 <0>        -0.3999
     16 C13         3.9176   -4.7706    0.6413 C.ar      1 <0>        -0.0804
     17 C14         4.9647   -4.7643   -0.2817 C.ar      1 <0>        -0.0823
     18 C15         6.1637   -5.3674    0.0357 C.ar      1 <0>        -0.1104
     19 C16         6.3309   -5.9784    1.2665 C.ar      1 <0>        -0.0890
     20 C17         5.2981   -5.9893    2.1861 C.ar      1 <0>        -0.1064
     21 C18         4.0940   -5.3836    1.8837 C.ar      1 <0>        -0.0120
     22 Cl1         2.8011   -5.3906    3.0422 Cl        1 <0>        -0.0524
     23 C19         3.6826   -1.8571    0.6591 C.3       1 <0>         0.1324
     24 O2          3.6046   -0.6161   -0.0431 O.3       1 <0>        -0.3024
     25 H1         -0.9604    1.9009    0.0260 H         1 <0>         0.1375
     26 H2          1.1442    3.1704    0.0090 H         1 <0>         0.1404
     27 H3          3.3061    2.0015   -0.0213 H         1 <0>         0.1451
     28 H4         -0.9236   -0.5603    0.0077 H         1 <0>         0.1317
     29 H5          4.8361   -4.2885   -1.2426 H         1 <0>         0.1411
     30 H6          6.9743   -5.3633   -0.6780 H         1 <0>         0.1392
     31 H7          7.2720   -6.4490    1.5095 H         1 <0>         0.1393
     32 H8          5.4349   -6.4680    3.1445 H         1 <0>         0.1416
     33 H9          3.6804   -1.6652    1.7321 H         1 <0>         0.0812
     34 H10         4.6068   -2.3674    0.3883 H         1 <0>         0.1252
     35 H11        -0.6347   -2.4770   -0.5316 H         1 <0>         0.4243
@<TRIPOS>BOND
     1    1    6 ar
     2    1    2 ar
     3    1   25 1
     4    2    3 ar
     5    2   26 1
     6    3    4 ar
     7    3   27 1
     8    4   24 1
     9    4    5 ar
    10    5    6 ar
    11    5    7 1
    12    6   28 1
    13    7   12 1
    14    7    8 2
    15    8    9 1
    16    8   23 1
    17    9   10 2
    18    9   16 1
    19   10   11 1
    20   10   14 1
    21   11   12 am
    22   11   13 2
    23   12   35 1
    24   14   15 3
    25   16   21 ar
    26   16   17 ar
    27   17   18 ar
    28   17   29 1
    29   18   19 ar
    30   18   30 1
    31   19   20 ar
    32   19   31 1
    33   20   21 ar
    34   20   32 1
    35   21   22 1
    36   23   24 1
    37   23   33 1
    38   23   34 1
@<TRIPOS>MOLECULE
ZINC13657827
   34    37     0     0     0
SMALL
USER_CHARGES

@<TRIPOS>ATOM
      1 C1         -0.0167    1.3772    0.0096 C.ar      1 <0>        -0.1595
      2 C2          1.1700    2.0902    0.0021 C.ar      1 <0>        -0.0851
      3 C3          2.3854    1.4321   -0.0143 C.ar      1 <0>        -0.1568
      4 C4          2.4213    0.0480   -0.0228 C.ar      1 <0>         0.1449
      5 C5          1.2190   -0.6734   -0.0124 C.ar      1 <0>        -0.1076
      6 C6          0.0021   -0.0041    0.0020 C.ar      1 <0>        -0.0442
      7 C7          1.2913   -2.1535   -0.0106 C.ar      1 <0>         0.2599
      8 C8          2.5180   -2.7380    0.3147 C.ar      1 <0>        -0.2952
      9 C9          2.6341   -4.1219    0.3200 C.ar      1 <0>         0.0892
     10 C10         1.4890   -4.8853   -0.0039 C.ar      1 <0>        -0.2057
     11 C11         0.2942   -4.2180   -0.3140 C.ar      1 <0>         0.4633
     12 N1          0.2356   -2.8979   -0.3073 N.ar      1 <0>        -0.5480
     13 O1         -0.8122   -4.9356   -0.6244 O.3       1 <0>        -0.6687
     14 C12         1.5477   -6.3160   -0.0159 C.1       1 <0>         0.3076
     15 N2          1.5942   -7.4510   -0.0253 N.1       1 <0>        -0.4825
     16 C13         3.9193   -4.7786    0.6546 C.ar      1 <0>        -0.0354
     17 C14         4.2100   -5.1160    1.9762 C.ar      1 <0>        -0.0903
     18 C15         5.4084   -5.7273    2.2818 C.ar      1 <0>        -0.1157
     19 C16         6.3219   -6.0061    1.2804 C.ar      1 <0>        -0.1097
     20 C17         6.0406   -5.6745   -0.0322 C.ar      1 <0>        -0.1127
     21 C18         4.8416   -5.0672   -0.3520 C.ar      1 <0>        -0.0195
     22 Cl1         4.4860   -4.6582   -2.0013 Cl        1 <0>        -0.0552
     23 C19         3.6881   -1.8575    0.6615 C.3       1 <0>         0.1426
     24 O2          3.6015   -0.6191   -0.0441 O.3       1 <0>        -0.3158
     25 H1         -0.9601    1.9025    0.0260 H         1 <0>         0.1236
     26 H2          1.1459    3.1699    0.0095 H         1 <0>         0.1247
     27 H3          3.3059    1.9969   -0.0209 H         1 <0>         0.1292
     28 H4         -0.9238   -0.5601    0.0069 H         1 <0>         0.1385
     29 H5          3.4984   -4.8989    2.7591 H         1 <0>         0.1339
     30 H6          5.6344   -5.9886    3.3050 H         1 <0>         0.1294
     31 H7          7.2588   -6.4845    1.5252 H         1 <0>         0.1299
     32 H8          6.7575   -5.8946   -0.8094 H         1 <0>         0.1333
     33 H9          3.6879   -1.6628    1.7339 H         1 <0>         0.0577
     34 H10         4.6141   -2.3640    0.3893 H         1 <0>         0.0997
@<TRIPOS>BOND
     1    1    6 ar
     2    1    2 ar
     3    1   25 1
     4    2    3 ar
     5    2   26 1
     6    3    4 ar
     7    3   27 1
     8    4   24 1
     9    4    5 ar
    10    5    6 ar
    11    5    7 1
    12    6   28 1
    13    7   12 ar
    14    7    8 ar
    15    8    9 ar
    16    8   23 1
    17    9   10 ar
    18    9   16 1
    19   10   11 ar
    20   10   14 1
    21   11   12 ar
    22   11   13 1
    23   14   15 3
    24   16   21 ar
    25   16   17 ar
    26   17   18 ar
    27   17   29 1
    28   18   19 ar
    29   18   30 1
    30   19   20 ar
    31   19   31 1
    32   20   21 ar
    33   20   32 1
    34   21   22 1
    35   23   24 1
    36   23   33 1
    37   23   34 1
@<TRIPOS>MOLECULE
ZINC26687761
   29    30     0     0     0
SMALL
USER_CHARGES
6-(3-bromo-4-methoxy-phenyl)-2-oxo-4-(trifluoromethyl)-1H-pyridine-3-carbonitrile
@<TRIPOS>ATOM
      1 C1         -4.7457   -4.2670    0.0205 C.3       1 <0>         0.0222
      2 O1         -4.8309   -2.8405    0.0294 O.3       1 <0>        -0.3044
      3 C2         -3.6600   -2.1531    0.0232 C.ar      1 <0>         0.1549
      4 C3         -2.4527   -2.8412    0.0084 C.ar      1 <0>        -0.2101
      5 C4         -1.2627   -2.1482   -0.0037 C.ar      1 <0>        -0.0436
      6 C5         -1.2698   -0.7500    0.0097 C.ar      1 <0>        -0.0656
      7 C6         -2.4863   -0.0613    0.0246 C.ar      1 <0>        -0.0081
      8 C7         -3.6725   -0.7627    0.0313 C.ar      1 <0>        -0.1317
      9 Br1        -5.3191    0.1668    0.0508 Br        1 <0>        -0.0439
     10 C8          0.0021   -0.0041    0.0020 C.ar      1 <0>         0.2454
     11 C9          1.1998   -0.6955   -0.0132 C.ar      1 <0>        -0.2727
     12 C10         2.4013    0.0011   -0.0210 C.ar      1 <0>        -0.0350
     13 C11         2.3779    1.3970   -0.0132 C.ar      1 <0>        -0.2235
     14 C12         1.1294    2.0685    0.0024 C.ar      1 <0>         0.5163
     15 O2          1.0933    3.2870    0.0089 O.3       1 <0>        -0.5858
     16 N1         -0.0164    1.3617    0.0095 N.ar      1 <0>        -0.5831
     17 C13         3.6009    2.1419   -0.0214 C.1       1 <0>         0.2965
     18 N2          4.5710    2.7329   -0.0279 N.1       1 <0>        -0.4726
     19 C14         3.7132   -0.7403   -0.0380 C.3       1 <0>         0.4988
     20 F1          4.7681    0.1787   -0.0431 F         1 <0>        -0.1713
     21 F2          3.8059   -1.5503    1.0988 F         1 <0>        -0.1783
     22 F3          3.7836   -1.5373   -1.1856 F         1 <0>        -0.1783
     23 H1         -5.7591   -4.6949    0.0268 H         1 <0>         0.1013
     24 H2         -4.1985   -4.6072    0.9120 H         1 <0>         0.0581
     25 H3         -4.2140   -4.5969   -0.8842 H         1 <0>         0.0581
     26 H4         -2.4477   -3.9212    0.0022 H         1 <0>         0.1368
     27 H5         -0.3251   -2.6840   -0.0197 H         1 <0>         0.1390
     28 H6         -2.4964    1.0186    0.0312 H         1 <0>         0.1567
     29 H7          1.2007   -1.7755   -0.0193 H         1 <0>         0.1239
@<TRIPOS>BOND
     1    1    2 1
     2    1   23 1
     3    1   24 1
     4    1   25 1
     5    2    3 1
     6    3    8 ar
     7    3    4 ar
     8    4    5 ar
     9    4   26 1
    10    5    6 ar
    11    5   27 1
    12    6    7 ar
    13    6   10 1
    14    7    8 ar
    15    7   28 1
    16    8    9 1
    17   10   16 ar
    18   10   11 ar
    19   11   12 ar
    20   11   29 1
    21   12   13 ar
    22   12   19 1
    23   13   14 ar
    24   13   17 1
    25   14   15 1
    26   14   16 ar
    27   17   18 3
    28   19   20 1
    29   19   21 1
    30   19   22 1
@<TRIPOS>MOLECULE
ZINC26687761
   30    31     0     0     0
SMALL
USER_CHARGES
6-(3-bromo-4-methoxy-phenyl)-2-oxo-4-(trifluoromethyl)-1H-pyridine-3-carbonitrile
@<TRIPOS>ATOM
      1 C1         -4.7457   -4.2670    0.0205 C.3       1 <0>         0.0156
      2 O1         -4.8309   -2.8405    0.0294 O.3       1 <0>        -0.2939
      3 C2         -3.6600   -2.1531    0.0232 C.ar      1 <0>         0.1902
      4 C3         -2.4527   -2.8412    0.0084 C.ar      1 <0>        -0.2022
      5 C4         -1.2627   -2.1482   -0.0037 C.ar      1 <0>        -0.0145
      6 C5         -1.2698   -0.7500    0.0097 C.ar      1 <0>        -0.1278
      7 C6         -2.4863   -0.0613    0.0246 C.ar      1 <0>        -0.0224
      8 C7         -3.6725   -0.7627    0.0313 C.ar      1 <0>        -0.1301
      9 Br1        -5.3191    0.1668    0.0508 Br        1 <0>        -0.0146
     10 C8          0.0021   -0.0041    0.0020 C.2       1 <0>         0.2859
     11 C9          1.1998   -0.6955   -0.0132 C.2       1 <0>        -0.2147
     12 C10         2.4013    0.0011   -0.0210 C.2       1 <0>        -0.0053
     13 C11         2.3779    1.3970   -0.0132 C.2       1 <0>        -0.1092
     14 C12         1.1294    2.0685    0.0024 C.2       1 <0>         0.5503
     15 O2          1.0933    3.2870    0.0089 O.2       1 <0>        -0.5114
     16 N1         -0.0164    1.3617    0.0095 N.am      1 <0>        -0.6034
     17 C13         3.6009    2.1419   -0.0214 C.1       1 <0>         0.2577
     18 N2          4.5710    2.7329   -0.0279 N.1       1 <0>        -0.3792
     19 C14         3.7132   -0.7403   -0.0380 C.3       1 <0>         0.5024
     20 F1          4.7681    0.1787   -0.0431 F         1 <0>        -0.1613
     21 F2          3.8059   -1.5503    1.0988 F         1 <0>        -0.1618
     22 F3          3.7836   -1.5373   -1.1856 F         1 <0>        -0.1618
     23 H1         -5.7591   -4.6949    0.0268 H         1 <0>         0.1125
     24 H2         -4.1985   -4.6072    0.9120 H         1 <0>         0.0656
     25 H3         -4.2140   -4.5969   -0.8842 H         1 <0>         0.0656
     26 H4         -2.4477   -3.9212    0.0022 H         1 <0>         0.1516
     27 H5         -0.3251   -2.6840   -0.0197 H         1 <0>         0.1498
     28 H6         -2.4964    1.0186    0.0312 H         1 <0>         0.1423
     29 H7          1.2007   -1.7755   -0.0193 H         1 <0>         0.1695
     30 H8         -0.9763    1.8987    0.0215 H         1 <0>         0.4544
@<TRIPOS>BOND
     1    1    2 1
     2    1   23 1
     3    1   24 1
     4    1   25 1
     5    2    3 1
     6    3    8 ar
     7    3    4 ar
     8    4    5 ar
     9    4   26 1
    10    5    6 ar
    11    5   27 1
    12    6    7 ar
    13    6   10 1
    14    7    8 ar
    15    7   28 1
    16    8    9 1
    17   10   16 1
    18   10   11 2
    19   11   12 1
    20   11   29 1
    21   12   13 2
    22   12   19 1
    23   13   14 1
    24   13   17 1
    25   14   15 2
    26   14   16 am
    27   16   30 1
    28   17   18 3
    29   19   20 1
    30   19   21 1
    31   19   22 1
@<TRIPOS>MOLECULE
ZINC00159718
   34    37     0     0     0
SMALL
USER_CHARGES
oxo-(3-pyridyl)BLAHcarbonitrile
@<TRIPOS>ATOM
      1 C1         -1.5545    7.6186    0.4978 C.ar      1 <0>        -0.1137
      2 C2         -0.5488    8.4379    0.0091 C.ar      1 <0>        -0.0749
      3 C3          0.6256    7.8889   -0.4677 C.ar      1 <0>        -0.0897
      4 C4          0.7972    6.5128   -0.4560 C.ar      1 <0>        -0.0524
      5 C5         -0.2203    5.6751    0.0208 C.ar      1 <0>        -0.0946
      6 C6         -1.4018    6.2501    0.5069 C.ar      1 <0>        -0.0807
      7 C7         -0.0817    4.2076    0.0202 C.2       1 <0>         0.2666
      8 C8          1.1343    3.5671    0.0082 C.2       1 <0>        -0.1835
      9 C9          1.1821    2.1608    0.0024 C.2       1 <0>         0.1424
     10 C10        -0.0173    1.4278    0.0099 C.2       1 <0>        -0.1449
     11 C11        -1.2447    2.1327    0.0194 C.2       1 <0>         0.5497
     12 O1         -2.2992    1.5206    0.0228 O.2       1 <0>        -0.5219
     13 N1         -1.2479    3.4740    0.0302 N.am      1 <0>        -0.6020
     14 H1         -2.1237    3.9564    0.0460 H         1 <0>         0.4297
     15 C12         0.0021   -0.0041    0.0020 C.1       1 <0>         0.2717
     16 N2          0.0175   -1.1399   -0.0042 N.1       1 <0>        -0.3984
     17 C13         2.4850    1.4589   -0.0121 C.ar      1 <0>        -0.1416
     18 C14         2.8602    0.6775   -1.1112 C.ar      1 <0>        -0.0429
     19 C15         4.0886    0.0419   -1.0751 C.ar      1 <0>        -0.1658
     20 C16         4.8992    0.1974    0.0353 C.ar      1 <0>         0.1171
     21 N3          4.5194    0.9407    1.0568 N.ar      1 <0>        -0.4770
     22 C17         3.3622    1.5696    1.0671 C.ar      1 <0>         0.1315
     23 C18         2.4477    4.3066    0.0022 C.3       1 <0>        -0.0482
     24 S1          2.3031    5.7945   -1.0278 S.3       1 <0>        -0.0805
     25 H2         -2.4665    8.0576    0.8745 H         1 <0>         0.1380
     26 H3         -0.6840    9.5094    0.0009 H         1 <0>         0.1398
     27 H4          1.4077    8.5292   -0.8480 H         1 <0>         0.1432
     28 H5         -2.1922    5.6206    0.8881 H         1 <0>         0.1320
     29 H6          2.2074    0.5731   -1.9652 H         1 <0>         0.1400
     30 H7          4.4116   -0.5689   -1.9052 H         1 <0>         0.1452
     31 H8          5.8586   -0.2975    0.0662 H         1 <0>         0.1640
     32 H9          3.0883    2.1729    1.9199 H         1 <0>         0.1630
     33 H10         2.7070    4.5942    1.0211 H         1 <0>         0.1097
     34 H11         3.2266    3.6599   -0.4015 H         1 <0>         0.1292
@<TRIPOS>BOND
     1    1    6 ar
     2    1    2 ar
     3    1   25 1
     4    2    3 ar
     5    2   26 1
     6    3    4 ar
     7    3   27 1
     8    4   24 1
     9    4    5 ar
    10    5    6 ar
    11    5    7 1
    12    6   28 1
    13    7   13 1
    14    7    8 2
    15    8    9 1
    16    8   23 1
    17    9   10 2
    18    9   17 1
    19   10   11 1
    20   10   15 1
    21   11   12 2
    22   11   13 am
    23   13   14 1
    24   15   16 3
    25   17   22 ar
    26   17   18 ar
    27   18   19 ar
    28   18   29 1
    29   19   20 ar
    30   19   30 1
    31   20   21 ar
    32   20   31 1
    33   21   22 ar
    34   22   32 1
    35   23   24 1
    36   23   33 1
    37   23   34 1
@<TRIPOS>MOLECULE
ZINC02560262
   38    42     0     0     0
SMALL
USER_CHARGES
3,4-bis(1H-indol-3-yl)pyrrole-2,5-dione
@<TRIPOS>ATOM
      1 C1          2.3783    1.4372   -0.0129 C.ar      1 <0>        -0.1378
      2 C2          2.3986    0.0500   -0.0201 C.ar      1 <0>        -0.0992
      3 C3          1.2234   -0.6696   -0.0130 C.ar      1 <0>        -0.1252
      4 C4          0.0021   -0.0041    0.0020 C.ar      1 <0>         0.0932
      5 C5         -0.0170    1.4005    0.0097 C.ar      1 <0>        -0.0762
      6 C6          1.1790    2.1150    0.0022 C.ar      1 <0>        -0.0746
      7 C7         -1.4387    1.7873    0.0313 C.2       1 <0>        -0.1393
      8 C8         -2.1564    0.6276    0.0268 C.2       1 <0>         0.1036
      9 N1         -1.3078   -0.4365    0.0127 N.pl3     1 <0>        -0.5847
     10 H1         -1.5846   -1.3661    0.0104 H         1 <0>         0.4208
     11 C9         -1.9786    3.1572    0.0460 C.2       1 <0>        -0.0287
     12 C10        -2.5428    3.8215    1.1288 C.2       1 <0>        -0.0283
     13 C11        -2.9252    5.1602    0.6339 C.2       1 <0>         0.5560
     14 O1         -3.4500    6.0359    1.2924 O.2       1 <0>        -0.4468
     15 N2         -2.6005    5.2457   -0.6672 N.am      1 <0>        -0.6911
     16 C12        -2.0361    4.1015   -1.0890 C.2       1 <0>         0.5560
     17 O2         -1.6390    3.8805   -2.2156 O.2       1 <0>        -0.4469
     18 C13        -2.7216    3.2977    2.4934 C.2       1 <0>        -0.1393
     19 C14        -1.7506    3.1292    3.4361 C.2       1 <0>         0.1037
     20 N3         -2.3001    2.6255    4.5750 N.pl3     1 <0>        -0.5848
     21 H2         -1.8075    2.4236    5.3858 H         1 <0>         0.4208
     22 C15        -3.6566    2.4375    4.4094 C.ar      1 <0>         0.0933
     23 C16        -3.9836    2.8469    3.1061 C.ar      1 <0>        -0.0762
     24 C17        -5.3006    2.7671    2.6589 C.ar      1 <0>        -0.0746
     25 C18        -6.2790    2.2863    3.5014 C.ar      1 <0>        -0.1378
     26 C19        -5.9574    1.8812    4.7888 C.ar      1 <0>        -0.0992
     27 C20        -4.6588    1.9542    5.2442 C.ar      1 <0>        -0.1252
     28 H3          3.3071    1.9883   -0.0193 H         1 <0>         0.1249
     29 H4          3.3446   -0.4710   -0.0317 H         1 <0>         0.1271
     30 H5          1.2506   -1.7492   -0.0194 H         1 <0>         0.1217
     31 H6          1.1660    3.1949    0.0080 H         1 <0>         0.1195
     32 H7         -3.2345    0.5634    0.0366 H         1 <0>         0.1766
     33 H8         -2.7524    6.0250   -1.2244 H         1 <0>         0.4287
     34 H9         -0.7049    3.3627    3.3006 H         1 <0>         0.1766
     35 H10        -5.5536    3.0819    1.6573 H         1 <0>         0.1194
     36 H11        -7.3010    2.2242    3.1580 H         1 <0>         0.1249
     37 H12        -6.7323    1.5052    5.4404 H         1 <0>         0.1271
     38 H13        -4.4196    1.6368    6.2484 H         1 <0>         0.1217
@<TRIPOS>BOND
     1    1    6 ar
     2    1    2 ar
     3    1   28 1
     4    2    3 ar
     5    2   29 1
     6    3    4 ar
     7    3   30 1
     8    4    9 1
     9    4    5 ar
    10    5    6 ar
    11    5    7 1
    12    6   31 1
    13    7    8 2
    14    7   11 1
    15    8    9 1
    16    8   32 1
    17    9   10 1
    18   11   16 1
    19   11   12 2
    20   12   13 1
    21   12   18 1
    22   13   14 2
    23   13   15 am
    24   15   16 am
    25   15   33 1
    26   16   17 2
    27   18   23 1
    28   18   19 2
    29   19   20 1
    30   19   34 1
    31   20   21 1
    32   20   22 1
    33   22   27 ar
    34   22   23 ar
    35   23   24 ar
    36   24   25 ar
    37   24   35 1
    38   25   26 ar
    39   25   36 1
    40   26   27 ar
    41   26   37 1
    42   27   38 1
@<TRIPOS>MOLECULE
ZINC02011710
   53    57     0     0     0
SMALL
USER_CHARGES
3-[1-(3-aminopropyl)indol-3-yl]-4-(1-methylindol-3-yl)-pyrrole-2,5-dione
@<TRIPOS>ATOM
      1 C1          2.9798    0.0203   -0.0236 C.3       1 <0>         0.0761
      2 N1          2.5076    1.4071   -0.0132 N.pl3     1 <0>        -0.4787
      3 C2          3.3143    2.5034   -0.0147 C.2       1 <0>         0.1022
      4 C3          2.5522    3.6343   -0.0023 C.2       1 <0>        -0.1392
      5 C4          1.1465    3.1926    0.0078 C.ar      1 <0>        -0.0760
      6 C5          1.1819    1.7882    0.0004 C.ar      1 <0>         0.0933
      7 C6         -0.0126    1.0758    0.0080 C.ar      1 <0>        -0.1271
      8 C7         -1.2150    1.7493    0.0173 C.ar      1 <0>        -0.0984
      9 C8         -1.2485    3.1361    0.0277 C.ar      1 <0>        -0.1377
     10 C9         -0.0761    3.8600    0.0215 C.ar      1 <0>        -0.0733
     11 C10         3.0388    5.0242    0.0008 C.2       1 <0>        -0.0188
     12 C11         3.5826    5.7216   -1.0715 C.2       1 <0>        -0.0422
     13 C12         3.9090    7.0690   -0.5604 C.2       1 <0>         0.5562
     14 O1          4.4020    7.9719   -1.2067 O.2       1 <0>        -0.4454
     15 N2          3.5747    7.1276    0.7397 N.am      1 <0>        -0.6896
     16 C13         3.0535    5.9576    1.1461 C.2       1 <0>         0.5526
     17 O2          2.6594    5.7089    2.2681 O.2       1 <0>        -0.4403
     18 C14         3.7889    5.2201   -2.4406 C.2       1 <0>        -0.1134
     19 C15         2.8311    5.0306   -3.3928 C.2       1 <0>         0.0897
     20 N3          3.4049    4.5552   -4.5318 N.pl3     1 <0>        -0.4822
     21 C16         4.7667    4.4174   -4.3604 C.ar      1 <0>         0.0946
     22 C17         5.0715    4.8307   -3.0527 C.ar      1 <0>        -0.0755
     23 C18         6.3872    4.7911   -2.5969 C.ar      1 <0>        -0.0673
     24 C19         7.3878    4.3564   -3.4386 C.ar      1 <0>        -0.1340
     25 C20         7.0891    3.9536   -4.7319 C.ar      1 <0>        -0.0917
     26 C21         5.7911    3.9820   -5.1942 C.ar      1 <0>        -0.1329
     27 C22         2.6797    4.2352   -5.7638 C.3       1 <0>         0.1173
     28 C23         2.3404    2.7434   -5.7830 C.3       1 <0>        -0.1765
     29 C24         1.5830    2.4091   -7.0697 C.3       1 <0>        -0.0009
     30 H1          3.0878   -0.3191   -1.0537 H         1 <0>         0.0686
     31 H2          3.9440   -0.0390    0.4814 H         1 <0>         0.0882
     32 H3          2.2591   -0.6128    0.4939 H         1 <0>         0.0854
     33 H4          4.3940    2.4811   -0.0246 H         1 <0>         0.1741
     34 H5          0.0021   -0.0041    0.0020 H         1 <0>         0.1196
     35 H6         -2.1401    1.1920    0.0190 H         1 <0>         0.1275
     36 H7         -2.1979    3.6507    0.0383 H         1 <0>         0.1261
     37 H8         -0.1049    4.9396    0.0275 H         1 <0>         0.1203
     38 H9          3.6926    7.9062    1.3060 H         1 <0>         0.4317
     39 H10         1.7773    5.2283   -3.2629 H         1 <0>         0.1750
     40 H11         6.6225    5.1042   -1.5905 H         1 <0>         0.1234
     41 H12         8.4096    4.3296   -3.0898 H         1 <0>         0.1291
     42 H13         7.8814    3.6147   -5.3830 H         1 <0>         0.1292
     43 H14         5.5696    3.6668   -6.2032 H         1 <0>         0.1160
     44 H15         1.7593    4.8176   -5.8054 H         1 <0>         0.1030
     45 H16         3.3022    4.4773   -6.6252 H         1 <0>         0.0987
     46 H17         3.2608    2.1609   -5.7414 H         1 <0>         0.0951
     47 H18         1.7179    2.5012   -4.9217 H         1 <0>         0.0964
     48 H19         0.6627    2.9916   -7.1113 H         1 <0>         0.1395
     49 H20         2.2055    2.6513   -7.9311 H         1 <0>         0.1361
     50 H21         0.7348    0.7142   -6.2659 H         1 <0>         0.4385
     51 H22         0.7564    0.7307   -7.9288 H         1 <0>         0.4432
     52 N4          1.2807    0.9670   -7.0880 N.4       1 <0>        -0.6464
     53 H23         2.1604    0.4376   -7.0818 H         1 <0>         0.4406
@<TRIPOS>BOND
     1    1    2 1
     2    1   30 1
     3    1   31 1
     4    1   32 1
     5    2    6 1
     6    2    3 1
     7    3    4 2
     8    3   33 1
     9    4    5 1
    10    4   11 1
    11    5   10 ar
    12    5    6 ar
    13    6    7 ar
    14    7    8 ar
    15    7   34 1
    16    8    9 ar
    17    8   35 1
    18    9   10 ar
    19    9   36 1
    20   10   37 1
    21   11   16 1
    22   11   12 2
    23   12   13 1
    24   12   18 1
    25   13   14 2
    26   13   15 am
    27   15   16 am
    28   15   38 1
    29   16   17 2
    30   18   22 1
    31   18   19 2
    32   19   20 1
    33   19   39 1
    34   20   21 1
    35   20   27 1
    36   21   26 ar
    37   21   22 ar
    38   22   23 ar
    39   23   24 ar
    40   23   40 1
    41   24   25 ar
    42   24   41 1
    43   25   26 ar
    44   25   42 1
    45   26   43 1
    46   27   28 1
    47   27   44 1
    48   27   45 1
    49   28   29 1
    50   28   46 1
    51   28   47 1
    52   29   48 1
    53   29   49 1
    54   29   52 1
    55   50   52 1
    56   51   52 1
    57   52   53 1
@<TRIPOS>MOLECULE
ZINC00287294
   36    38     0     0     0
SMALL
USER_CHARGES

@<TRIPOS>ATOM
      1 C1         -0.0184    1.5028    0.0103 C.3       1 <0>        -0.1076
      2 C2          0.0021   -0.0041    0.0020 C.ar      1 <0>        -0.1217
      3 C3          0.0057   -0.6857   -1.2070 C.ar      1 <0>        -0.0810
      4 C4          0.0243   -2.0635   -1.2369 C.ar      1 <0>        -0.1580
      5 C5          0.0400   -2.7795   -0.0443 C.ar      1 <0>         0.1716
      6 C6          0.0368   -2.0843    1.1777 C.ar      1 <0>        -0.0848
      7 C7          0.0226   -0.6881    1.1851 C.ar      1 <0>        -0.0627
      8 C8          0.0536   -2.8525    2.4329 C.2       1 <0>        -0.0072
      9 C9          0.0718   -4.2198    2.3572 C.2       1 <0>        -0.0809
     10 C10         0.0741   -4.8566    1.1032 C.2       1 <0>         0.5477
     11 O1          0.0904   -6.0749    1.0568 O.2       1 <0>        -0.5245
     12 N1          0.0592   -4.1591   -0.0454 N.am      1 <0>        -0.6345
     13 H1          0.0610   -4.6344   -0.8910 H         1 <0>         0.4095
     14 C11         0.0900   -5.0432    3.6193 C.3       1 <0>        -0.1479
     15 C12        -1.3182   -5.4407    3.9801 C.2       1 <0>         0.5081
     16 O2         -2.2501   -5.0880    3.2775 O.co2     1 <0>        -0.6901
     17 O3         -1.5255   -6.1149    4.9745 O.co2     1 <0>        -0.6991
     18 C13         0.0514   -2.1650    3.7433 C.ar      1 <0>        -0.0296
     19 C14        -1.0529   -1.4071    4.1351 C.ar      1 <0>        -0.0921
     20 C15        -1.0487   -0.7686    5.3581 C.ar      1 <0>        -0.1198
     21 C16         0.0473   -0.8785    6.1954 C.ar      1 <0>        -0.1207
     22 C17         1.1455   -1.6281    5.8127 C.ar      1 <0>        -0.1211
     23 C18         1.1513   -2.2766    4.5950 C.ar      1 <0>        -0.1023
     24 H2          1.0042    1.8801    0.0026 H         1 <0>         0.0661
     25 H3         -0.5455    1.8639   -0.8728 H         1 <0>         0.0634
     26 H4         -0.5286    1.8543    0.9071 H         1 <0>         0.0648
     27 H5         -0.0065   -0.1309   -2.1335 H         1 <0>         0.1256
     28 H6          0.0262   -2.5852   -2.1825 H         1 <0>         0.1297
     29 H7          0.0238   -0.1509    2.1221 H         1 <0>         0.1311
     30 H8          0.6908   -5.9387    3.4603 H         1 <0>         0.0781
     31 H9          0.5208   -4.4558    4.4302 H         1 <0>         0.0800
     32 H10        -1.9088   -1.3202    3.4823 H         1 <0>         0.1238
     33 H11        -1.9025   -0.1814    5.6623 H         1 <0>         0.1220
     34 H12         0.0457   -0.3767    7.1518 H         1 <0>         0.1192
     35 H13         1.9981   -1.7096    6.4707 H         1 <0>         0.1220
     36 H14         2.0070   -2.8656    4.2996 H         1 <0>         0.1229
@<TRIPOS>BOND
     1    1    2 1
     2    1   24 1
     3    1   25 1
     4    1   26 1
     5    2    7 ar
     6    2    3 ar
     7    3    4 ar
     8    3   27 1
     9    4    5 ar
    10    4   28 1
    11    5   12 1
    12    5    6 ar
    13    6    7 ar
    14    6    8 1
    15    7   29 1
    16    8    9 2
    17    8   18 1
    18    9   10 1
    19    9   14 1
    20   10   11 2
    21   10   12 am
    22   12   13 1
    23   14   15 1
    24   14   30 1
    25   14   31 1
    26   15   16 2
    27   15   17 1
    28   18   23 ar
    29   18   19 ar
    30   19   20 ar
    31   19   32 1
    32   20   21 ar
    33   20   33 1
    34   21   22 ar
    35   21   34 1
    36   22   23 ar
    37   22   35 1
    38   23   36 1
@<TRIPOS>MOLECULE
ZINC01017885
   33    35     0     0     0
SMALL
USER_CHARGES

@<TRIPOS>ATOM
      1 C1         -0.0167    1.3792    0.0096 C.ar      1 <0>        -0.1239
      2 C2          1.1686    2.0926    0.0021 C.ar      1 <0>        -0.1200
      3 C3          2.3774    1.4273   -0.0130 C.ar      1 <0>        -0.0975
      4 C4          2.4027    0.0332   -0.0207 C.ar      1 <0>        -0.0404
      5 C5          1.2047   -0.6804   -0.0131 C.ar      1 <0>        -0.1012
      6 C6          0.0021   -0.0041    0.0020 C.ar      1 <0>        -0.1238
      7 C7          3.6975   -0.6872   -0.0375 C.ar      1 <0>         0.0715
      8 C8          3.9559   -1.7153    0.8664 C.ar      1 <0>        -0.2777
      9 C9          5.1842   -2.3690    0.8194 C.ar      1 <0>         0.2321
     10 N1          6.1097   -2.0275   -0.0713 N.ar      1 <0>        -0.5346
     11 C10         5.9130   -1.0608   -0.9482 C.ar      1 <0>         0.4564
     12 C11         4.7005   -0.3541   -0.9739 C.ar      1 <0>        -0.2122
     13 C12         4.4864    0.6902   -1.9299 C.1       1 <0>         0.3075
     14 N2          4.3165    1.5187   -2.6884 N.1       1 <0>        -0.4865
     15 O1          6.8888   -0.7512   -1.8355 O.3       1 <0>        -0.6752
     16 C13         5.4644   -3.4627    1.7779 C.ar      1 <0>        -0.0596
     17 C14         4.5020   -3.8366    2.7151 C.ar      1 <0>        -0.0560
     18 C15         4.7684   -4.8564    3.6060 C.ar      1 <0>        -0.1105
     19 C16         5.9892   -5.5102    3.5731 C.ar      1 <0>        -0.0731
     20 C17         6.9499   -5.1476    2.6491 C.ar      1 <0>        -0.1547
     21 C18         6.6939   -4.1296    1.7437 C.ar      1 <0>         0.1692
     22 O2          7.6355   -3.7765    0.8311 O.3       1 <0>        -0.4618
     23 Br1         3.4625   -5.3626    4.8765 Br        1 <0>        -0.0592
     24 H1         -0.9603    1.9042    0.0260 H         1 <0>         0.1181
     25 H2          1.1477    3.1724    0.0078 H         1 <0>         0.1200
     26 H3          3.3021    1.9853   -0.0192 H         1 <0>         0.1205
     27 H4          1.2182   -1.7603   -0.0194 H         1 <0>         0.1262
     28 H5         -0.9264   -0.5557    0.0083 H         1 <0>         0.1211
     29 H6          3.2123   -2.0016    1.5954 H         1 <0>         0.1200
     30 H7          3.5494   -3.3285    2.7440 H         1 <0>         0.1410
     31 H8          6.1910   -6.3072    4.2735 H         1 <0>         0.1323
     32 H9          7.9000   -5.6608    2.6291 H         1 <0>         0.1369
     33 H10         8.2418   -3.0885    1.1376 H         1 <0>         0.3950
@<TRIPOS>BOND
     1    1    6 ar
     2    1    2 ar
     3    1   24 1
     4    2    3 ar
     5    2   25 1
     6    3    4 ar
     7    3   26 1
     8    4    5 ar
     9    4    7 1
    10    5    6 ar
    11    5   27 1
    12    6   28 1
    13    7   12 ar
    14    7    8 ar
    15    8    9 ar
    16    8   29 1
    17    9   10 ar
    18    9   16 1
    19   10   11 ar
    20   11   12 ar
    21   11   15 1
    22   12   13 1
    23   13   14 3
    24   16   21 ar
    25   16   17 ar
    26   17   18 ar
    27   17   30 1
    28   18   19 ar
    29   18   23 1
    30   19   20 ar
    31   19   31 1
    32   20   21 ar
    33   20   32 1
    34   21   22 1
    35   22   33 1
@<TRIPOS>MOLECULE
ZINC01017885
   32    34     0     0     0
SMALL
USER_CHARGES

@<TRIPOS>ATOM
      1 C1         -0.0167    1.3792    0.0096 C.ar      1 <0>        -0.1361
      2 C2          1.1686    2.0926    0.0021 C.ar      1 <0>        -0.1229
      3 C3          2.3774    1.4273   -0.0130 C.ar      1 <0>        -0.1012
      4 C4          2.4027    0.0332   -0.0207 C.ar      1 <0>        -0.0186
      5 C5          1.2047   -0.6804   -0.0131 C.ar      1 <0>        -0.1050
      6 C6          0.0021   -0.0041    0.0020 C.ar      1 <0>        -0.1258
      7 C7          3.6975   -0.6872   -0.0375 C.ar      1 <0>         0.0520
      8 C8          3.9559   -1.7153    0.8664 C.ar      1 <0>        -0.2887
      9 C9          5.1842   -2.3690    0.8194 C.ar      1 <0>         0.2794
     10 N1          6.1097   -2.0275   -0.0713 N.ar      1 <0>        -0.5039
     11 C10         5.9130   -1.0608   -0.9482 C.ar      1 <0>         0.4552
     12 C11         4.7005   -0.3541   -0.9739 C.ar      1 <0>        -0.2596
     13 C12         4.4864    0.6902   -1.9299 C.1       1 <0>         0.3262
     14 N2          4.3165    1.5187   -2.6884 N.1       1 <0>        -0.5283
     15 O1          6.8888   -0.7512   -1.8355 O.3       1 <0>        -0.6973
     16 C13         5.4644   -3.4627    1.7779 C.ar      1 <0>        -0.2032
     17 C14         4.5020   -3.8366    2.7151 C.ar      1 <0>        -0.0105
     18 C15         4.7684   -4.8564    3.6060 C.ar      1 <0>        -0.2389
     19 C16         5.9892   -5.5102    3.5731 C.ar      1 <0>        -0.0371
     20 C17         6.9499   -5.1476    2.6491 C.ar      1 <0>        -0.2693
     21 C18         6.6939   -4.1296    1.7437 C.ar      1 <0>         0.3010
     22 O2          7.6355   -3.7765    0.8311 O.3       1 <0>        -0.6351
     23 Br1         3.4625   -5.3626    4.8765 Br        1 <0>        -0.1309
     24 H1         -0.9603    1.9042    0.0260 H         1 <0>         0.1122
     25 H2          1.1477    3.1724    0.0078 H         1 <0>         0.1147
     26 H3          3.3021    1.9853   -0.0192 H         1 <0>         0.1195
     27 H4          1.2182   -1.7603   -0.0194 H         1 <0>         0.1264
     28 H5         -0.9264   -0.5557    0.0083 H         1 <0>         0.1165
     29 H6          3.2123   -2.0016    1.5954 H         1 <0>         0.1117
     30 H7          3.5494   -3.3285    2.7440 H         1 <0>         0.1053
     31 H8          6.1910   -6.3072    4.2735 H         1 <0>         0.0934
     32 H9          7.9000   -5.6608    2.6291 H         1 <0>         0.0987
@<TRIPOS>BOND
     1    1    6 ar
     2    1    2 ar
     3    1   24 1
     4    2    3 ar
     5    2   25 1
     6    3    4 ar
     7    3   26 1
     8    4    5 ar
     9    4    7 1
    10    5    6 ar
    11    5   27 1
    12    6   28 1
    13    7   12 ar
    14    7    8 ar
    15    8    9 ar
    16    8   29 1
    17    9   10 ar
    18    9   16 1
    19   10   11 ar
    20   11   12 ar
    21   11   15 1
    22   12   13 1
    23   13   14 3
    24   16   21 ar
    25   16   17 ar
    26   17   18 ar
    27   17   30 1
    28   18   19 ar
    29   18   23 1
    30   19   20 ar
    31   19   31 1
    32   20   21 ar
    33   20   32 1
    34   21   22 1
@<TRIPOS>MOLECULE
ZINC01017885
   33    35     0     0     0
SMALL
USER_CHARGES

@<TRIPOS>ATOM
      1 C1         -0.2252    0.9467    0.2465 C.ar      1 <0>        -0.1135
      2 C2          0.8903    1.7592    0.1468 C.ar      1 <0>        -0.1200
      3 C3          2.1497    1.2007    0.0734 C.ar      1 <0>        -0.0921
      4 C4          2.2970   -0.1868    0.0999 C.ar      1 <0>        -0.0657
      5 C5          1.1679   -1.0006    0.2007 C.ar      1 <0>        -0.0909
      6 C6         -0.0859   -0.4296    0.2733 C.ar      1 <0>        -0.1206
      7 C7          3.6450   -0.7925    0.0211 C.2       1 <0>         0.1388
      8 C8          4.0118   -1.5737   -1.0833 C.2       1 <0>        -0.2564
      9 C9          5.2724   -2.1303   -1.1394 C.2       1 <0>         0.3493
     10 N1          6.1737   -1.9317   -0.1303 N.am      1 <0>        -0.5783
     11 C10         5.8609   -1.1884    0.9470 C.2       1 <0>         0.5473
     12 C11         4.5827   -0.5892    1.0516 C.2       1 <0>        -0.2130
     13 C12         4.2458    0.2079    2.1926 C.1       1 <0>         0.2971
     14 N2          3.9786    0.8401    3.0978 N.1       1 <0>        -0.4467
     15 O1          6.6823   -1.0269    1.8334 O.2       1 <0>        -0.5544
     16 C13         5.6535   -2.9513   -2.3034 C.ar      1 <0>        -0.2763
     17 C14         5.5710   -2.4218   -3.5940 C.ar      1 <0>         0.0122
     18 C15         5.9289   -3.1951   -4.6781 C.ar      1 <0>        -0.2167
     19 C16         6.3704   -4.4960   -4.4934 C.ar      1 <0>        -0.0251
     20 C17         6.4564   -5.0308   -3.2228 C.ar      1 <0>        -0.2432
     21 C18         6.1061   -4.2656   -2.1212 C.ar      1 <0>         0.3082
     22 O2          6.1957   -4.7886   -0.8719 O.3       1 <0>        -0.6887
     23 Br1         5.8164   -2.4781   -6.4243 Br        1 <0>        -0.0971
     24 H1         -1.2086    1.3889    0.3082 H         1 <0>         0.1219
     25 H2          0.7749    2.8328    0.1260 H         1 <0>         0.1242
     26 H3          3.0197    1.8359   -0.0047 H         1 <0>         0.1246
     27 H4          1.2752   -2.0750    0.2213 H         1 <0>         0.1310
     28 H5         -0.9606   -1.0583    0.3517 H         1 <0>         0.1258
     29 H6          3.3098   -1.7394   -1.8872 H         1 <0>         0.1534
     30 H7          5.2271   -1.4088   -3.7421 H         1 <0>         0.1156
     31 H8          6.6485   -5.0950   -5.3479 H         1 <0>         0.1100
     32 H9          6.8010   -6.0453   -3.0870 H         1 <0>         0.1140
     33 H10         7.0541   -2.3340   -0.1920 H         1 <0>         0.4253
@<TRIPOS>BOND
     1    1    6 ar
     2    1    2 ar
     3    1   24 1
     4    2    3 ar
     5    2   25 1
     6    3    4 ar
     7    3   26 1
     8    4    5 ar
     9    4    7 1
    10    5    6 ar
    11    5   27 1
    12    6   28 1
    13    7   12 2
    14    7    8 1
    15    8    9 2
    16    8   29 1
    17    9   10 1
    18    9   16 1
    19   10   11 am
    20   10   33 1
    21   11   12 1
    22   11   15 2
    23   12   13 1
    24   13   14 3
    25   16   21 ar
    26   16   17 ar
    27   17   18 ar
    28   17   30 1
    29   18   19 ar
    30   18   23 1
    31   19   20 ar
    32   19   31 1
    33   20   21 ar
    34   20   32 1
    35   21   22 1
@<TRIPOS>MOLECULE
ZINC00090754
   34    36     0     0     0
SMALL
USER_CHARGES
3-[4-(2,4-dihydroxyphenyl)thiazol-2-yl]aminobenzoic acid
@<TRIPOS>ATOM
      1 C1          2.1769    1.4681    0.0699 C.ar      1 <0>        -0.1096
      2 C2          1.1694    2.0363   -0.6831 C.ar      1 <0>        -0.0907
      3 C3          0.1654    1.2321   -1.2263 C.ar      1 <0>        -0.0794
      4 C4          0.1853   -0.1455   -1.0047 C.ar      1 <0>        -0.1208
      5 C5          1.2017   -0.7061   -0.2468 C.ar      1 <0>         0.1284
      6 C6          2.1966    0.1037    0.2895 C.ar      1 <0>        -0.1448
      7 N1          1.2261   -2.0855   -0.0213 N.pl3     1 <0>        -0.6075
      8 C7          0.0379   -2.7907    0.0904 C.2       1 <0>         0.3626
      9 N2         -0.1545   -4.0936    0.1923 N.2       1 <0>        -0.5473
     10 C8         -1.3741   -4.6023    0.2925 C.2       1 <0>         0.1281
     11 C9         -2.4528   -3.7640    0.2905 C.2       1 <0>        -0.2525
     12 S1         -1.6404   -2.1780    0.1428 S.3       1 <0>         0.0542
     13 C10        -1.5663   -6.0686    0.4064 C.ar      1 <0>        -0.0514
     14 C11        -2.8500   -6.5984    0.5178 C.ar      1 <0>        -0.0741
     15 C12        -3.0262   -7.9630    0.6192 C.ar      1 <0>        -0.1553
     16 C13        -1.9264   -8.8106    0.6203 C.ar      1 <0>         0.1195
     17 C14        -0.6449   -8.2905    0.5150 C.ar      1 <0>        -0.1785
     18 C15        -0.4591   -6.9229    0.4080 C.ar      1 <0>         0.1551
     19 O1          0.7957   -6.4118    0.3052 O.3       1 <0>        -0.4686
     20 O2         -2.1061  -10.1536    0.7252 O.3       1 <0>        -0.4980
     21 C16        -0.9145    1.8377   -2.0324 C.2       1 <0>         0.4877
     22 O3         -1.7871    1.1362   -2.5036 O.co2     1 <0>        -0.6228
     23 H1          2.9500    2.0925    0.4928 H         1 <0>         0.1256
     24 H2          1.1574    3.1029   -0.8520 H         1 <0>         0.1360
     25 H3         -0.5887   -0.7727   -1.4218 H         1 <0>         0.1362
     26 H4          2.9879   -0.3350    0.8793 H         1 <0>         0.1222
     27 H5          2.0745   -2.5492    0.0570 H         1 <0>         0.4218
     28 H6         -3.5054   -3.9951    0.3620 H         1 <0>         0.1927
     29 H7         -3.7071   -5.9413    0.5215 H         1 <0>         0.1355
     30 H8         -4.0221   -8.3727    0.7014 H         1 <0>         0.1332
     31 H9          0.2083   -8.9527    0.5169 H         1 <0>         0.1345
     32 H10         1.2057   -6.2017    1.1554 H         1 <0>         0.3874
     33 H11        -2.1112  -10.4798    1.6355 H         1 <0>         0.3901
     34 O4         -0.9315    3.1678   -2.2449 O.co2     1 <0>        -0.7495
@<TRIPOS>BOND
     1    1    6 ar
     2    1    2 ar
     3    1   23 1
     4    2    3 ar
     5    2   24 1
     6    3    4 ar
     7    3   21 1
     8    4    5 ar
     9    4   25 1
    10    5    6 ar
    11    5    7 1
    12    6   26 1
    13    7    8 1
    14    7   27 1
    15    8   12 1
    16    8    9 2
    17    9   10 1
    18   10   11 2
    19   10   13 1
    20   11   12 1
    21   11   28 1
    22   13   18 ar
    23   13   14 ar
    24   14   15 ar
    25   14   29 1
    26   15   16 ar
    27   15   30 1
    28   16   17 ar
    29   16   20 1
    30   17   18 ar
    31   17   31 1
    32   18   19 1
    33   19   32 1
    34   20   33 1
    35   21   22 2
    36   21   34 1
@<TRIPOS>MOLECULE
ZINC29042448
   58    61     0     0     0
SMALL
USER_CHARGES
N-[3-[4-(2-methoxyphenyl)piperazin-1-yl]propyl]-3-(3-pyridyl)-1,2,4-oxadiazole-5-carboxamide
@<TRIPOS>ATOM
      1 C1         -1.1455    3.4824    0.0264 C.3       1 <0>         0.0169
      2 O1         -1.2029    2.0546    0.0189 O.3       1 <0>        -0.2996
      3 C2         -0.0168    1.3889    0.0097 C.ar      1 <0>         0.1639
      4 C3          1.1751    2.0944    0.0021 C.ar      1 <0>        -0.2028
      5 C4          2.3802    1.4164   -0.0135 C.ar      1 <0>        -0.0624
      6 C5          2.3999    0.0340   -0.0207 C.ar      1 <0>        -0.1460
      7 C6          1.2148   -0.6775   -0.0132 C.ar      1 <0>        -0.1059
      8 C7          0.0021   -0.0041    0.0020 C.ar      1 <0>         0.0240
      9 N1         -1.1993   -0.7222    0.0092 N.pl3     1 <0>        -0.4817
     10 C8         -1.3293   -1.5189    1.2371 C.3       1 <0>         0.0301
     11 C9         -2.6874   -2.2247    1.2428 C.3       1 <0>        -0.0071
     12 N2         -2.7984   -3.0773    0.0510 N.4       1 <0>        -0.4000
     13 C10        -2.6684   -2.2806   -1.1770 C.3       1 <0>         0.0025
     14 C11        -1.3103   -1.5748   -1.1826 C.3       1 <0>         0.0290
     15 C12        -4.0593   -3.8310    0.0585 C.3       1 <0>        -0.0022
     16 C13        -4.2778   -4.4456    1.4425 C.3       1 <0>        -0.1665
     17 C14        -5.5911   -5.2306    1.4503 C.3       1 <0>         0.1257
     18 N3         -5.8004   -5.8190    2.7755 N.am      1 <0>        -0.7279
     19 C15        -6.9003   -6.5591    3.0181 C.2       1 <0>         0.6273
     20 O2         -7.7182   -6.7383    2.1379 O.2       1 <0>        -0.4700
     21 C16        -7.1122   -7.1547    4.3594 C.2       1 <0>         0.1353
     22 N4         -8.1363   -7.8905    4.7372 N.2       1 <0>        -0.4013
     23 C17        -7.8992   -8.2063    6.0265 C.2       1 <0>         0.2280
     24 N5         -6.7643   -7.6477    6.3630 N.2       1 <0>        -0.3511
     25 O3         -6.2995   -7.0415    5.4209 O.3       1 <0>         0.1047
     26 C18        -8.7682   -9.0299    6.9042 C.ar      1 <0>        -0.0922
     27 C19        -8.4033   -9.2825    8.2293 C.ar      1 <0>        -0.0352
     28 C20        -9.2505  -10.0515    9.0084 C.ar      1 <0>        -0.1718
     29 C21       -10.4148  -10.5498    8.4523 C.ar      1 <0>         0.1268
     30 N6        -10.7298  -10.2989    7.1964 N.ar      1 <0>        -0.4796
     31 C22        -9.9573   -9.5681    6.4185 C.ar      1 <0>         0.1530
     32 H1         -2.1670    3.8904    0.0334 H         1 <0>         0.1070
     33 H2         -0.6169    3.8328   -0.8724 H         1 <0>         0.0601
     34 H3         -0.6084    3.8230    0.9239 H         1 <0>         0.0599
     35 H4          1.1633    3.1743    0.0076 H         1 <0>         0.1380
     36 H5          3.3085    1.9682   -0.0198 H         1 <0>         0.1338
     37 H6          3.3435   -0.4913   -0.0325 H         1 <0>         0.1307
     38 H7          1.2330   -1.7573   -0.0195 H         1 <0>         0.1243
     39 H8         -0.5252   -2.2686    1.2746 H         1 <0>         0.0628
     40 H9         -1.2550   -0.8575    2.1129 H         1 <0>         0.1233
     41 H10        -2.7748   -2.8443    2.1475 H         1 <0>         0.1402
     42 H11        -3.4910   -1.4736    1.2337 H         1 <0>         0.1385
     43 H12        -2.7426   -2.9421   -2.0528 H         1 <0>         0.1390
     44 H13        -3.4725   -1.5309   -1.2146 H         1 <0>         0.1379
     45 H14        -1.2221   -0.9545   -2.0867 H         1 <0>         0.1244
     46 H15        -0.5060   -2.3251   -1.1729 H         1 <0>         0.0633
     47 H16        -4.8930   -3.1533   -0.1775 H         1 <0>         0.1342
     48 H17        -4.0127   -4.6312   -0.6949 H         1 <0>         0.1384
     49 H18        -3.4441   -5.1233    1.6785 H         1 <0>         0.0993
     50 H19        -4.3244   -3.6454    2.1959 H         1 <0>         0.1008
     51 H20        -6.4247   -4.5529    1.2142 H         1 <0>         0.0867
     52 H21        -5.5445   -6.0308    0.6970 H         1 <0>         0.0868
     53 H22        -5.0598   -5.6567    3.5725 H         1 <0>         0.4371
     54 H23        -7.4856   -8.8844    8.6364 H         1 <0>         0.1438
     55 H24        -9.0029  -10.2639   10.0379 H         1 <0>         0.1490
     56 H25       -11.0763  -11.1534    9.0560 H         1 <0>         0.1681
     57 H26       -10.2491   -9.3845    5.3950 H         1 <0>         0.1697
     58 H27        -1.9720   -3.8030    0.0743 H         1 <0>         0.4392
@<TRIPOS>BOND
     1    1    2 1
     2    1   32 1
     3    1   33 1
     4    1   34 1
     5    2    3 1
     6    3    8 ar
     7    3    4 ar
     8    4    5 ar
     9    4   35 1
    10    5    6 ar
    11    5   36 1
    12    6    7 ar
    13    6   37 1
    14    7    8 ar
    15    7   38 1
    16    8    9 1
    17    9   14 1
    18    9   10 1
    19   10   11 1
    20   10   39 1
    21   10   40 1
    22   11   12 1
    23   11   41 1
    24   11   42 1
    25   12   13 1
    26   12   15 1
    27   12   58 1
    28   13   14 1
    29   13   43 1
    30   13   44 1
    31   14   45 1
    32   14   46 1
    33   15   16 1
    34   15   47 1
    35   15   48 1
    36   16   17 1
    37   16   49 1
    38   16   50 1
    39   17   18 1
    40   17   51 1
    41   17   52 1
    42   18   19 am
    43   18   53 1
    44   19   20 2
    45   19   21 1
    46   21   25 1
    47   21   22 2
    48   22   23 1
    49   23   24 2
    50   23   26 1
    51   24   25 1
    52   26   31 ar
    53   26   27 ar
    54   27   28 ar
    55   27   54 1
    56   28   29 ar
    57   28   55 1
    58   29   30 ar
    59   29   56 1
    60   30   31 ar
    61   31   57 1
@<TRIPOS>MOLECULE
ZINC29042448
   57    60     0     0     0
SMALL
USER_CHARGES
N-[3-[4-(2-methoxyphenyl)piperazin-1-yl]propyl]-3-(3-pyridyl)-1,2,4-oxadiazole-5-carboxamide
@<TRIPOS>ATOM
      1 C1         -1.1455    3.4824    0.0264 C.3       1 <0>         0.0198
      2 O1         -1.2029    2.0546    0.0189 O.3       1 <0>        -0.2958
      3 C2         -0.0168    1.3889    0.0097 C.ar      1 <0>         0.1516
      4 C3          1.1751    2.0944    0.0021 C.ar      1 <0>        -0.2072
      5 C4          2.3802    1.4164   -0.0135 C.ar      1 <0>        -0.0797
      6 C5          2.3999    0.0340   -0.0207 C.ar      1 <0>        -0.1494
      7 C6          1.2148   -0.6775   -0.0132 C.ar      1 <0>        -0.1079
      8 C7          0.0021   -0.0041    0.0020 C.ar      1 <0>         0.0520
      9 N1         -1.1993   -0.7222    0.0092 N.pl3     1 <0>        -0.4902
     10 C8         -1.3293   -1.5189    1.2371 C.3       1 <0>         0.0617
     11 C9         -2.6874   -2.2247    1.2428 C.3       1 <0>         0.0498
     12 N2         -2.7984   -3.0773    0.0510 N.3       1 <0>        -0.5379
     13 C10        -2.6684   -2.2806   -1.1770 C.3       1 <0>         0.0569
     14 C11        -1.3103   -1.5748   -1.1826 C.3       1 <0>         0.0617
     15 C12        -4.0593   -3.8310    0.0585 C.3       1 <0>         0.0577
     16 C13        -4.2778   -4.4456    1.4425 C.3       1 <0>        -0.1375
     17 C14        -5.5911   -5.2306    1.4503 C.3       1 <0>         0.1220
     18 N3         -5.8004   -5.8190    2.7755 N.am      1 <0>        -0.7175
     19 C15        -6.9003   -6.5591    3.0181 C.2       1 <0>         0.6182
     20 O2         -7.7182   -6.7383    2.1379 O.2       1 <0>        -0.4792
     21 C16        -7.1122   -7.1547    4.3594 C.2       1 <0>         0.1489
     22 N4         -8.1363   -7.8905    4.7372 N.2       1 <0>        -0.4093
     23 C17        -7.8992   -8.2063    6.0265 C.2       1 <0>         0.2198
     24 N5         -6.7643   -7.6477    6.3630 N.2       1 <0>        -0.3551
     25 O3         -6.2995   -7.0415    5.4209 O.3       1 <0>         0.1051
     26 C18        -8.7682   -9.0299    6.9042 C.ar      1 <0>        -0.0834
     27 C19        -8.4033   -9.2825    8.2293 C.ar      1 <0>        -0.0368
     28 C20        -9.2505  -10.0515    9.0084 C.ar      1 <0>        -0.1730
     29 C21       -10.4148  -10.5498    8.4523 C.ar      1 <0>         0.1214
     30 N6        -10.7298  -10.2989    7.1964 N.ar      1 <0>        -0.4807
     31 C22        -9.9573   -9.5681    6.4185 C.ar      1 <0>         0.1512
     32 H1         -2.1670    3.8904    0.0334 H         1 <0>         0.1017
     33 H2         -0.6169    3.8328   -0.8724 H         1 <0>         0.0549
     34 H3         -0.6084    3.8230    0.9239 H         1 <0>         0.0548
     35 H4          1.1633    3.1743    0.0076 H         1 <0>         0.1311
     36 H5          3.3085    1.9682   -0.0198 H         1 <0>         0.1261
     37 H6          3.3435   -0.4913   -0.0325 H         1 <0>         0.1244
     38 H7          1.2330   -1.7573   -0.0195 H         1 <0>         0.1266
     39 H8         -0.5252   -2.2686    1.2746 H         1 <0>         0.0461
     40 H9         -1.2550   -0.8575    2.1129 H         1 <0>         0.0801
     41 H10        -2.7748   -2.8443    2.1475 H         1 <0>         0.0876
     42 H11        -3.4910   -1.4736    1.2337 H         1 <0>         0.0457
     43 H12        -2.7426   -2.9421   -2.0528 H         1 <0>         0.0836
     44 H13        -3.4725   -1.5309   -1.2146 H         1 <0>         0.0468
     45 H14        -1.2221   -0.9545   -2.0867 H         1 <0>         0.0813
     46 H15        -0.5060   -2.3251   -1.1729 H         1 <0>         0.0469
     47 H16        -4.8930   -3.1533   -0.1775 H         1 <0>         0.0412
     48 H17        -4.0127   -4.6312   -0.6949 H         1 <0>         0.0830
     49 H18        -3.4441   -5.1233    1.6785 H         1 <0>         0.0846
     50 H19        -4.3244   -3.6454    2.1959 H         1 <0>         0.0778
     51 H20        -6.4247   -4.5529    1.2142 H         1 <0>         0.0772
     52 H21        -5.5445   -6.0308    0.6970 H         1 <0>         0.0795
     53 H22        -5.0598   -5.6567    3.5725 H         1 <0>         0.4350
     54 H23        -7.4856   -8.8844    8.6364 H         1 <0>         0.1439
     55 H24        -9.0029  -10.2639   10.0379 H         1 <0>         0.1469
     56 H25       -11.0763  -11.1534    9.0560 H         1 <0>         0.1657
     57 H26       -10.2491   -9.3845    5.3950 H         1 <0>         0.1704
@<TRIPOS>BOND
     1    1    2 1
     2    1   32 1
     3    1   33 1
     4    1   34 1
     5    2    3 1
     6    3    8 ar
     7    3    4 ar
     8    4    5 ar
     9    4   35 1
    10    5    6 ar
    11    5   36 1
    12    6    7 ar
    13    6   37 1
    14    7    8 ar
    15    7   38 1
    16    8    9 1
    17    9   14 1
    18    9   10 1
    19   10   11 1
    20   10   39 1
    21   10   40 1
    22   11   12 1
    23   11   41 1
    24   11   42 1
    25   12   13 1
    26   12   15 1
    27   13   14 1
    28   13   43 1
    29   13   44 1
    30   14   45 1
    31   14   46 1
    32   15   16 1
    33   15   47 1
    34   15   48 1
    35   16   17 1
    36   16   49 1
    37   16   50 1
    38   17   18 1
    39   17   51 1
    40   17   52 1
    41   18   19 am
    42   18   53 1
    43   19   20 2
    44   19   21 1
    45   21   25 1
    46   21   22 2
    47   22   23 1
    48   23   24 2
    49   23   26 1
    50   24   25 1
    51   26   31 ar
    52   26   27 ar
    53   27   28 ar
    54   27   54 1
    55   28   29 ar
    56   28   55 1
    57   29   30 ar
    58   29   56 1
    59   30   31 ar
    60   31   57 1
@<TRIPOS>MOLECULE
ZINC01506669
   38    41     0     0     0
SMALL
USER_CHARGES

@<TRIPOS>ATOM
      1 C1         -0.0167    1.3794    0.0096 C.ar      1 <0>        -0.1311
      2 C2          1.1685    2.0933    0.0021 C.ar      1 <0>        -0.1207
      3 C3          2.3774    1.4288   -0.0129 C.ar      1 <0>        -0.1112
      4 C4          2.4032    0.0336   -0.0206 C.ar      1 <0>         0.0164
      5 C5          1.2044   -0.6805   -0.0130 C.ar      1 <0>        -0.1059
      6 C6          0.0021   -0.0041    0.0020 C.ar      1 <0>        -0.1198
      7 C7          3.6965   -0.6856   -0.0373 C.2       1 <0>        -0.1403
      8 C8          4.7009   -0.6683   -1.1116 C.ar      1 <0>        -0.1076
      9 C9          4.7711   -0.0353   -2.3526 C.ar      1 <0>        -0.0823
     10 C10         5.8746   -0.2182   -3.1604 C.ar      1 <0>        -0.1538
     11 C11         6.9187   -1.0269   -2.7515 C.ar      1 <0>        -0.0719
     12 C12         6.8724   -1.6710   -1.5147 C.ar      1 <0>        -0.1429
     13 C13         5.7532   -1.4938   -0.6801 C.ar      1 <0>         0.1427
     14 N1          5.4271   -1.9821    0.5593 N.pl3     1 <0>        -0.5563
     15 H1          5.9832   -2.5791    1.0839 H         1 <0>         0.4294
     16 C14         4.2017   -1.5001    0.9538 C.2       1 <0>         0.1184
     17 C15         3.5320   -1.8083    2.2329 C.ar      1 <0>        -0.0211
     18 C16         2.9282   -0.7886    2.9722 C.ar      1 <0>        -0.0876
     19 C17         2.3043   -1.0837    4.1664 C.ar      1 <0>        -0.1200
     20 C18         2.2758   -2.3863    4.6325 C.ar      1 <0>        -0.1189
     21 C19         2.8723   -3.4014    3.9055 C.ar      1 <0>        -0.1188
     22 C20         3.4943   -3.1217    2.7065 C.ar      1 <0>        -0.1061
     23 C21         7.9868   -2.5303   -1.0857 C.2       1 <0>         0.5239
     24 O1          8.9581   -2.6818   -1.8142 O.co2     1 <0>        -0.6822
     25 O2          7.9424   -3.0934   -0.0004 O.co2     1 <0>        -0.6979
     26 H2         -0.9604    1.9042    0.0260 H         1 <0>         0.1157
     27 H3          1.1471    3.1731    0.0078 H         1 <0>         0.1182
     28 H4          3.3018    1.9871   -0.0191 H         1 <0>         0.1214
     29 H5          1.2177   -1.7604   -0.0193 H         1 <0>         0.1178
     30 H6         -0.9265   -0.5556    0.0079 H         1 <0>         0.1173
     31 H7          3.9608    0.5983   -2.6816 H         1 <0>         0.1127
     32 H8          5.9231    0.2743   -4.1203 H         1 <0>         0.1163
     33 H9          7.7761   -1.1613   -3.3942 H         1 <0>         0.1294
     34 H10         2.9501    0.2285    2.6098 H         1 <0>         0.1255
     35 H11         1.8374   -0.2962    4.7393 H         1 <0>         0.1230
     36 H12         1.7859   -2.6117    5.5682 H         1 <0>         0.1206
     37 H13         2.8465   -4.4158    4.2753 H         1 <0>         0.1236
     38 H14         3.9553   -3.9156    2.1378 H         1 <0>         0.1242
@<TRIPOS>BOND
     1    1    6 ar
     2    1    2 ar
     3    1   26 1
     4    2    3 ar
     5    2   27 1
     6    3    4 ar
     7    3   28 1
     8    4    5 ar
     9    4    7 1
    10    5    6 ar
    11    5   29 1
    12    6   30 1
    13    7   16 2
    14    7    8 1
    15    8   13 ar
    16    8    9 ar
    17    9   10 ar
    18    9   31 1
    19   10   11 ar
    20   10   32 1
    21   11   12 ar
    22   11   33 1
    23   12   13 ar
    24   12   23 1
    25   13   14 1
    26   14   15 1
    27   14   16 1
    28   16   17 1
    29   17   22 ar
    30   17   18 ar
    31   18   19 ar
    32   18   34 1
    33   19   20 ar
    34   19   35 1
    35   20   21 ar
    36   20   36 1
    37   21   22 ar
    38   21   37 1
    39   22   38 1
    40   23   24 2
    41   23   25 1
@<TRIPOS>MOLECULE
ZINC04793192
   32    33     0     0     0
SMALL
USER_CHARGES

@<TRIPOS>ATOM
      1 C1         -0.0187    1.5258    0.0104 C.3       1 <0>        -0.1731
      2 C2          0.0021   -0.0041    0.0020 C.3       1 <0>         0.0913
      3 N1         -1.3723   -0.5112    0.0124 N.pl3     1 <0>        -0.5203
      4 C3         -2.0094   -0.7513    1.2163 C.ar      1 <0>         0.1712
      5 C4         -1.4905   -0.5662    2.5094 C.ar      1 <0>        -0.1676
      6 C5         -2.2500   -0.8515    3.6236 C.ar      1 <0>         0.1693
      7 C6         -3.5487   -1.3301    3.5043 C.ar      1 <0>        -0.2138
      8 C7         -4.0819   -1.5205    2.2422 C.ar      1 <0>         0.0032
      9 C8         -3.3231   -1.2351    1.1318 C.ar      1 <0>        -0.2198
     10 S1         -3.6141   -1.3345   -0.6181 S.3       1 <0>         0.1230
     11 C9         -2.0228   -0.7401   -1.1673 C.2       1 <0>         0.2214
     12 C10        -1.5620   -0.5581   -2.4650 C.2       1 <0>        -0.3307
     13 C11        -2.3849   -0.8515   -3.5396 C.2       1 <0>         0.3841
     14 O1         -3.5126   -1.2692   -3.3468 O.2       1 <0>        -0.4977
     15 C12        -1.8850   -0.6541   -4.9475 C.3       1 <0>        -0.1881
     16 O2         -1.7188   -0.6617    4.8607 O.3       1 <0>        -0.3138
     17 C13        -2.5516   -0.9740    5.9792 C.3       1 <0>         0.0251
     18 H1          1.0039    1.9031    0.0027 H         1 <0>         0.0791
     19 H2         -0.5459    1.8868   -0.8726 H         1 <0>         0.0664
     20 H3         -0.5289    1.8773    0.9072 H         1 <0>         0.0626
     21 H4          0.5123   -0.3556   -0.8948 H         1 <0>         0.0976
     22 H5          0.5293   -0.3651    0.8851 H         1 <0>         0.0922
     23 H6         -0.4833   -0.1959    2.6315 H         1 <0>         0.1374
     24 H7         -4.1339   -1.5507    4.3848 H         1 <0>         0.1448
     25 H8         -5.0897   -1.8922    2.1295 H         1 <0>         0.1419
     26 H9         -0.5620   -0.1877   -2.6360 H         1 <0>         0.1438
     27 H10        -0.8625   -0.2773   -4.9205 H         1 <0>         0.0742
     28 H11        -1.9075   -1.6061   -5.4779 H         1 <0>         0.0860
     29 H12        -2.5233    0.0639   -5.4624 H         1 <0>         0.0859
     30 H13        -3.4490   -0.3560    5.9478 H         1 <0>         0.0600
     31 H14        -2.8334   -2.0262    5.9398 H         1 <0>         0.0600
     32 H15        -2.0077   -0.7779    6.9032 H         1 <0>         0.1044
@<TRIPOS>BOND
     1    1    2 1
     2    1   18 1
     3    1   19 1
     4    1   20 1
     5    2    3 1
     6    2   21 1
     7    2   22 1
     8    3   11 1
     9    3    4 1
    10    4    9 ar
    11    4    5 ar
    12    5    6 ar
    13    5   23 1
    14    6    7 ar
    15    6   16 1
    16    7    8 ar
    17    7   24 1
    18    8    9 ar
    19    8   25 1
    20    9   10 1
    21   10   11 1
    22   11   12 2
    23   12   13 1
    24   12   26 1
    25   13   14 2
    26   13   15 1
    27   15   27 1
    28   15   28 1
    29   15   29 1
    30   16   17 1
    31   17   30 1
    32   17   31 1
    33   17   32 1
@<TRIPOS>MOLECULE
ZINC02567089
   34    37     0     0     0
SMALL
USER_CHARGES
4-[3-(4-chlorophenyl)benzo[c]isoxazol-5-yl]pyrimidin-2-amine
@<TRIPOS>ATOM
      1 C1          1.0212    2.9229    0.8073 C.ar      1 <0>        -0.0694
      2 C2         -0.1892    3.5824    0.8227 C.ar      1 <0>        -0.1074
      3 C3         -1.2355    3.1351    0.0324 C.ar      1 <0>        -0.0174
      4 C4         -1.0775    2.0164   -0.7695 C.ar      1 <0>        -0.1084
      5 C5          0.1256    1.3438   -0.7904 C.ar      1 <0>        -0.0714
      6 C6          1.1878    1.7931    0.0003 C.ar      1 <0>        -0.0269
      7 C7          2.4763    1.0792   -0.0163 C.2       1 <0>         0.0480
      8 C8          3.7495    1.6414   -0.1225 C.ar      1 <0>        -0.1678
      9 C9          4.3066    2.9164   -0.2415 C.ar      1 <0>         0.0043
     10 C10         5.6808    3.0476   -0.3221 C.ar      1 <0>        -0.0669
     11 C11         6.5246    1.9204   -0.2868 C.ar      1 <0>        -0.0634
     12 C12         6.0334    0.6642   -0.1726 C.ar      1 <0>        -0.0839
     13 C13         4.6389    0.4616   -0.0854 C.ar      1 <0>         0.0507
     14 N1          3.8349   -0.5701    0.0295 N.2       1 <0>        -0.3608
     15 O1          2.6694   -0.2469    0.0734 O.3       1 <0>         0.1529
     16 C14         6.2760    4.3977   -0.4483 C.ar      1 <0>         0.2638
     17 C15         7.6636    4.5578   -0.5257 C.ar      1 <0>        -0.2816
     18 C16         8.1729    5.8373   -0.6474 C.ar      1 <0>         0.1991
     19 N2          7.3399    6.8664   -0.6769 N.ar      1 <0>        -0.5745
     20 C17         6.0295    6.6863   -0.5966 C.ar      1 <0>         0.5735
     21 N3          5.4990    5.4788   -0.4843 N.ar      1 <0>        -0.5700
     22 N4          5.1941    7.7894   -0.6306 N.pl3     1 <0>        -0.8207
     23 Cl1        -2.7541    3.9760    0.0525 Cl        1 <0>        -0.0576
     24 H1          1.8374    3.2754    1.4204 H         1 <0>         0.1403
     25 H2         -0.3208    4.4523    1.4491 H         1 <0>         0.1441
     26 H3         -1.8988    1.6704   -1.3794 H         1 <0>         0.1439
     27 H4          0.2473    0.4717   -1.4157 H         1 <0>         0.1427
     28 H5          3.6717    3.7896   -0.2705 H         1 <0>         0.1484
     29 H6          7.5932    2.0623   -0.3530 H         1 <0>         0.1429
     30 H7          6.7061   -0.1804   -0.1483 H         1 <0>         0.1430
     31 H8          8.3213    3.7018   -0.4952 H         1 <0>         0.1483
     32 H9          9.2391    5.9962   -0.7132 H         1 <0>         0.1716
     33 H10         4.2330    7.6718   -0.5725 H         1 <0>         0.4147
     34 H11         5.5697    8.6799   -0.7127 H         1 <0>         0.4162
@<TRIPOS>BOND
     1    1    6 ar
     2    1    2 ar
     3    1   24 1
     4    2    3 ar
     5    2   25 1
     6    3    4 ar
     7    3   23 1
     8    4    5 ar
     9    4   26 1
    10    5    6 ar
    11    5   27 1
    12    6    7 1
    13    7   15 1
    14    7    8 2
    15    8   13 ar
    16    8    9 ar
    17    9   10 ar
    18    9   28 1
    19   10   11 ar
    20   10   16 1
    21   11   12 ar
    22   11   29 1
    23   12   13 ar
    24   12   30 1
    25   13   14 2
    26   14   15 1
    27   16   21 ar
    28   16   17 ar
    29   17   18 ar
    30   17   31 1
    31   18   19 ar
    32   18   32 1
    33   19   20 ar
    34   20   21 ar
    35   20   22 1
    36   22   33 1
    37   22   34 1
@<TRIPOS>MOLECULE
ZINC05784821
   33    35     0     0     0
SMALL
USER_CHARGES

@<TRIPOS>ATOM
      1 C1          0.9737   -0.2755   -0.9647 C.ar      1 <0>        -0.0742
      2 C2          2.1564    0.4332   -0.9712 C.ar      1 <0>        -0.1344
      3 C3          2.3850    1.4165   -0.0194 C.ar      1 <0>         0.1038
      4 C4          1.4203    1.6924    0.9484 C.ar      1 <0>         0.0785
      5 C5          0.2330    0.9866    0.9613 C.ar      1 <0>        -0.0759
      6 C6          0.0021   -0.0041    0.0020 C.ar      1 <0>        -0.0455
      7 C7         -1.2637   -0.7605    0.0105 C.2       1 <0>         0.1367
      8 C8         -2.4364   -0.0758    0.1244 C.2       1 <0>        -0.0427
      9 C9         -3.6629   -0.7887    0.1336 C.2       1 <0>         0.4017
     10 O1         -4.7325   -0.2090    0.2337 O.2       1 <0>        -0.4453
     11 C10        -3.5955   -2.2543    0.0175 C.ar      1 <0>        -0.2536
     12 C11        -2.3322   -2.8619   -0.0951 C.ar      1 <0>         0.1793
     13 O2         -1.2182   -2.0990   -0.0998 O.3       1 <0>        -0.1953
     14 C12        -2.2459   -4.2412   -0.2056 C.ar      1 <0>        -0.1683
     15 C13        -3.3977   -5.0117   -0.2052 C.ar      1 <0>         0.1726
     16 C14        -4.6516   -4.4136   -0.0938 C.ar      1 <0>         0.0216
     17 C15        -4.7569   -3.0366    0.0176 C.ar      1 <0>         0.1982
     18 O3         -5.9773   -2.4500    0.1259 O.3       1 <0>        -0.4669
     19 O4         -5.7746   -5.1834   -0.0952 O.3       1 <0>        -0.4719
     20 O5         -3.3038   -6.3624   -0.3148 O.3       1 <0>        -0.4759
     21 O6         -2.4310    1.2811    0.2287 O.3       1 <0>        -0.4496
     22 O7          1.6483    2.6564    1.8803 O.3       1 <0>        -0.4837
     23 O8          3.5523    2.1120   -0.0304 O.3       1 <0>        -0.4862
     24 H1          0.7965   -1.0373   -1.7095 H         1 <0>         0.1384
     25 H2          2.9068    0.2222   -1.7187 H         1 <0>         0.1423
     26 H3         -0.5151    1.1991    1.7107 H         1 <0>         0.1430
     27 H4         -1.2797   -4.7158   -0.2926 H         1 <0>         0.1608
     28 H5         -6.3763   -2.2126   -0.7223 H         1 <0>         0.4062
     29 H6         -6.0534   -5.4740    0.7839 H         1 <0>         0.3923
     30 H7         -3.2307   -6.8217    0.5330 H         1 <0>         0.4025
     31 H8         -3.3116    1.6733    0.3048 H         1 <0>         0.4082
     32 H9          1.3507    3.5375    1.6156 H         1 <0>         0.3905
     33 H10         3.5265    2.9153   -0.5681 H         1 <0>         0.3927
@<TRIPOS>BOND
     1    1    6 ar
     2    1    2 ar
     3    1   24 1
     4    2    3 ar
     5    2   25 1
     6    3    4 ar
     7    3   23 1
     8    4    5 ar
     9    4   22 1
    10    5    6 ar
    11    5   26 1
    12    6    7 1
    13    7   13 1
    14    7    8 2
    15    8    9 1
    16    8   21 1
    17    9   10 2
    18    9   11 1
    19   11   17 ar
    20   11   12 ar
    21   12   13 1
    22   12   14 ar
    23   14   15 ar
    24   14   27 1
    25   15   16 ar
    26   15   20 1
    27   16   17 ar
    28   16   19 1
    29   17   18 1
    30   18   28 1
    31   19   29 1
    32   20   30 1
    33   21   31 1
    34   22   32 1
    35   23   33 1
@<TRIPOS>MOLECULE
ZINC05784821
   32    34     0     0     0
SMALL
USER_CHARGES

@<TRIPOS>ATOM
      1 C1          0.1387    1.1246   -0.8121 C.ar      1 <0>        -0.0622
      2 C2          1.3225    1.8303   -0.8180 C.ar      1 <0>        -0.1332
      3 C3          2.3810    1.4236   -0.0177 C.ar      1 <0>         0.0880
      4 C4          2.2522    0.2990    0.7968 C.ar      1 <0>         0.0757
      5 C5          1.0695   -0.4136    0.8085 C.ar      1 <0>        -0.0996
      6 C6          0.0021   -0.0041    0.0020 C.ar      1 <0>        -0.0195
      7 C7         -1.2621   -0.7597    0.0105 C.2       1 <0>         0.1005
      8 C8         -2.4588   -0.0763    0.1254 C.2       1 <0>        -0.0024
      9 C9         -3.6655   -0.7871    0.1338 C.2       1 <0>         0.3350
     10 C10        -3.6170   -2.1936    0.0233 C.2       1 <0>        -0.3078
     11 C11        -4.8024   -2.9583    0.0259 C.2       1 <0>         0.2301
     12 C12        -4.7336   -4.3190   -0.0826 C.2       1 <0>        -0.1267
     13 C13        -3.4849   -4.9584   -0.1967 C.2       1 <0>         0.3228
     14 O1         -3.4274   -6.2885   -0.3023 O.2       1 <0>        -0.6615
     15 C14        -2.3050   -4.2094   -0.2008 C.2       1 <0>        -0.3074
     16 C15        -2.3619   -2.8325   -0.0912 C.2       1 <0>         0.2033
     17 O2         -1.2291   -2.0987   -0.0991 O.3       1 <0>        -0.1983
     18 O3         -5.8771   -5.0587   -0.0797 O.3       1 <0>        -0.4986
     19 O4         -6.0090   -2.3440    0.1364 O.3       1 <0>        -0.4446
     20 O5         -4.8485   -0.1416    0.2456 O.3       1 <0>        -0.5691
     21 O6         -2.4638    1.2803    0.2303 O.3       1 <0>        -0.4643
     22 O7          3.2919   -0.0962    1.5794 O.3       1 <0>        -0.4856
     23 O8          3.5458    2.1225   -0.0283 O.3       1 <0>        -0.4881
     24 H1         -0.6848    1.4457   -1.4327 H         1 <0>         0.1400
     25 H2          1.4268    2.7019   -1.4472 H         1 <0>         0.1382
     26 H3          0.9688   -1.2851    1.4384 H         1 <0>         0.1411
     27 H4         -1.3498   -4.7057   -0.2887 H         1 <0>         0.1273
     28 H5         -5.7298   -6.0110   -0.1609 H         1 <0>         0.3993
     29 H6         -6.7616   -2.9511    0.1287 H         1 <0>         0.3894
     30 H7         -3.3475    1.6656    0.3060 H         1 <0>         0.4063
     31 H8          3.2923    0.2991    2.4619 H         1 <0>         0.3856
     32 H9          3.5830    2.8348    0.6247 H         1 <0>         0.3864
@<TRIPOS>BOND
     1    1    6 ar
     2    1    2 ar
     3    1   24 1
     4    2    3 ar
     5    2   25 1
     6    3    4 ar
     7    3   23 1
     8    4    5 ar
     9    4   22 1
    10    5    6 ar
    11    5   26 1
    12    6    7 1
    13    7   17 1
    14    7    8 2
    15    8    9 1
    16    8   21 1
    17    9   10 2
    18    9   20 1
    19   10   16 1
    20   10   11 1
    21   11   12 2
    22   11   19 1
    23   12   13 1
    24   12   18 1
    25   13   14 2
    26   13   15 1
    27   15   16 2
    28   15   27 1
    29   16   17 1
    30   18   28 1
    31   19   29 1
    32   21   30 1
    33   22   31 1
    34   23   32 1
@<TRIPOS>MOLECULE
ZINC21288966
   49    52     0     0     0
SMALL
USER_CHARGES
2-(2-chlorophenyl)-5,7-dihydroxy-8-[(3S,4R)-3-hydroxy-1-methyl-4-piperidyl]chromen-4-one
@<TRIPOS>ATOM
      1 C1          6.0895   -0.0238    5.9621 C.3       1 <0>        -0.0460
      2 N1          6.1756    1.0472    4.9603 N.4       1 <0>        -0.3934
      3 C2          5.9739    0.5180    3.6055 C.3       1 <0>        -0.0028
      4 C3          6.2126    1.6289    2.5802 C.3       1 <0>        -0.1464
      5 C4          5.2418    2.7821    2.8491 C.3       1 <0>        -0.0180
      6 H1          4.2050    2.4431    2.7074 H         1 <0>         0.1039
      7 C5          5.4391    3.2830    4.2825 C.3       1 <0>         0.1015
      8 H2          4.7709    4.1271    4.5084 H         1 <0>         0.0941
      9 C6          5.2218    2.1236    5.2574 C.3       1 <0>        -0.0361
     10 O1          6.7669    3.7898    4.4323 O.3       1 <0>        -0.5639
     11 C7          5.5132    3.9050    1.8814 C.ar      1 <0>        -0.2158
     12 C8          6.8017    4.3949    1.7322 C.ar      1 <0>         0.2946
     13 C9          7.0678    5.4304    0.8434 C.ar      1 <0>        -0.3049
     14 C10         6.0448    5.9841    0.0956 C.ar      1 <0>         0.3111
     15 C11         4.7411    5.4942    0.2412 C.ar      1 <0>        -0.3649
     16 C12         4.4748    4.4470    1.1407 C.ar      1 <0>         0.2362
     17 O2          3.2147    3.9814    1.2730 O.3       1 <0>        -0.2171
     18 C13         2.1871    4.4838    0.5705 C.2       1 <0>         0.1982
     19 C14         2.3394    5.4926   -0.3277 C.2       1 <0>        -0.2780
     20 C15         3.6225    6.0546   -0.5353 C.2       1 <0>         0.4382
     21 O3          3.7953    6.9641   -1.3304 O.2       1 <0>        -0.4786
     22 C16         0.8407    3.9147    0.7769 C.ar      1 <0>        -0.0680
     23 C17         0.6478    2.5322    0.7263 C.ar      1 <0>        -0.0708
     24 C18        -0.6124    2.0073    0.9205 C.ar      1 <0>        -0.1159
     25 C19        -1.6867    2.8467    1.1599 C.ar      1 <0>        -0.0780
     26 C20        -1.5036    4.2164    1.2169 C.ar      1 <0>        -0.1066
     27 C21        -0.2472    4.7566    1.0243 C.ar      1 <0>        -0.0057
     28 Cl1        -0.0199    6.4765    1.0889 Cl        1 <0>        -0.0424
     29 O4          6.3024    6.9947   -0.7728 O.3       1 <0>        -0.4999
     30 O5          7.8133    3.8585    2.4614 O.3       1 <0>        -0.4665
     31 H3          6.8128   -0.8151    5.7159 H         1 <0>         0.1242
     32 H4          5.0728   -0.4438    5.9634 H         1 <0>         0.1169
     33 H5          6.3184    0.3856    6.9571 H         1 <0>         0.1225
     34 H6          6.6809   -0.3050    3.4243 H         1 <0>         0.1308
     35 H7          4.9438    0.1448    3.5072 H         1 <0>         0.1211
     36 H8          7.2477    1.9910    2.6662 H         1 <0>         0.1216
     37 H9          6.0450    1.2349    1.5669 H         1 <0>         0.1057
     38 H10         4.1951    1.7434    5.1512 H         1 <0>         0.1298
     39 H11         5.3771    2.4772    6.2874 H         1 <0>         0.1312
     40 H12         7.0946    4.1958    5.4007 H         1 <0>         0.4106
     41 H13         8.0758    5.8030    0.7365 H         1 <0>         0.1471
     42 H14         1.4871    5.8659   -0.8759 H         1 <0>         0.1670
     43 H15         1.4839    1.8757    0.5352 H         1 <0>         0.1384
     44 H16        -0.7625    0.9385    0.8812 H         1 <0>         0.1407
     45 H17        -2.6721    2.4298    1.3071 H         1 <0>         0.1438
     46 H18        -2.3456    4.8651    1.4082 H         1 <0>         0.1476
     47 H19         5.4855    7.4321   -1.3656 H         1 <0>         0.4556
     48 H20         8.8375    4.2431    2.3473 H         1 <0>         0.4397
     49 H21         7.1882    1.4744    5.0059 H         1 <0>         0.4481
@<TRIPOS>BOND
     1    1    2 1
     2    1   31 1
     3    1   32 1
     4    1   33 1
     5    2    9 1
     6    2    3 1
     7    2   49 1
     8    3    4 1
     9    3   34 1
    10    3   35 1
    11    4    5 1
    12    4   36 1
    13    4   37 1
    14    5    6 1
    15    5    7 1
    16    5   11 1
    17    7    8 1
    18    7    9 1
    19    7   10 1
    20    9   38 1
    21    9   39 1
    22   10   40 1
    23   11   16 ar
    24   11   12 ar
    25   12   13 ar
    26   12   30 1
    27   13   14 ar
    28   13   41 1
    29   14   15 ar
    30   14   29 1
    31   15   20 1
    32   15   16 ar
    33   16   17 1
    34   17   18 1
    35   18   19 2
    36   18   22 1
    37   19   20 1
    38   19   42 1
    39   20   21 2
    40   22   27 ar
    41   22   23 ar
    42   23   24 ar
    43   23   43 1
    44   24   25 ar
    45   24   44 1
    46   25   26 ar
    47   25   45 1
    48   26   27 ar
    49   26   46 1
    50   27   28 1
    51   29   47 1
    52   30   48 1
@<TRIPOS>MOLECULE
ZINC12576721
   24    25     0     0     0
SMALL
USER_CHARGES
(5Z)-5-[[4-(trifluoromethyl)phenyl]methylene]thiazolidine-2,4-dione
@<TRIPOS>ATOM
      1 C1         -0.6105    2.7873    3.4816 C.ar      1 <0>        -0.0915
      2 C2          0.0390    2.2926    2.3706 C.ar      1 <0>        -0.0650
      3 C3         -0.6860    1.7352    1.3315 C.ar      1 <0>        -0.1604
      4 C4         -2.0673    1.6741    1.3960 C.ar      1 <0>        -0.0717
      5 C5         -2.7316    2.1595    2.5022 C.ar      1 <0>        -0.0794
      6 C6         -2.0063    2.7246    3.5570 C.ar      1 <0>        -0.0614
      7 C7         -2.7069    3.2492    4.7382 C.2       1 <0>         0.0645
      8 C8         -2.0226    3.9468    5.6780 C.2       1 <0>        -0.2023
      9 C9         -2.4698    4.4376    6.9989 C.2       1 <0>         0.5618
     10 O1         -3.6002    4.2427    7.4045 O.2       1 <0>        -0.4645
     11 N1         -1.5766    5.0956    7.7188 N.am      1 <0>        -0.6848
     12 C10        -0.3268    5.3151    7.2625 C.2       1 <0>         0.5311
     13 O2          0.5851    5.9034    7.8117 O.2       1 <0>        -0.4130
     14 S1         -0.3339    4.5329    5.6574 S.3       1 <0>        -0.0293
     15 C11         0.0322    1.1974    0.1207 C.3       1 <0>         0.5069
     16 F1          0.3392   -0.1526    0.3220 F         1 <0>        -0.1727
     17 F2          1.2137    1.9194   -0.0796 F         1 <0>        -0.1735
     18 F3         -0.7894    1.3262   -1.0042 F         1 <0>        -0.1737
     19 H1         -0.0434    3.2216    4.2917 H         1 <0>         0.1441
     20 H2          1.1163    2.3399    2.3110 H         1 <0>         0.1466
     21 H3         -2.6259    1.2414    0.5792 H         1 <0>         0.1465
     22 H4         -3.8092    2.1074    2.5528 H         1 <0>         0.1489
     23 H5         -3.7668    3.0789    4.8572 H         1 <0>         0.1705
     24 H6         -1.8276    5.4318    8.5933 H         1 <0>         0.4223
@<TRIPOS>BOND
     1    1    6 ar
     2    1    2 ar
     3    1   19 1
     4    2    3 ar
     5    2   20 1
     6    3    4 ar
     7    3   15 1
     8    4    5 ar
     9    4   21 1
    10    5    6 ar
    11    5   22 1
    12    6    7 1
    13    7    8 2
    14    7   23 1
    15    8   14 1
    16    8    9 1
    17    9   10 2
    18    9   11 am
    19   11   12 am
    20   11   24 1
    21   12   13 2
    22   12   14 1
    23   15   16 1
    24   15   17 1
    25   15   18 1
@<TRIPOS>MOLECULE
ZINC12409475
   24    25     0     0     0
SMALL
USER_CHARGES
(5Z)-5-(p-tolylmethylene)thiazolidine-2,4-dione
@<TRIPOS>ATOM
      1 C1         -0.3226   -6.3577    0.3535 C.3       1 <0>        -0.1234
      2 C2          0.4187   -5.0494    0.2532 C.ar      1 <0>        -0.0546
      3 C3          1.8028   -5.0413    0.2477 C.ar      1 <0>        -0.1259
      4 C4          2.4885   -3.8487    0.1563 C.ar      1 <0>        -0.0712
      5 C5          1.7814   -2.6445    0.0685 C.ar      1 <0>        -0.1072
      6 C6          0.3823   -2.6611    0.0796 C.ar      1 <0>        -0.0801
      7 C7         -0.2884   -3.8626    0.1667 C.ar      1 <0>        -0.1204
      8 C8          2.5045   -1.3682   -0.0288 C.2       1 <0>         0.0805
      9 C9          1.8263   -0.2226   -0.2851 C.2       1 <0>        -0.2213
     10 C10         2.3031    1.1768   -0.2775 C.2       1 <0>         0.5624
     11 O1          3.4577    1.4577   -0.0160 O.2       1 <0>        -0.4710
     12 N1          1.4101    2.1076   -0.5692 N.am      1 <0>        -0.6854
     13 C11         0.1314    1.7917   -0.8581 C.2       1 <0>         0.5278
     14 O2         -0.7844    2.5387   -1.1456 O.2       1 <0>        -0.4194
     15 S1          0.1093    0.0114   -0.7244 S.3       1 <0>        -0.0303
     16 H1         -0.4977   -6.5966    1.4025 H         1 <0>         0.0777
     17 H2         -1.2780   -6.2745   -0.1646 H         1 <0>         0.0718
     18 H3          0.2717   -7.1481   -0.1049 H         1 <0>         0.0717
     19 H4          2.3471   -5.9716    0.3155 H         1 <0>         0.1320
     20 H5          3.5685   -3.8440    0.1521 H         1 <0>         0.1353
     21 H6         -0.1708   -1.7356    0.0167 H         1 <0>         0.1343
     22 H7         -1.3682   -3.8774    0.1717 H         1 <0>         0.1323
     23 H8          3.5760   -1.3432    0.1038 H         1 <0>         0.1643
     24 H9          1.6813    3.0389   -0.5759 H         1 <0>         0.4201
@<TRIPOS>BOND
     1    1    2 1
     2    1   16 1
     3    1   17 1
     4    1   18 1
     5    2    7 ar
     6    2    3 ar
     7    3    4 ar
     8    3   19 1
     9    4    5 ar
    10    4   20 1
    11    5    6 ar
    12    5    8 1
    13    6    7 ar
    14    6   21 1
    15    7   22 1
    16    8    9 2
    17    8   23 1
    18    9   15 1
    19    9   10 1
    20   10   11 2
    21   10   12 am
    22   12   13 am
    23   12   24 1
    24   13   14 2
    25   13   15 1
@<TRIPOS>MOLECULE
ZINC12407294
   21    22     0     0     0
SMALL
USER_CHARGES
(5Z)-5-[(3-fluorophenyl)methylene]thiazolidine-2,4-dione
@<TRIPOS>ATOM
      1 C1         -1.3044    3.7324    0.2455 C.ar      1 <0>        -0.0855
      2 C2         -0.0779    4.3109   -0.0050 C.ar      1 <0>        -0.0999
      3 C3          1.0962    3.5999    0.2661 C.ar      1 <0>        -0.0667
      4 C4          1.0164    2.3051    0.7902 C.ar      1 <0>        -0.1155
      5 C5         -0.2190    1.7393    1.0356 C.ar      1 <0>         0.0996
      6 C6         -1.3772    2.4495    0.7584 C.ar      1 <0>        -0.1274
      7 F1         -0.2995    0.4892    1.5416 F         1 <0>        -0.1323
      8 C7          2.4072    4.2102    0.0012 C.2       1 <0>         0.0726
      9 C8          2.4845    5.3874   -0.6667 C.2       1 <0>        -0.2090
     10 C9          3.6514    6.2653   -0.8977 C.2       1 <0>         0.5620
     11 O1          4.7558    5.9870   -0.4696 O.2       1 <0>        -0.4666
     12 N1          3.4333    7.3683   -1.5940 N.am      1 <0>        -0.6850
     13 C10         2.2076    7.6727   -2.0666 C.2       1 <0>         0.5303
     14 O2          1.8682    8.6442   -2.7149 O.2       1 <0>        -0.4155
     15 S1          1.2049    6.3013   -1.5171 S.3       1 <0>        -0.0286
     16 H1         -2.2110    4.2808    0.0364 H         1 <0>         0.1443
     17 H2         -0.0238    5.3106   -0.4099 H         1 <0>         0.1408
     18 H3          1.9182    1.7498    1.0018 H         1 <0>         0.1482
     19 H4         -2.3410    2.0005    0.9477 H         1 <0>         0.1442
     20 H5          3.3088    3.7206    0.3387 H         1 <0>         0.1682
     21 H6          4.1720    7.9723   -1.7684 H         1 <0>         0.4216
@<TRIPOS>BOND
     1    1    6 ar
     2    1    2 ar
     3    1   16 1
     4    2    3 ar
     5    2   17 1
     6    3    4 ar
     7    3    8 1
     8    4    5 ar
     9    4   18 1
    10    5    6 ar
    11    5    7 1
    12    6   19 1
    13    8    9 2
    14    8   20 1
    15    9   15 1
    16    9   10 1
    17   10   11 2
    18   10   12 am
    19   12   13 am
    20   12   21 1
    21   13   14 2
    22   13   15 1
@<TRIPOS>MOLECULE
ZINC00078789
   35    38     0     0     0
SMALL
USER_CHARGES
N-cyclopropyl-7-[4-(trifluoromethyl)phenyl]-5,6,8,9-tetrazabicyclo[4.3.0]nona-2,4,7,9-tetraen-4-amine
@<TRIPOS>ATOM
      1 C1          5.2679    0.7257    0.5725 C.ar      1 <0>        -0.0915
      2 C2          6.6099    1.0000    0.7364 C.ar      1 <0>        -0.0703
      3 C3          7.5564    0.0292    0.4604 C.ar      1 <0>        -0.1703
      4 C4          7.1644   -1.2237    0.0232 C.ar      1 <0>        -0.0696
      5 C5          5.8255   -1.5129   -0.1399 C.ar      1 <0>        -0.0766
      6 C6          4.8652   -0.5382    0.1372 C.ar      1 <0>         0.0144
      7 C7          3.4291   -0.8410   -0.0352 C.2       1 <0>         0.2337
      8 N1          2.8930   -2.0399   -0.1715 N.2       1 <0>        -0.2364
      9 N2          1.6164   -1.9406   -0.3008 N.2       1 <0>        -0.2409
     10 C8          1.2627   -0.6642   -0.2540 C.2       1 <0>         0.1275
     11 N3          2.4122    0.0659   -0.0834 N.pl3     1 <0>        -0.2641
     12 N4          2.3524    1.4581    0.0026 N.2       1 <0>        -0.3444
     13 C9          1.1998    2.0816   -0.0784 C.2       1 <0>         0.4261
     14 C10         0.0019    1.3618   -0.2534 C.2       1 <0>        -0.1801
     15 C11         0.0278    0.0051   -0.3407 C.2       1 <0>         0.0199
     16 N5          1.1612    3.4690    0.0096 N.pl3     1 <0>        -0.6686
     17 C12        -0.1197    4.1737   -0.0850 C.3       1 <0>         0.0743
     18 C13        -0.2295    5.3055   -1.1087 C.3       1 <0>        -0.1899
     19 C14        -0.1620    5.6288    0.3859 C.3       1 <0>        -0.1776
     20 C15         9.0209    0.3380    0.6363 C.3       1 <0>         0.5083
     21 F1          9.5364    0.8502   -0.5592 F         1 <0>        -0.1746
     22 F2          9.1791    1.2834    1.6553 F         1 <0>        -0.1757
     23 F3          9.7069   -0.8330    0.9760 F         1 <0>        -0.1745
     24 H1          4.5303    1.4856    0.7843 H         1 <0>         0.1477
     25 H2          6.9227    1.9760    1.0770 H         1 <0>         0.1424
     26 H3          7.9083   -1.9769   -0.1904 H         1 <0>         0.1462
     27 H4          5.5208   -2.4911   -0.4815 H         1 <0>         0.1507
     28 H5         -0.9383    1.8886   -0.3228 H         1 <0>         0.1629
     29 H6         -0.8877   -0.5518   -0.4753 H         1 <0>         0.1751
     30 H7          1.9824    3.9702    0.1336 H         1 <0>         0.4152
     31 H8         -1.0060    3.5630    0.0871 H         1 <0>         0.1373
     32 H9          0.6514    5.5257   -1.7118 H         1 <0>         0.1015
     33 H10        -1.1881    5.4396   -1.6098 H         1 <0>         0.1084
     34 H11        -1.0762    5.9755    0.8675 H         1 <0>         0.1111
     35 H12         0.7633    6.0618    0.7662 H         1 <0>         0.1023
@<TRIPOS>BOND
     1    1    6 ar
     2    1    2 ar
     3    1   24 1
     4    2    3 ar
     5    2   25 1
     6    3    4 ar
     7    3   20 1
     8    4    5 ar
     9    4   26 1
    10    5    6 ar
    11    5   27 1
    12    6    7 1
    13    7   11 1
    14    7    8 2
    15    8    9 1
    16    9   10 2
    17   10   15 1
    18   10   11 1
    19   11   12 1
    20   12   13 2
    21   13   14 1
    22   13   16 1
    23   14   15 2
    24   14   28 1
    25   15   29 1
    26   16   17 1
    27   16   30 1
    28   17   19 1
    29   17   18 1
    30   17   31 1
    31   18   19 1
    32   18   32 1
    33   18   33 1
    34   19   34 1
    35   19   35 1
    36   20   21 1
    37   20   22 1
    38   20   23 1
@<TRIPOS>MOLECULE
ZINC14761282
   30    32     0     0     0
SMALL
USER_CHARGES
2,3,6,8-tetrahydroxy-1-methyl-xanthen-9-one
@<TRIPOS>ATOM
      1 C1         -4.9185    5.5078    0.0779 C.3       1 <0>        -0.1280
      2 C2         -3.5589    6.1577    0.0694 C.ar      1 <0>         0.0027
      3 C3         -2.4048    5.3710    0.0883 C.ar      1 <0>        -0.2276
      4 C4         -1.1351    5.9695    0.0801 C.ar      1 <0>         0.1781
      5 C5         -1.0400    7.3557    0.0535 C.ar      1 <0>        -0.1694
      6 C6         -2.1856    8.1307    0.0344 C.ar      1 <0>         0.1596
      7 C7         -3.4480    7.5321    0.0426 C.ar      1 <0>         0.0442
      8 O1         -4.5676    8.3049    0.0246 O.3       1 <0>        -0.4751
      9 O2         -2.0823    9.4845    0.0080 O.3       1 <0>        -0.4786
     10 O3         -0.0131    5.2197    0.0996 O.3       1 <0>        -0.2248
     11 C8         -0.0194    3.8712    0.1264 C.ar      1 <0>         0.1996
     12 C9          1.1807    3.1742    0.1442 C.ar      1 <0>        -0.1877
     13 C10         1.1827    1.7884    0.1728 C.ar      1 <0>         0.1985
     14 C11        -0.0121    1.0771    0.1840 C.ar      1 <0>        -0.2101
     15 C12        -1.2187    1.7514    0.1609 C.ar      1 <0>         0.2237
     16 C13        -1.2274    3.1533    0.1372 C.ar      1 <0>        -0.2714
     17 C14        -2.4972    3.8983    0.1181 C.2       1 <0>         0.4404
     18 O4         -3.5727    3.3265    0.1261 O.2       1 <0>        -0.4278
     19 O5         -2.3868    1.0612    0.1665 O.3       1 <0>        -0.4737
     20 O6          2.3631    1.1188    0.1904 O.3       1 <0>        -0.4885
     21 H1         -5.1981    5.2636    1.1027 H         1 <0>         0.0812
     22 H2         -5.6520    6.1943   -0.3451 H         1 <0>         0.0771
     23 H3         -4.8888    4.5955   -0.5179 H         1 <0>         0.1005
     24 H4         -0.0693    7.8290    0.0476 H         1 <0>         0.1557
     25 H5         -4.8934    8.5457    0.9026 H         1 <0>         0.3881
     26 H6         -2.0550    9.8940    0.8835 H         1 <0>         0.3991
     27 H7          2.1163    3.7136    0.1362 H         1 <0>         0.1540
     28 H8          0.0026   -0.0026    0.2063 H         1 <0>         0.1507
     29 H9         -2.7320    0.8796    1.0513 H         1 <0>         0.4040
     30 H10         2.7079    0.9062   -0.6877 H         1 <0>         0.4055
@<TRIPOS>BOND
     1    1    2 1
     2    1   21 1
     3    1   22 1
     4    1   23 1
     5    2    7 ar
     6    2    3 ar
     7    3   17 1
     8    3    4 ar
     9    4    5 ar
    10    4   10 1
    11    5    6 ar
    12    5   24 1
    13    6    7 ar
    14    6    9 1
    15    7    8 1
    16    8   25 1
    17    9   26 1
    18   10   11 1
    19   11   16 ar
    20   11   12 ar
    21   12   13 ar
    22   12   27 1
    23   13   14 ar
    24   13   20 1
    25   14   15 ar
    26   14   28 1
    27   15   16 ar
    28   15   19 1
    29   16   17 1
    30   17   18 2
    31   19   29 1
    32   20   30 1
@<TRIPOS>MOLECULE
ZINC05765089
   29    31     0     0     0
SMALL
USER_CHARGES

@<TRIPOS>ATOM
      1 C1         -0.0184    1.5028    0.0103 C.3       1 <0>        -0.1367
      2 C2          0.0021   -0.0041    0.0020 C.ar      1 <0>         0.0282
      3 C3         -0.0973   -0.6847   -1.1788 C.ar      1 <0>        -0.1804
      4 C4         -0.0792   -2.0771   -1.1881 C.ar      1 <0>         0.1822
      5 C5          0.0345   -2.7895   -0.0055 C.ar      1 <0>        -0.1820
      6 C6          0.1334   -2.1139    1.2039 C.ar      1 <0>         0.1783
      7 C7          0.1281   -0.7086    1.1986 C.ar      1 <0>        -0.2401
      8 C8          0.2606   -0.0000    2.4884 C.2       1 <0>         0.4451
      9 O1          0.0373    1.1924    2.5965 O.2       1 <0>        -0.4312
     10 C9          0.6790   -0.8246    3.6365 C.ar      1 <0>        -0.2676
     11 C10         1.0900   -0.2324    4.8377 C.ar      1 <0>         0.2207
     12 C11         1.4887   -1.0348    5.8911 C.ar      1 <0>        -0.2061
     13 C12         1.4773   -2.4184    5.7537 C.ar      1 <0>         0.1948
     14 C13         1.0665   -3.0096    4.5691 C.ar      1 <0>        -0.1861
     15 C14         0.6594   -2.2235    3.5001 C.ar      1 <0>         0.1917
     16 O2          0.2346   -2.8057    2.3566 O.3       1 <0>        -0.2230
     17 O3          1.8734   -3.1989    6.7909 O.3       1 <0>        -0.4878
     18 O4          1.0974    1.1182    4.9664 O.3       1 <0>        -0.4756
     19 O5         -0.1745   -2.7426   -2.3671 O.3       1 <0>        -0.4906
     20 H1          1.0041    1.8799    0.0331 H         1 <0>         0.0805
     21 H2         -0.5190    1.8643   -0.8879 H         1 <0>         0.0715
     22 H3         -0.5549    1.8540    0.8917 H         1 <0>         0.1033
     23 H4         -0.1904   -0.1412   -2.1075 H         1 <0>         0.1438
     24 H5          0.0459   -3.8693   -0.0240 H         1 <0>         0.1507
     25 H6          1.8091   -0.5869    6.8201 H         1 <0>         0.1508
     26 H7          1.0628   -4.0857    4.4778 H         1 <0>         0.1534
     27 H8          1.1576   -3.4480    7.3914 H         1 <0>         0.4043
     28 H9          0.2677    1.4861    5.3001 H         1 <0>         0.4052
     29 H10         0.6778   -2.9235   -2.7866 H         1 <0>         0.4025
@<TRIPOS>BOND
     1    1    2 1
     2    1   20 1
     3    1   21 1
     4    1   22 1
     5    2    7 ar
     6    2    3 ar
     7    3    4 ar
     8    3   23 1
     9    4    5 ar
    10    4   19 1
    11    5    6 ar
    12    5   24 1
    13    6   16 1
    14    6    7 ar
    15    7    8 1
    16    8    9 2
    17    8   10 1
    18   10   15 ar
    19   10   11 ar
    20   11   12 ar
    21   11   18 1
    22   12   13 ar
    23   12   25 1
    24   13   14 ar
    25   13   17 1
    26   14   15 ar
    27   14   26 1
    28   15   16 1
    29   17   27 1
    30   18   28 1
    31   19   29 1
@<TRIPOS>MOLECULE
ZINC05765089
   28    30     0     0     0
SMALL
USER_CHARGES

@<TRIPOS>ATOM
      1 C1         -0.0184    1.5028    0.0103 C.3       1 <0>        -0.0946
      2 C2          0.0021   -0.0041    0.0020 C.2       1 <0>         0.0591
      3 C3         -0.0968   -0.6775   -1.1722 C.2       1 <0>        -0.3221
      4 C4         -0.0783   -2.0856   -1.1867 C.2       1 <0>         0.4022
      5 O1         -0.1681   -2.6860   -2.2518 O.2       1 <0>        -0.5987
      6 C5          0.0425   -2.8026    0.0086 C.2       1 <0>        -0.3470
      7 C6          0.1436   -2.1263    1.2084 C.2       1 <0>         0.2078
      8 O2          0.2608   -2.8142    2.3642 O.3       1 <0>        -0.2309
      9 C7          0.3622   -2.1866    3.5553 C.ar      1 <0>         0.1969
     10 C8          0.4816   -2.9256    4.7214 C.ar      1 <0>        -0.1992
     11 C9          0.5864   -2.2840    5.9466 C.ar      1 <0>         0.1800
     12 C10         0.5734   -0.8945    6.0237 C.ar      1 <0>        -0.2252
     13 C11         0.4551   -0.1369    4.8762 C.ar      1 <0>         0.2188
     14 C12         0.3485   -0.7788    3.6264 C.ar      1 <0>        -0.2281
     15 C13         0.2270   -0.0212    2.4378 C.2       1 <0>         0.3730
     16 C14         0.1294   -0.7127    1.2115 C.2       1 <0>        -0.3487
     17 O3          0.2105    1.3262    2.4751 O.3       1 <0>        -0.5701
     18 O4          0.4414    1.2171    4.9510 O.3       1 <0>        -0.4672
     19 O5          0.7023   -3.0184    7.0814 O.3       1 <0>        -0.4921
     20 H1          0.9099    1.8764    0.4425 H         1 <0>         0.0718
     21 H2         -0.1174    1.8704   -1.0110 H         1 <0>         0.0406
     22 H3         -0.8624    1.8514    0.6054 H         1 <0>         0.0727
     23 H4         -0.1903   -0.1313   -2.0992 H         1 <0>         0.1086
     24 H5          0.0562   -3.8824   -0.0069 H         1 <0>         0.1152
     25 H6          0.4926   -4.0046    4.6761 H         1 <0>         0.1454
     26 H7          0.6557   -0.4076    6.9842 H         1 <0>         0.1400
     27 H8          1.3170    1.6232    4.8909 H         1 <0>         0.3962
     28 H9          1.6154   -3.2188    7.3287 H         1 <0>         0.3956
@<TRIPOS>BOND
     1    1    2 1
     2    1   20 1
     3    1   21 1
     4    1   22 1
     5    2   16 1
     6    2    3 2
     7    3    4 1
     8    3   23 1
     9    4    5 2
    10    4    6 1
    11    6    7 2
    12    6   24 1
    13    7   16 1
    14    7    8 1
    15    8    9 1
    16    9   14 ar
    17    9   10 ar
    18   10   11 ar
    19   10   25 1
    20   11   12 ar
    21   11   19 1
    22   12   13 ar
    23   12   26 1
    24   13   14 ar
    25   13   18 1
    26   14   15 1
    27   15   16 2
    28   15   17 1
    29   18   27 1
    30   19   28 1
@<TRIPOS>MOLECULE
ZINC40394908
   26    28     0     0     0
SMALL
USER_CHARGES

@<TRIPOS>ATOM
      1 C1         -0.0187    1.5258    0.0104 C.3       1 <0>        -0.1725
      2 C2          0.0021   -0.0041    0.0020 C.3       1 <0>         0.0983
      3 N1         -1.3723   -0.5112    0.0124 N.pl3     1 <0>        -0.4904
      4 C3         -1.9989   -0.7469    1.2217 C.ar      1 <0>         0.2323
      5 C4         -1.3205   -0.5016    2.4122 C.ar      1 <0>        -0.1557
      6 C5         -1.9400   -0.7343    3.6220 C.ar      1 <0>        -0.0164
      7 C6         -3.2448   -1.2154    3.6684 C.ar      1 <0>         0.0519
      8 C7         -3.9341   -1.4653    2.5031 C.ar      1 <0>        -0.0469
      9 C8         -3.3175   -1.2326    1.2669 C.ar      1 <0>        -0.1215
     10 C9         -4.0427   -1.4949    0.0189 C.2       1 <0>         0.3978
     11 O1         -5.3088   -1.9606    0.0421 O.3       1 <0>        -0.5962
     12 C10        -3.3962   -1.2522   -1.1895 C.2       1 <0>        -0.4947
     13 C11        -2.0185   -0.7389   -1.1847 C.2       1 <0>         0.3641
     14 N2         -1.6588   -0.5947   -2.4326 N.2       1 <0>        -0.3802
     15 O2         -2.7186   -0.9773   -3.2848 O.3       1 <0>        -0.1731
     16 C12        -3.7685   -1.3841   -2.5484 C.2       1 <0>         0.5030
     17 O3         -4.8412   -1.7779   -2.9711 O.2       1 <0>        -0.5127
     18 F1         -3.8375   -1.4387    4.8618 F         1 <0>        -0.1307
     19 Cl1        -1.0841   -0.4248    5.1004 Cl        1 <0>        -0.0513
     20 H1          1.0039    1.9031    0.0027 H         1 <0>         0.0725
     21 H2         -0.5459    1.8868   -0.8726 H         1 <0>         0.0663
     22 H3         -0.5289    1.8773    0.9072 H         1 <0>         0.0607
     23 H4          0.5123   -0.3556   -0.8948 H         1 <0>         0.0949
     24 H5          0.5293   -0.3651    0.8851 H         1 <0>         0.0884
     25 H6         -0.3072   -0.1288    2.3883 H         1 <0>         0.1516
     26 H7         -4.9465   -1.8394    2.5418 H         1 <0>         0.1606
@<TRIPOS>BOND
     1    1    2 1
     2    1   20 1
     3    1   21 1
     4    1   22 1
     5    2    3 1
     6    2   23 1
     7    2   24 1
     8    3   13 1
     9    3    4 1
    10    4    9 ar
    11    4    5 ar
    12    5    6 ar
    13    5   25 1
    14    6    7 ar
    15    6   19 1
    16    7    8 ar
    17    7   18 1
    18    8    9 ar
    19    8   26 1
    20    9   10 1
    21   10   11 1
    22   10   12 2
    23   12   16 1
    24   12   13 1
    25   13   14 2
    26   14   15 1
    27   15   16 1
    28   16   17 2
@<TRIPOS>MOLECULE
ZINC06855353
   51    54     0     0     0
SMALL
USER_CHARGES

@<TRIPOS>ATOM
      1 C1         -0.4467    2.2923   -2.9058 C.3       1 <0>        -0.1802
      2 C2         -0.9414    2.0498   -1.5031 C.2       1 <0>         0.4299
      3 C3         -2.3253    2.1268   -1.2178 C.2       1 <0>        -0.4830
      4 C4         -2.9939    1.8006    0.0972 C.3       1 <0>         0.2558
      5 H1         -2.8167    0.7575    0.3590 H         1 <0>         0.0718
      6 N1         -4.4289    2.0336   -0.1033 N.am      1 <0>        -0.6081
      7 C5         -4.6091    2.4463   -1.3710 C.2       1 <0>         0.5062
      8 O1         -5.6818    2.7272   -1.8670 O.2       1 <0>        -0.5332
      9 C6         -3.3067    2.5130   -2.0700 C.2       1 <0>         0.2814
     10 O2         -3.1247    2.8949   -3.3538 O.3       1 <0>        -0.6224
     11 C7         -5.4801    1.8484    0.9001 C.3       1 <0>         0.1450
     12 C8         -5.6830    3.1532    1.6729 C.3       1 <0>        -0.0698
     13 C9         -6.7644    2.9628    2.7050 C.2       1 <0>        -0.1566
     14 C10        -8.0665    3.2555    2.5606 C.2       1 <0>         0.0510
     15 N2         -8.7441    2.9475    3.7088 N.pl3     1 <0>        -0.5973
     16 H2         -9.6967    3.0710    3.8439 H         1 <0>         0.4137
     17 C11        -7.8724    2.4360    4.6439 C.ar      1 <0>         0.0946
     18 C12        -6.5951    2.4172    4.0540 C.ar      1 <0>        -0.0986
     19 C13        -5.5012    1.9375    4.7763 C.ar      1 <0>        -0.0636
     20 C14        -5.6776    1.4844    6.0536 C.ar      1 <0>        -0.1500
     21 C15        -6.9361    1.4970    6.6385 C.ar      1 <0>        -0.1006
     22 C16        -8.0279    1.9749    5.9469 C.ar      1 <0>        -0.1349
     23 C17        -2.4693    2.7042    1.1832 C.ar      1 <0>        -0.0252
     24 C18        -2.8118    4.0436    1.1913 C.ar      1 <0>        -0.1164
     25 C19        -2.3332    4.8767    2.1853 C.ar      1 <0>        -0.1117
     26 C20        -1.5086    4.3696    3.1767 C.ar      1 <0>         0.0607
     27 C21        -1.1642    3.0213    3.1688 C.ar      1 <0>         0.0992
     28 C22        -1.6513    2.1908    2.1723 C.ar      1 <0>        -0.1666
     29 O3         -0.3552    2.5189    4.1396 O.3       1 <0>        -0.3125
     30 C23        -0.0437    1.1261    4.0681 C.3       1 <0>         0.0259
     31 O4         -1.0365    5.1878    4.1550 O.3       1 <0>        -0.4885
     32 O5         -0.1529    1.7886   -0.6181 O.2       1 <0>        -0.5474
     33 H3         -0.3185    3.3628   -3.0659 H         1 <0>         0.0731
     34 H4          0.5088    1.7869   -3.0464 H         1 <0>         0.0525
     35 H5         -1.1724    1.9024   -3.6195 H         1 <0>         0.0883
     36 H6         -6.4106    1.5712    0.4046 H         1 <0>         0.0771
     37 H7         -5.1873    1.0583    1.5915 H         1 <0>         0.0739
     38 H8         -4.7526    3.4305    2.1684 H         1 <0>         0.0844
     39 H9         -5.9758    3.9433    0.9814 H         1 <0>         0.0725
     40 H10        -8.5131    3.6726    1.6702 H         1 <0>         0.1703
     41 H11        -4.5191    1.9240    4.3273 H         1 <0>         0.1206
     42 H12        -4.8310    1.1133    6.6120 H         1 <0>         0.1197
     43 H13        -7.0598    1.1351    7.6485 H         1 <0>         0.1214
     44 H14        -9.0034    1.9795    6.4104 H         1 <0>         0.1159
     45 H15        -3.4545    4.4401    0.4191 H         1 <0>         0.1209
     46 H16        -2.6017    5.9227    2.1889 H         1 <0>         0.1286
     47 H17        -1.3886    1.1433    2.1660 H         1 <0>         0.1291
     48 H18         0.6074    0.8562    4.8995 H         1 <0>         0.0943
     49 H19        -0.9640    0.5447    4.1238 H         1 <0>         0.0521
     50 H20         0.4629    0.9150    3.1264 H         1 <0>         0.0593
     51 H21        -1.6081    5.2409    4.9331 H         1 <0>         0.3771
@<TRIPOS>BOND
     1    1   33 1
     2    1   34 1
     3    1   35 1
     4    1    2 1
     5    2    3 1
     6    2   32 2
     7    3    9 2
     8    3    4 1
     9    4    6 1
    10    4   23 1
    11    4    5 1
    12    6   11 1
    13    6    7 am
    14    7    8 2
    15    7    9 1
    16    9   10 1
    17   11   12 1
    18   11   36 1
    19   11   37 1
    20   12   13 1
    21   12   38 1
    22   12   39 1
    23   13   18 1
    24   13   14 2
    25   14   15 1
    26   14   40 1
    27   15   16 1
    28   15   17 1
    29   17   22 ar
    30   17   18 ar
    31   18   19 ar
    32   19   20 ar
    33   19   41 1
    34   20   21 ar
    35   20   42 1
    36   21   22 ar
    37   21   43 1
    38   22   44 1
    39   23   28 ar
    40   23   24 ar
    41   24   25 ar
    42   24   45 1
    43   25   26 ar
    44   25   46 1
    45   26   27 ar
    46   26   31 1
    47   27   28 ar
    48   27   29 1
    49   28   47 1
    50   29   30 1
    51   30   48 1
    52   30   49 1
    53   30   50 1
    54   31   51 1
@<TRIPOS>MOLECULE
ZINC06855387
   51    54     0     0     0
SMALL
USER_CHARGES

@<TRIPOS>ATOM
      1 C1         -0.0127    1.0858    0.0080 C.3       1 <0>        -0.1895
      2 C2         -0.7416    1.5850   -1.2129 C.2       1 <0>         0.4158
      3 C3         -2.1391    1.8017   -1.1633 C.2       1 <0>        -0.4920
      4 C4         -3.0425    1.5888    0.0288 C.3       1 <0>         0.2511
      5 H1         -2.7340    2.2328    0.8523 H         1 <0>         0.0722
      6 N1         -4.3953    1.9473   -0.4124 N.am      1 <0>        -0.6077
      7 C5         -4.3245    2.3276   -1.7009 C.2       1 <0>         0.5075
      8 O1         -5.2688    2.6890   -2.3742 O.2       1 <0>        -0.5322
      9 C6         -2.9252    2.2460   -2.1749 C.2       1 <0>         0.2861
     10 O2         -2.4991    2.5611   -3.4184 O.3       1 <0>        -0.6011
     11 C7         -5.6095    1.8989    0.4059 C.3       1 <0>         0.1430
     12 C8         -5.8065    3.2448    1.1063 C.3       1 <0>        -0.0619
     13 C9         -7.0555    3.1950    1.9481 C.2       1 <0>        -0.1594
     14 C10        -8.2812    3.6027    1.5830 C.2       1 <0>         0.0536
     15 N2         -9.1644    3.4024    2.6088 N.pl3     1 <0>        -0.5971
     16 H2        -10.1093    3.6195    2.5810 H         1 <0>         0.4141
     17 C11        -8.5118    2.8469    3.6866 C.ar      1 <0>         0.0944
     18 C12        -7.1635    2.6867    3.3177 C.ar      1 <0>        -0.0994
     19 C13        -6.2549    2.1339    4.2220 C.ar      1 <0>        -0.0651
     20 C14        -6.6814    1.7473    5.4614 C.ar      1 <0>        -0.1494
     21 C15        -8.0112    1.8994    5.8286 C.ar      1 <0>        -0.1008
     22 C16        -8.9228    2.4512    4.9550 C.ar      1 <0>        -0.1340
     23 C17        -3.0031    0.1444    0.4571 C.ar      1 <0>        -0.0331
     24 C18        -3.7224   -0.8035   -0.2467 C.ar      1 <0>        -0.1177
     25 C19        -3.6896   -2.1297    0.1421 C.ar      1 <0>        -0.1057
     26 C20        -2.9342   -2.5115    1.2393 C.ar      1 <0>         0.0597
     27 C21        -2.2099   -1.5574    1.9474 C.ar      1 <0>         0.1009
     28 C22        -2.2433   -0.2306    1.5494 C.ar      1 <0>        -0.1874
     29 O3         -1.4671   -1.9272    3.0249 O.3       1 <0>        -0.3113
     30 C23        -0.7496   -0.8943    3.7035 C.3       1 <0>         0.0245
     31 O4         -2.9012   -3.8156    1.6234 O.3       1 <0>        -0.4898
     32 O5         -0.1299    1.8013   -2.2387 O.2       1 <0>        -0.5133
     33 H3          0.0021   -0.0041    0.0020 H         1 <0>         0.0715
     34 H4          1.0099    1.4631    0.0003 H         1 <0>         0.0628
     35 H5         -0.5229    1.4373    0.9048 H         1 <0>         0.0639
     36 H6         -6.4692    1.6916   -0.2314 H         1 <0>         0.0772
     37 H7         -5.5129    1.1112    1.1531 H         1 <0>         0.0763
     38 H8         -4.9468    3.4521    1.7436 H         1 <0>         0.0730
     39 H9         -5.9031    4.0325    0.3591 H         1 <0>         0.0747
     40 H10        -8.5330    4.0263    0.6220 H         1 <0>         0.1710
     41 H11        -5.2188    2.0119    3.9429 H         1 <0>         0.1213
     42 H12        -5.9782    1.3197    6.1607 H         1 <0>         0.1201
     43 H13        -8.3333    1.5885    6.8115 H         1 <0>         0.1218
     44 H14        -9.9557    2.5643    5.2497 H         1 <0>         0.1163
     45 H15        -4.3115   -0.5073   -1.1021 H         1 <0>         0.1232
     46 H16        -4.2529   -2.8681   -0.4090 H         1 <0>         0.1305
     47 H17        -1.6791    0.5113    2.0951 H         1 <0>         0.1330
     48 H18        -0.2001   -1.3238    4.5412 H         1 <0>         0.0961
     49 H19        -0.0497   -0.4240    3.0128 H         1 <0>         0.0568
     50 H20        -1.4516   -0.1475    4.0742 H         1 <0>         0.0546
     51 H21        -2.1960   -4.3303    1.2077 H         1 <0>         0.3806
@<TRIPOS>BOND
     1    1   33 1
     2    1   34 1
     3    1   35 1
     4    1    2 1
     5    2    3 1
     6    2   32 2
     7    3    9 2
     8    3    4 1
     9    4    6 1
    10    4   23 1
    11    4    5 1
    12    6   11 1
    13    6    7 am
    14    7    8 2
    15    7    9 1
    16    9   10 1
    17   11   12 1
    18   11   36 1
    19   11   37 1
    20   12   13 1
    21   12   38 1
    22   12   39 1
    23   13   18 1
    24   13   14 2
    25   14   15 1
    26   14   40 1
    27   15   16 1
    28   15   17 1
    29   17   22 ar
    30   17   18 ar
    31   18   19 ar
    32   19   20 ar
    33   19   41 1
    34   20   21 ar
    35   20   42 1
    36   21   22 ar
    37   21   43 1
    38   22   44 1
    39   23   28 ar
    40   23   24 ar
    41   24   25 ar
    42   24   45 1
    43   25   26 ar
    44   25   46 1
    45   26   27 ar
    46   26   31 1
    47   27   28 ar
    48   27   29 1
    49   28   47 1
    50   29   30 1
    51   30   48 1
    52   30   49 1
    53   30   50 1
    54   31   51 1
@<TRIPOS>MOLECULE
ZINC00813578
   53    56     0     0     0
SMALL
USER_CHARGES

@<TRIPOS>ATOM
      1 C1         -0.0187    1.5258    0.0104 C.3       1 <0>        -0.1516
      2 C2          0.0021   -0.0041    0.0020 C.3       1 <0>         0.0556
      3 O1         -1.3386   -0.4987    0.0122 O.3       1 <0>        -0.3206
      4 C3         -1.4983   -1.8483    0.0064 C.ar      1 <0>         0.1160
      5 C4         -0.3876   -2.6794   -0.0028 C.ar      1 <0>        -0.2083
      6 C5         -0.5526   -4.0509   -0.0082 C.ar      1 <0>        -0.0754
      7 C6         -1.8235   -4.5955   -0.0047 C.ar      1 <0>        -0.1002
      8 C7         -2.9322   -3.7693    0.0041 C.ar      1 <0>        -0.0580
      9 C8         -2.7724   -2.3972    0.0157 C.ar      1 <0>        -0.1508
     10 C9         -2.0007   -6.0920   -0.0110 C.3       1 <0>         0.2547
     11 H1         -1.0868   -6.5756   -0.3560 H         1 <0>         0.0703
     12 C10        -2.3545   -6.5789    1.3748 C.2       1 <0>        -0.4907
     13 C11        -3.5721   -7.1685    1.2828 C.2       1 <0>         0.2839
     14 C12        -4.0430   -7.0916   -0.1178 C.2       1 <0>         0.5069
     15 O2         -5.1008   -7.5304   -0.5229 O.2       1 <0>        -0.5343
     16 N1         -3.1256   -6.4631   -0.8772 N.am      1 <0>        -0.6088
     17 C13        -3.2314   -6.1958   -2.3138 C.3       1 <0>         0.1442
     18 C14        -2.6340   -7.3674   -3.0958 C.3       1 <0>        -0.0622
     19 C15        -2.7428   -7.0925   -4.5735 C.2       1 <0>        -0.1584
     20 C16        -3.7244   -7.5030   -5.3919 C.2       1 <0>         0.0529
     21 N2         -3.4851   -7.0627   -6.6652 N.pl3     1 <0>        -0.5972
     22 H2         -4.0557   -7.2343   -7.4306 H         1 <0>         0.4140
     23 C17        -2.3137   -6.3397   -6.6981 C.ar      1 <0>         0.0944
     24 C18        -1.8006   -6.3213   -5.3880 C.ar      1 <0>        -0.0994
     25 C19        -0.6086   -5.6475   -5.1163 C.ar      1 <0>        -0.0646
     26 C20         0.0529   -5.0054   -6.1251 C.ar      1 <0>        -0.1502
     27 C21        -0.4512   -5.0171   -7.4182 C.ar      1 <0>        -0.1013
     28 C22        -1.6213   -5.6838   -7.7103 C.ar      1 <0>        -0.1344
     29 O3         -4.2474   -7.7364    2.3068 O.3       1 <0>        -0.6041
     30 C23        -1.5672   -6.4454    2.5430 C.2       1 <0>         0.4154
     31 O4         -1.9710   -6.8839    3.6003 O.2       1 <0>        -0.5153
     32 C24        -0.2275   -5.7587    2.4744 C.3       1 <0>        -0.1891
     33 H3          1.0039    1.9031    0.0027 H         1 <0>         0.0752
     34 H4         -0.5459    1.8868   -0.8726 H         1 <0>         0.0642
     35 H5         -0.5289    1.8773    0.9072 H         1 <0>         0.0649
     36 H6          0.5123   -0.3556   -0.8948 H         1 <0>         0.0591
     37 H7          0.5293   -0.3651    0.8851 H         1 <0>         0.0599
     38 H8          0.6053   -2.2545   -0.0062 H         1 <0>         0.1221
     39 H9          0.3118   -4.6984   -0.0154 H         1 <0>         0.1248
     40 H10        -3.9238   -4.1971    0.0064 H         1 <0>         0.1225
     41 H11        -3.6386   -1.7523    0.0270 H         1 <0>         0.1239
     42 H12        -4.2803   -6.0754   -2.5847 H         1 <0>         0.0757
     43 H13        -2.6867   -5.2829   -2.5546 H         1 <0>         0.0761
     44 H14        -1.5851   -7.4879   -2.8249 H         1 <0>         0.0734
     45 H15        -3.1786   -8.2803   -2.8550 H         1 <0>         0.0743
     46 H16        -4.5768   -8.0936   -5.0901 H         1 <0>         0.1710
     47 H17        -0.2107   -5.6335   -4.1124 H         1 <0>         0.1224
     48 H18         0.9751   -4.4843   -5.9144 H         1 <0>         0.1199
     49 H19         0.0826   -4.5044   -8.2047 H         1 <0>         0.1214
     50 H20        -2.0060   -5.6861   -8.7195 H         1 <0>         0.1160
     51 H21        -0.3560   -4.6922    2.6592 H         1 <0>         0.0723
     52 H22         0.4361   -6.1808    3.2291 H         1 <0>         0.0614
     53 H23         0.2063   -5.9065    1.4855 H         1 <0>         0.0657
@<TRIPOS>BOND
     1    1    2 1
     2    1   33 1
     3    1   34 1
     4    1   35 1
     5    2    3 1
     6    2   36 1
     7    2   37 1
     8    3    4 1
     9    4    9 ar
    10    4    5 ar
    11    5    6 ar
    12    5   38 1
    13    6    7 ar
    14    6   39 1
    15    7    8 ar
    16    7   10 1
    17    8    9 ar
    18    8   40 1
    19    9   41 1
    20   10   11 1
    21   10   16 1
    22   10   12 1
    23   12   13 2
    24   12   30 1
    25   13   14 1
    26   13   29 1
    27   14   15 2
    28   14   16 am
    29   16   17 1
    30   17   18 1
    31   17   42 1
    32   17   43 1
    33   18   19 1
    34   18   44 1
    35   18   45 1
    36   19   24 1
    37   19   20 2
    38   20   21 1
    39   20   46 1
    40   21   22 1
    41   21   23 1
    42   23   28 ar
    43   23   24 ar
    44   24   25 ar
    45   25   26 ar
    46   25   47 1
    47   26   27 ar
    48   26   48 1
    49   27   28 ar
    50   27   49 1
    51   28   50 1
    52   30   31 2
    53   30   32 1
    54   32   51 1
    55   32   52 1
    56   32   53 1
@<TRIPOS>MOLECULE
ZINC00813578
   54    57     0     0     0
SMALL
USER_CHARGES

@<TRIPOS>ATOM
      1 C1         -0.0187    1.5258    0.0104 C.3       1 <0>        -0.1542
      2 C2          0.0021   -0.0041    0.0020 C.3       1 <0>         0.0539
      3 O1          0.6932   -0.4774    1.1597 O.3       1 <0>        -0.3149
      4 C3          0.8020   -1.8242    1.3057 C.ar      1 <0>         0.1422
      5 C4          0.2597   -2.6726    0.3512 C.ar      1 <0>        -0.2069
      6 C5          0.3721   -4.0412    0.5016 C.ar      1 <0>        -0.0603
      7 C6          1.0238   -4.5657    1.6025 C.ar      1 <0>        -0.1388
      8 C7          1.5647   -3.7223    2.5553 C.ar      1 <0>        -0.0547
      9 C8          1.4604   -2.3529    2.4064 C.ar      1 <0>        -0.1498
     10 C9          1.1444   -6.0591    1.7643 C.3       1 <0>         0.2255
     11 H1          0.4012   -6.5637    1.1470 H         1 <0>         0.1149
     12 C10         2.5333   -6.5126    1.3796 C.2       1 <0>        -0.2509
     13 C11         3.0770   -7.0849    2.4821 C.2       1 <0>         0.1426
     14 C12         2.0977   -7.0287    3.5899 C.2       1 <0>         0.5165
     15 O2          2.2865   -7.4590    4.7100 O.2       1 <0>        -0.5069
     16 N1          0.9659   -6.4299    3.1729 N.am      1 <0>        -0.5886
     17 C13        -0.2317   -6.1898    3.9818 C.3       1 <0>         0.1404
     18 C14        -1.1779   -7.3859    3.8595 C.3       1 <0>        -0.0577
     19 C15        -2.4099   -7.1389    4.6915 C.2       1 <0>        -0.1746
     20 C16        -2.6176   -7.5503    5.9523 C.2       1 <0>         0.0635
     21 N2         -3.8507   -7.1394    6.3800 N.pl3     1 <0>        -0.5945
     22 H2         -4.2240   -7.3174    7.2575 H         1 <0>         0.4172
     23 C17        -4.4827   -6.4356    5.3795 C.ar      1 <0>         0.0948
     24 C18        -3.6054   -6.3989    4.2801 C.ar      1 <0>        -0.0998
     25 C19        -3.9827   -5.7385    3.1096 C.ar      1 <0>        -0.0711
     26 C20        -5.2028   -5.1270    3.0388 C.ar      1 <0>        -0.1444
     27 C21        -6.0701   -5.1568    4.1219 C.ar      1 <0>        -0.0985
     28 C22        -5.7217   -5.8109    5.2836 C.ar      1 <0>        -0.1296
     29 O3          4.3152   -7.6217    2.5570 O.3       1 <0>        -0.4105
     30 C23         3.1480   -6.3681    0.1132 C.2       1 <0>         0.4122
     31 O4          4.2762   -6.7790   -0.0641 O.2       1 <0>        -0.4467
     32 C24         2.4019   -5.7039   -1.0151 C.3       1 <0>        -0.1979
     33 H3          1.0039    1.9031    0.0027 H         1 <0>         0.0670
     34 H4         -0.5459    1.8868   -0.8726 H         1 <0>         0.0800
     35 H5         -0.5289    1.8773    0.9072 H         1 <0>         0.0669
     36 H6         -1.0205   -0.3814    0.0098 H         1 <0>         0.0637
     37 H7          0.5123   -0.3556   -0.8948 H         1 <0>         0.0637
     38 H8         -0.2501   -2.2634   -0.5084 H         1 <0>         0.1321
     39 H9         -0.0499   -4.7020   -0.2411 H         1 <0>         0.1320
     40 H10         2.0730   -4.1345    3.4145 H         1 <0>         0.1226
     41 H11         1.8869   -1.6945    3.1487 H         1 <0>         0.1322
     42 H12         0.0548   -6.0584    5.0252 H         1 <0>         0.0895
     43 H13        -0.7353   -5.2904    3.6273 H         1 <0>         0.0917
     44 H14        -1.4645   -7.5172    2.8161 H         1 <0>         0.0756
     45 H15        -0.6744   -8.2852    4.2140 H         1 <0>         0.0752
     46 H16        -1.9156   -8.1215    6.5416 H         1 <0>         0.1707
     47 H17        -3.3126   -5.7107    2.2630 H         1 <0>         0.1199
     48 H18        -5.4943   -4.6163    2.1330 H         1 <0>         0.1219
     49 H19        -7.0307   -4.6683    4.0510 H         1 <0>         0.1250
     50 H20        -6.4030   -5.8274    6.1213 H         1 <0>         0.1195
     51 H21         2.5993   -4.6320   -0.9999 H         1 <0>         0.0966
     52 H22         2.7343   -6.1211   -1.9657 H         1 <0>         0.0873
     53 H23         1.3326   -5.8781   -0.8959 H         1 <0>         0.0823
     54 H24         4.5342   -7.9858    3.4257 H         1 <0>         0.4118
@<TRIPOS>BOND
     1    1    2 1
     2    1   33 1
     3    1   34 1
     4    1   35 1
     5    2    3 1
     6    2   36 1
     7    2   37 1
     8    3    4 1
     9    4    9 ar
    10    4    5 ar
    11    5    6 ar
    12    5   38 1
    13    6    7 ar
    14    6   39 1
    15    7    8 ar
    16    7   10 1
    17    8    9 ar
    18    8   40 1
    19    9   41 1
    20   10   11 1
    21   10   16 1
    22   10   12 1
    23   12   13 2
    24   12   30 1
    25   13   14 1
    26   13   29 1
    27   14   15 2
    28   14   16 am
    29   16   17 1
    30   17   18 1
    31   17   42 1
    32   17   43 1
    33   18   19 1
    34   18   44 1
    35   18   45 1
    36   19   24 1
    37   19   20 2
    38   20   21 1
    39   20   46 1
    40   21   22 1
    41   21   23 1
    42   23   28 ar
    43   23   24 ar
    44   24   25 ar
    45   25   26 ar
    46   25   47 1
    47   26   27 ar
    48   26   48 1
    49   27   28 ar
    50   27   49 1
    51   28   50 1
    52   29   54 1
    53   30   31 2
    54   30   32 1
    55   32   51 1
    56   32   52 1
    57   32   53 1
@<TRIPOS>MOLECULE
ZINC00813579
   53    56     0     0     0
SMALL
USER_CHARGES

@<TRIPOS>ATOM
      1 C1          2.2355    0.5371    0.3709 C.3       1 <0>        -0.1508
      2 C2          1.7781   -0.9226    0.3431 C.3       1 <0>         0.0558
      3 O1          0.3600   -0.9743    0.1753 O.3       1 <0>        -0.3209
      4 C3         -0.2114   -2.2065    0.1298 C.ar      1 <0>         0.1177
      5 C4          0.5760   -3.3424    0.2500 C.ar      1 <0>        -0.2092
      6 C5         -0.0073   -4.5938    0.2039 C.ar      1 <0>        -0.0575
      7 C6         -1.3746   -4.7149    0.0376 C.ar      1 <0>        -0.0908
      8 C7         -2.1615   -3.5843   -0.0829 C.ar      1 <0>        -0.0551
      9 C8         -1.5838   -2.3305   -0.0313 C.ar      1 <0>        -0.1560
     10 C9         -2.0082   -6.0812   -0.0129 C.3       1 <0>         0.2588
     11 H1         -1.2765   -6.8433    0.2554 H         1 <0>         0.0701
     12 C10        -2.5543   -6.3497   -1.3958 C.2       1 <0>        -0.4818
     13 C11        -3.8899   -6.5395   -1.2584 C.2       1 <0>         0.2793
     14 C12        -4.2537   -6.4068    0.1696 C.2       1 <0>         0.5052
     15 O2         -5.3772   -6.5228    0.6167 O.2       1 <0>        -0.5353
     16 N1         -3.1550   -6.1395    0.9009 N.am      1 <0>        -0.6085
     17 C13        -3.1113   -5.9416    2.3518 C.3       1 <0>         0.1463
     18 C14        -3.3161   -4.4594    2.6709 C.3       1 <0>        -0.0685
     19 C15        -3.2711   -4.2559    4.1634 C.2       1 <0>        -0.1552
     20 C16        -4.3231   -4.2199    4.9964 C.2       1 <0>         0.0499
     21 N2         -3.8951   -4.0168    6.2801 N.pl3     1 <0>        -0.5975
     22 H2         -4.4728   -3.9543    7.0568 H         1 <0>         0.4134
     23 C17        -2.5222   -3.9145    6.3051 C.ar      1 <0>         0.0945
     24 C18        -2.0706   -4.0661    4.9811 C.ar      1 <0>        -0.0984
     25 C19        -0.7042   -4.0124    4.7008 C.ar      1 <0>        -0.0622
     26 C20         0.1894   -3.8161    5.7160 C.ar      1 <0>        -0.1511
     27 C21        -0.2507   -3.6702    7.0242 C.ar      1 <0>        -0.1009
     28 C22        -1.5955   -3.7106    7.3220 C.ar      1 <0>        -0.1356
     29 O3         -4.7514   -6.8064   -2.2652 O.3       1 <0>        -0.6254
     30 C23        -1.8149   -6.3943   -2.6014 C.2       1 <0>         0.4297
     31 O4         -0.6380   -6.0972   -2.6029 O.2       1 <0>        -0.5473
     32 C24        -2.4885   -6.8108   -3.8835 C.3       1 <0>        -0.1803
     33 H3          3.3173    0.5765    0.4989 H         1 <0>         0.0744
     34 H4          1.9627    1.0213   -0.5668 H         1 <0>         0.0643
     35 H5          1.7525    1.0535    1.2004 H         1 <0>         0.0638
     36 H6          2.2612   -1.4390   -0.4865 H         1 <0>         0.0594
     37 H7          2.0509   -1.4068    1.2808 H         1 <0>         0.0586
     38 H8          1.6441   -3.2484    0.3792 H         1 <0>         0.1197
     39 H9          0.6052   -5.4784    0.2974 H         1 <0>         0.1200
     40 H10        -3.2292   -3.6815   -0.2131 H         1 <0>         0.1200
     41 H11        -2.1994   -1.4477   -0.1210 H         1 <0>         0.1220
     42 H12        -3.9012   -6.5271    2.8223 H         1 <0>         0.0757
     43 H13        -2.1429   -6.2650    2.7336 H         1 <0>         0.0739
     44 H14        -2.5261   -3.8739    2.2004 H         1 <0>         0.0834
     45 H15        -4.2845   -4.1360    2.2891 H         1 <0>         0.0716
     46 H16        -5.3547   -4.3341    4.6976 H         1 <0>         0.1702
     47 H17        -0.3544   -4.1259    3.6854 H         1 <0>         0.1223
     48 H18         1.2465   -3.7747    5.4987 H         1 <0>         0.1192
     49 H19         0.4677   -3.5164    7.8158 H         1 <0>         0.1210
     50 H20        -1.9279   -3.5971    8.3433 H         1 <0>         0.1156
     51 H21        -2.9758   -5.9467   -4.3352 H         1 <0>         0.0724
     52 H22        -1.7437   -7.2093   -4.5724 H         1 <0>         0.0520
     53 H23        -3.2332   -7.5776   -3.6702 H         1 <0>         0.0879
@<TRIPOS>BOND
     1    1    2 1
     2    1   33 1
     3    1   34 1
     4    1   35 1
     5    2    3 1
     6    2   36 1
     7    2   37 1
     8    3    4 1
     9    4    9 ar
    10    4    5 ar
    11    5    6 ar
    12    5   38 1
    13    6    7 ar
    14    6   39 1
    15    7    8 ar
    16    7   10 1
    17    8    9 ar
    18    8   40 1
    19    9   41 1
    20   10   11 1
    21   10   16 1
    22   10   12 1
    23   12   13 2
    24   12   30 1
    25   13   14 1
    26   13   29 1
    27   14   15 2
    28   14   16 am
    29   16   17 1
    30   17   18 1
    31   17   42 1
    32   17   43 1
    33   18   19 1
    34   18   44 1
    35   18   45 1
    36   19   24 1
    37   19   20 2
    38   20   21 1
    39   20   46 1
    40   21   22 1
    41   21   23 1
    42   23   28 ar
    43   23   24 ar
    44   24   25 ar
    45   25   26 ar
    46   25   47 1
    47   26   27 ar
    48   26   48 1
    49   27   28 ar
    50   27   49 1
    51   28   50 1
    52   30   31 2
    53   30   32 1
    54   32   51 1
    55   32   52 1
    56   32   53 1
@<TRIPOS>MOLECULE
ZINC00813579
   54    57     0     0     0
SMALL
USER_CHARGES

@<TRIPOS>ATOM
      1 C1         -0.8083    0.5094   -2.1187 C.3       1 <0>        -0.1534
      2 C2         -0.5671   -0.9433   -1.7035 C.3       1 <0>         0.0541
      3 O1         -0.0025   -0.9762   -0.3913 O.3       1 <0>        -0.3152
      4 C3          0.2746   -2.2000    0.1307 C.ar      1 <0>         0.1434
      5 C4          0.0138   -3.3454   -0.6074 C.ar      1 <0>        -0.2076
      6 C5          0.2968   -4.5882   -0.0747 C.ar      1 <0>        -0.0430
      7 C6          0.8391   -4.6912    1.1930 C.ar      1 <0>        -0.1316
      8 C7          1.0995   -3.5512    1.9307 C.ar      1 <0>        -0.0546
      9 C8          0.8241   -2.3058    1.4002 C.ar      1 <0>        -0.1537
     10 C9          1.1463   -6.0483    1.7717 C.3       1 <0>         0.2271
     11 H1          1.0320   -6.8161    1.0066 H         1 <0>         0.1135
     12 C10         0.2286   -6.3357    2.9370 C.2       1 <0>        -0.2367
     13 C11         1.0197   -6.5019    4.0257 C.2       1 <0>         0.1293
     14 C12         2.4346   -6.3350    3.6263 C.2       1 <0>         0.5155
     15 O2          3.3860   -6.4246    4.3763 O.2       1 <0>        -0.5100
     16 N1          2.5120   -6.0703    2.3083 N.am      1 <0>        -0.5879
     17 C13         3.7415   -5.8442    1.5443 C.3       1 <0>         0.1427
     18 C14         4.0828   -4.3528    1.5570 C.3       1 <0>        -0.0637
     19 C15         5.3475   -4.1203    0.7711 C.2       1 <0>        -0.1713
     20 C16         6.5935   -4.0513    1.2656 C.2       1 <0>         0.0607
     21 N2          7.4860   -3.8293    0.2524 N.pl3     1 <0>        -0.5948
     22 H2          8.4456   -3.7422    0.3642 H         1 <0>         0.4167
     23 C17         6.8190   -3.7479   -0.9494 C.ar      1 <0>         0.0951
     24 C18         5.4508   -3.9329   -0.6781 C.ar      1 <0>        -0.0988
     25 C19         4.5240   -3.9062   -1.7215 C.ar      1 <0>        -0.0691
     26 C20         4.9515   -3.7036   -3.0036 C.ar      1 <0>        -0.1453
     27 C21         6.3003   -3.5247   -3.2771 C.ar      1 <0>        -0.0982
     28 C22         7.2312   -3.5382   -2.2611 C.ar      1 <0>        -0.1306
     29 O3          0.5852   -6.7754    5.2760 O.3       1 <0>        -0.4253
     30 C23        -1.1836   -6.4160    2.8995 C.2       1 <0>         0.4133
     31 O4         -1.7805   -6.1374    1.8800 O.2       1 <0>        -0.4506
     32 C24        -1.9466   -6.8475    4.1253 C.3       1 <0>        -0.1934
     33 H3          0.1384    1.0498   -2.1168 H         1 <0>         0.0666
     34 H4         -1.2390    0.5345   -3.1197 H         1 <0>         0.0794
     35 H5         -1.4960    0.9789   -1.4153 H         1 <0>         0.0665
     36 H6         -1.5138   -1.4836   -1.7054 H         1 <0>         0.0632
     37 H7          0.1206   -1.4128   -2.4069 H         1 <0>         0.0632
     38 H8         -0.4105   -3.2655   -1.5973 H         1 <0>         0.1299
     39 H9          0.0939   -5.4802   -0.6489 H         1 <0>         0.1275
     40 H10         1.5228   -3.6343    2.9208 H         1 <0>         0.1199
     41 H11         1.0318   -1.4154    1.9751 H         1 <0>         0.1307
     42 H12         4.5583   -6.4077    1.9953 H         1 <0>         0.0895
     43 H13         3.5962   -6.1750    0.5159 H         1 <0>         0.0890
     44 H14         3.2660   -3.7893    1.1060 H         1 <0>         0.0846
     45 H15         4.2281   -4.0221    2.5854 H         1 <0>         0.0726
     46 H16         6.8532   -4.1553    2.3088 H         1 <0>         0.1700
     47 H17         3.4728   -4.0454   -1.5163 H         1 <0>         0.1191
     48 H18         4.2340   -3.6830   -3.8106 H         1 <0>         0.1211
     49 H19         6.6229   -3.3664   -4.2955 H         1 <0>         0.1246
     50 H20         8.2787   -3.3992   -2.4842 H         1 <0>         0.1191
     51 H21        -2.1159   -5.9852    4.7702 H         1 <0>         0.0955
     52 H22        -2.9053   -7.2712    3.8262 H         1 <0>         0.0851
     53 H23        -1.3706   -7.5982    4.6663 H         1 <0>         0.0913
     54 H24         1.2936   -6.8606    5.9288 H         1 <0>         0.4151
@<TRIPOS>BOND
     1    1    2 1
     2    1   33 1
     3    1   34 1
     4    1   35 1
     5    2    3 1
     6    2   36 1
     7    2   37 1
     8    3    4 1
     9    4    9 ar
    10    4    5 ar
    11    5    6 ar
    12    5   38 1
    13    6    7 ar
    14    6   39 1
    15    7    8 ar
    16    7   10 1
    17    8    9 ar
    18    8   40 1
    19    9   41 1
    20   10   11 1
    21   10   16 1
    22   10   12 1
    23   12   13 2
    24   12   30 1
    25   13   14 1
    26   13   29 1
    27   14   15 2
    28   14   16 am
    29   16   17 1
    30   17   18 1
    31   17   42 1
    32   17   43 1
    33   18   19 1
    34   18   44 1
    35   18   45 1
    36   19   24 1
    37   19   20 2
    38   20   21 1
    39   20   46 1
    40   21   22 1
    41   21   23 1
    42   23   28 ar
    43   23   24 ar
    44   24   25 ar
    45   25   26 ar
    46   25   47 1
    47   26   27 ar
    48   26   48 1
    49   27   28 ar
    50   27   49 1
    51   28   50 1
    52   29   54 1
    53   30   31 2
    54   30   32 1
    55   32   51 1
    56   32   52 1
    57   32   53 1
@<TRIPOS>MOLECULE
ZINC06855359
   47    50     0     0     0
SMALL
USER_CHARGES
(2R)-3-acetyl-4-hydroxy-2-(4-hydroxyphenyl)-1-[2-(1H-indol-3-yl)ethyl]-2H-pyrrol-5-one
@<TRIPOS>ATOM
      1 C1         -0.2557   -1.7641    2.6384 C.3       1 <0>        -0.1935
      2 C2          1.0624   -2.4916    2.5708 C.2       1 <0>         0.4171
      3 O1          1.5876   -2.8918    3.5891 O.2       1 <0>        -0.5164
      4 C3          1.6876   -2.7081    1.3199 C.2       1 <0>        -0.4884
      5 C4          2.8084   -3.4363    1.0910 C.2       1 <0>         0.2829
      6 C5          3.1194   -3.4048   -0.3552 C.2       1 <0>         0.5061
      7 O2          4.0633   -3.9631   -0.8777 O.2       1 <0>        -0.5359
      8 N1          2.2018   -2.6670   -1.0060 N.am      1 <0>        -0.6075
      9 C6          1.2354   -2.1726   -0.0185 C.3       1 <0>         0.2550
     10 H1          0.2227   -2.5126   -0.2810 H         1 <0>         0.0685
     11 C7          1.2377   -0.6657   -0.0011 C.ar      1 <0>        -0.1091
     12 C8          0.0444    0.0273   -0.0882 C.ar      1 <0>        -0.0754
     13 C9          0.0438    1.4087   -0.0720 C.ar      1 <0>        -0.1641
     14 C10         1.2418    2.1005    0.0319 C.ar      1 <0>         0.1444
     15 C11         2.4377    1.4028    0.1196 C.ar      1 <0>        -0.2147
     16 C12         2.4330    0.0215    0.1025 C.ar      1 <0>        -0.0473
     17 O3          1.2439    3.4594    0.0485 O.3       1 <0>        -0.5159
     18 C13         2.1727   -2.4033   -2.4467 C.3       1 <0>         0.1442
     19 C14         2.9696   -1.1326   -2.7488 C.3       1 <0>        -0.0678
     20 C15         2.9397   -0.8612   -4.2308 C.2       1 <0>        -0.1612
     21 C16         3.8669   -1.2295   -5.1289 C.2       1 <0>         0.0441
     22 N2          3.4997   -0.8087   -6.3780 N.pl3     1 <0>        -0.6092
     23 H2          4.1448   -1.0238   -7.2426 H         1 <0>         0.4384
     24 C17         2.2965   -0.1424   -6.3127 C.ar      1 <0>         0.1063
     25 C18         1.8900   -0.1511   -4.9656 C.ar      1 <0>        -0.1012
     26 C19         0.6877    0.4548   -4.5971 C.ar      1 <0>        -0.0624
     27 C20        -0.0910    1.0514   -5.5486 C.ar      1 <0>        -0.1526
     28 C21         0.3039    1.0598   -6.8791 C.ar      1 <0>        -0.1019
     29 C22         1.4904    0.4741   -7.2637 C.ar      1 <0>        -0.1369
     30 O4          3.5270   -4.0863    2.0334 O.3       1 <0>        -0.6053
     31 H3         -0.5709   -1.4813    1.6232 H         1 <0>         0.0673
     32 H4         -0.1437   -0.8588    3.2531 H         1 <0>         0.0677
     33 H5         -1.0145   -2.4212    3.0882 H         1 <0>         0.0680
     34 H6         -0.8879   -0.5117   -0.1694 H         1 <0>         0.1263
     35 H7         -0.8881    1.9496   -0.1446 H         1 <0>         0.1217
     36 H8          3.3717    1.9391    0.2006 H         1 <0>         0.1192
     37 H9          3.3637   -0.5221    0.1705 H         1 <0>         0.1174
     38 H10         2.1944    4.0070    0.1309 H         1 <0>         0.4258
     39 H11         2.6195   -3.2528   -2.9840 H         1 <0>         0.0758
     40 H12         1.1311   -2.2694   -2.7740 H         1 <0>         0.0743
     41 H13         2.5228   -0.2831   -2.2114 H         1 <0>         0.0817
     42 H14         4.0112   -1.2665   -2.4215 H         1 <0>         0.0700
     43 H15         4.7694   -1.7766   -4.8994 H         1 <0>         0.1681
     44 H16         0.3742    0.4525   -3.5636 H         1 <0>         0.1218
     45 H17        -1.0213    1.5198   -5.2629 H         1 <0>         0.1193
     46 H18        -0.3222    1.5353   -7.6195 H         1 <0>         0.1204
     47 H19         1.7881    0.4843   -8.3018 H         1 <0>         0.1148
@<TRIPOS>BOND
     1    1    2 1
     2    1   31 1
     3    1   32 1
     4    1   33 1
     5    2    3 2
     6    2    4 1
     7    4    9 1
     8    4    5 2
     9    5    6 1
    10    5   30 1
    11    6    7 2
    12    6    8 am
    13    8    9 1
    14    8   18 1
    15    9   10 1
    16    9   11 1
    17   11   16 ar
    18   11   12 ar
    19   12   13 ar
    20   12   34 1
    21   13   14 ar
    22   13   35 1
    23   14   15 ar
    24   14   17 1
    25   15   16 ar
    26   15   36 1
    27   16   37 1
    28   17   38 1
    29   18   19 1
    30   18   39 1
    31   18   40 1
    32   19   20 1
    33   19   41 1
    34   19   42 1
    35   20   25 1
    36   20   21 2
    37   21   22 1
    38   21   43 1
    39   22   23 1
    40   22   24 1
    41   24   29 ar
    42   24   25 ar
    43   25   26 ar
    44   26   27 ar
    45   26   44 1
    46   27   28 ar
    47   27   45 1
    48   28   29 ar
    49   28   46 1
    50   29   47 1
@<TRIPOS>MOLECULE
ZINC17967716
   47    50     0     0     0
SMALL
USER_CHARGES

@<TRIPOS>ATOM
      1 C1         -0.0127    1.0858    0.0080 C.3       1 <0>        -0.1899
      2 C2         -0.7416    1.5850   -1.2129 C.2       1 <0>         0.4151
      3 C3         -2.1391    1.8017   -1.1633 C.2       1 <0>        -0.4919
      4 C4         -3.0425    1.5888    0.0288 C.3       1 <0>         0.2509
      5 H1         -2.7340    2.2328    0.8523 H         1 <0>         0.0729
      6 N1         -4.3953    1.9473   -0.4124 N.am      1 <0>        -0.6083
      7 C5         -4.3245    2.3276   -1.7009 C.2       1 <0>         0.5068
      8 O1         -5.2688    2.6890   -2.3742 O.2       1 <0>        -0.5335
      9 C6         -2.9252    2.2460   -2.1749 C.2       1 <0>         0.2846
     10 O2         -2.4991    2.5611   -3.4184 O.3       1 <0>        -0.6027
     11 C7         -5.6095    1.8989    0.4059 C.3       1 <0>         0.1433
     12 C8         -5.8065    3.2448    1.1063 C.3       1 <0>        -0.0620
     13 C9         -7.0555    3.1950    1.9481 C.2       1 <0>        -0.1591
     14 C10        -8.2812    3.6027    1.5830 C.2       1 <0>         0.0530
     15 N2         -9.1644    3.4024    2.6088 N.pl3     1 <0>        -0.5972
     16 H2        -10.1093    3.6195    2.5810 H         1 <0>         0.4140
     17 C11        -8.5118    2.8469    3.6866 C.ar      1 <0>         0.0942
     18 C12        -7.1635    2.6867    3.3177 C.ar      1 <0>        -0.0995
     19 C13        -6.2549    2.1339    4.2220 C.ar      1 <0>        -0.0649
     20 C14        -6.6814    1.7473    5.4614 C.ar      1 <0>        -0.1496
     21 C15        -8.0112    1.8994    5.8286 C.ar      1 <0>        -0.1009
     22 C16        -8.9228    2.4512    4.9550 C.ar      1 <0>        -0.1344
     23 C17        -3.0031    0.1444    0.4571 C.ar      1 <0>        -0.0720
     24 C18        -3.7224   -0.8039   -0.2465 C.ar      1 <0>        -0.0816
     25 C19        -3.6883   -2.1285    0.1443 C.ar      1 <0>        -0.1441
     26 C20        -2.9312   -2.5069    1.2436 C.ar      1 <0>         0.0882
     27 C21        -2.2101   -1.5535    1.9476 C.ar      1 <0>        -0.1452
     28 C22        -2.2433   -0.2310    1.5496 C.ar      1 <0>        -0.0991
     29 O3         -2.8965   -3.8092    1.6303 O.3       1 <0>        -0.5035
     30 O4         -0.1299    1.8013   -2.2387 O.2       1 <0>        -0.5146
     31 H3          0.0021   -0.0041    0.0020 H         1 <0>         0.0724
     32 H4          1.0099    1.4631    0.0003 H         1 <0>         0.0623
     33 H5         -0.5229    1.4373    0.9048 H         1 <0>         0.0665
     34 H6         -6.4692    1.6916   -0.2314 H         1 <0>         0.0762
     35 H7         -5.5129    1.1112    1.1531 H         1 <0>         0.0761
     36 H8         -4.9468    3.4521    1.7436 H         1 <0>         0.0737
     37 H9         -5.9031    4.0325    0.3591 H         1 <0>         0.0745
     38 H10        -8.5330    4.0263    0.6220 H         1 <0>         0.1709
     39 H11        -5.2188    2.0119    3.9429 H         1 <0>         0.1225
     40 H12        -5.9782    1.3197    6.1607 H         1 <0>         0.1205
     41 H13        -8.3333    1.5885    6.8115 H         1 <0>         0.1217
     42 H14        -9.9557    2.5643    5.2497 H         1 <0>         0.1161
     43 H15        -4.3116   -0.5088   -1.1022 H         1 <0>         0.1203
     44 H16        -4.2509   -2.8687   -0.4051 H         1 <0>         0.1218
     45 H17        -1.6200   -1.8456    2.8037 H         1 <0>         0.1233
     46 H18        -1.6786    0.5109    2.0946 H         1 <0>         0.1275
     47 H19        -2.1907   -4.3239    1.2156 H         1 <0>         0.3848
@<TRIPOS>BOND
     1    1   31 1
     2    1   32 1
     3    1   33 1
     4    1    2 1
     5    2    3 1
     6    2   30 2
     7    3    9 2
     8    3    4 1
     9    4    6 1
    10    4   23 1
    11    4    5 1
    12    6   11 1
    13    6    7 am
    14    7    8 2
    15    7    9 1
    16    9   10 1
    17   11   12 1
    18   11   34 1
    19   11   35 1
    20   12   13 1
    21   12   36 1
    22   12   37 1
    23   13   18 1
    24   13   14 2
    25   14   15 1
    26   14   38 1
    27   15   16 1
    28   15   17 1
    29   17   22 ar
    30   17   18 ar
    31   18   19 ar
    32   19   20 ar
    33   19   39 1
    34   20   21 ar
    35   20   40 1
    36   21   22 ar
    37   21   41 1
    38   22   42 1
    39   23   28 ar
    40   23   24 ar
    41   24   25 ar
    42   24   43 1
    43   25   26 ar
    44   25   44 1
    45   26   27 ar
    46   26   29 1
    47   27   28 ar
    48   27   45 1
    49   28   46 1
    50   29   47 1
@<TRIPOS>MOLECULE
ZINC00626396
   52    55     0     0     0
SMALL
USER_CHARGES

@<TRIPOS>ATOM
      1 C1         -0.0187    1.5258    0.0104 C.3       1 <0>        -0.1467
      2 C2          0.0021   -0.0041    0.0020 C.3       1 <0>        -0.0802
      3 C3          0.7309   -0.5033    1.2229 C.ar      1 <0>        -0.0959
      4 C4          2.0970   -0.7095    1.1762 C.ar      1 <0>        -0.1197
      5 C5          2.7656   -1.1675    2.2961 C.ar      1 <0>        -0.1119
      6 C6          2.0682   -1.4187    3.4629 C.ar      1 <0>        -0.0681
      7 C7          0.7022   -1.2116    3.5099 C.ar      1 <0>        -0.0945
      8 C8          0.0343   -0.7496    2.3912 C.ar      1 <0>        -0.1184
      9 C9          2.7969   -1.9189    4.6834 C.3       1 <0>         0.2506
     10 H1          3.7523   -2.3575    4.3954 H         1 <0>         0.0708
     11 C10         3.0186   -0.7848    5.6569 C.2       1 <0>        -0.4905
     12 C11         2.3762   -1.1219    6.8024 C.2       1 <0>         0.2839
     13 O1          2.3302   -0.3711    7.9254 O.3       1 <0>        -0.6041
     14 C12         1.7330   -2.4428    6.6264 C.2       1 <0>         0.5070
     15 O2          1.0810   -3.0193    7.4738 O.2       1 <0>        -0.5349
     16 N1          1.9773   -2.9108    5.3890 N.am      1 <0>        -0.6077
     17 C13         1.5074   -4.1860    4.8420 C.3       1 <0>         0.1444
     18 C14         2.5403   -5.2769    5.1319 C.3       1 <0>        -0.0622
     19 C15         2.0569   -6.5887    4.5693 C.2       1 <0>        -0.1584
     20 C16         1.3821   -7.5415    5.2317 C.2       1 <0>         0.0527
     21 N2          1.1128   -8.5900    4.3948 N.pl3     1 <0>        -0.5972
     22 H2          0.6352   -9.3957    4.6469 H         1 <0>         0.4140
     23 C17         1.6206   -8.3309    3.1414 C.ar      1 <0>         0.0943
     24 C18         2.2287   -7.0631    3.1940 C.ar      1 <0>        -0.0994
     25 C19         2.8304   -6.5313    2.0522 C.ar      1 <0>        -0.0645
     26 C20         2.8224   -7.2445    0.8864 C.ar      1 <0>        -0.1499
     27 C21         2.2203   -8.4936    0.8283 C.ar      1 <0>        -0.1011
     28 C22         1.6287   -9.0414    1.9458 C.ar      1 <0>        -0.1346
     29 C23         3.7546    0.4001    5.4190 C.2       1 <0>         0.4153
     30 O3          3.8561    1.2371    6.2922 O.2       1 <0>        -0.5153
     31 C24         4.4124    0.6229    4.0816 C.3       1 <0>        -0.1892
     32 H3          1.0039    1.9031    0.0027 H         1 <0>         0.0556
     33 H4         -0.5459    1.8868   -0.8726 H         1 <0>         0.0525
     34 H5         -0.5289    1.8773    0.9072 H         1 <0>         0.0556
     35 H6         -1.0205   -0.3814    0.0098 H         1 <0>         0.0660
     36 H7          0.5123   -0.3556   -0.8948 H         1 <0>         0.0666
     37 H8          2.6419   -0.5132    0.2646 H         1 <0>         0.1152
     38 H9          3.8328   -1.3293    2.2593 H         1 <0>         0.1214
     39 H10         0.1573   -1.4082    4.4213 H         1 <0>         0.1145
     40 H11        -1.0323   -0.5842    2.4291 H         1 <0>         0.1135
     41 H12         0.5577   -4.4524    5.3058 H         1 <0>         0.0754
     42 H13         1.3716   -4.0913    3.7647 H         1 <0>         0.0759
     43 H14         3.4900   -5.0105    4.6681 H         1 <0>         0.0735
     44 H15         2.6760   -5.3716    6.2093 H         1 <0>         0.0742
     45 H16         1.0947   -7.4885    6.2714 H         1 <0>         0.1709
     46 H17         3.3002   -5.5596    2.0898 H         1 <0>         0.1225
     47 H18         3.2881   -6.8326    0.0033 H         1 <0>         0.1203
     48 H19         2.2215   -9.0449   -0.1004 H         1 <0>         0.1215
     49 H20         1.1617  -10.0136    1.8901 H         1 <0>         0.1160
     50 H21         3.7187    1.1373    3.4166 H         1 <0>         0.0730
     51 H22         5.3074    1.2309    4.2137 H         1 <0>         0.0614
     52 H23         4.6870   -0.3383    3.6471 H         1 <0>         0.0662
@<TRIPOS>BOND
     1    1    2 1
     2    1   32 1
     3    1   33 1
     4    1   34 1
     5    2    3 1
     6    2   35 1
     7    2   36 1
     8    3    8 ar
     9    3    4 ar
    10    4    5 ar
    11    4   37 1
    12    5    6 ar
    13    5   38 1
    14    6    7 ar
    15    6    9 1
    16    7    8 ar
    17    7   39 1
    18    8   40 1
    19    9   11 1
    20    9   16 1
    21    9   10 1
    22   11   12 2
    23   11   29 1
    24   12   14 1
    25   12   13 1
    26   14   16 am
    27   14   15 2
    28   16   17 1
    29   17   18 1
    30   17   41 1
    31   17   42 1
    32   18   19 1
    33   18   43 1
    34   18   44 1
    35   19   24 1
    36   19   20 2
    37   20   21 1
    38   20   45 1
    39   21   22 1
    40   21   23 1
    41   23   28 ar
    42   23   24 ar
    43   24   25 ar
    44   25   26 ar
    45   25   46 1
    46   26   27 ar
    47   26   47 1
    48   27   28 ar
    49   27   48 1
    50   28   49 1
    51   29   30 2
    52   29   31 1
    53   31   50 1
    54   31   51 1
    55   31   52 1
@<TRIPOS>MOLECULE
ZINC00626396
   53    56     0     0     0
SMALL
USER_CHARGES
4-acetyl-5-(4-ethylphenyl)-3-hydroxy-1-[2-(1H-indol-3-yl)ethyl]-5H-pyrrol-2-one
@<TRIPOS>ATOM
      1 C1         -0.3622   -3.9109   -5.9246 C.3       1 <0>        -0.1477
      2 C2          0.4079   -5.2274   -5.8037 C.3       1 <0>        -0.0894
      3 C3          1.3782   -5.1381   -4.6540 C.ar      1 <0>        -0.0711
      4 C4          0.9837   -5.5200   -3.3854 C.ar      1 <0>        -0.1058
      5 C5          1.8736   -5.4376   -2.3308 C.ar      1 <0>        -0.1312
      6 C6          3.1579   -4.9733   -2.5448 C.ar      1 <0>        -0.1197
      7 C7          3.5507   -4.5864   -3.8125 C.ar      1 <0>        -0.0844
      8 C8          2.6625   -4.6737   -4.8681 C.ar      1 <0>        -0.1084
      9 C9          4.1279   -4.8830   -1.3950 C.3       1 <0>         0.2336
     10 H1          3.5894   -4.9021   -0.4475 H         1 <0>         0.0953
     11 C10         5.1129   -6.0271   -1.4556 C.2       1 <0>        -0.4602
     12 C11         6.3452   -5.4757   -1.5822 C.2       1 <0>         0.3357
     13 C12         6.2153   -4.0021   -1.6140 C.2       1 <0>         0.5045
     14 O1          7.1407   -3.2228   -1.7247 O.2       1 <0>        -0.4894
     15 N1          4.9212   -3.6529   -1.5001 N.am      1 <0>        -0.5927
     16 C13         4.3956   -2.2854   -1.4888 C.3       1 <0>         0.1411
     17 C14         4.3426   -1.7713   -0.0487 C.3       1 <0>        -0.0579
     18 C15         3.8021   -0.3646   -0.0370 C.2       1 <0>        -0.1736
     19 C16         4.5229    0.7678   -0.0379 C.2       1 <0>         0.0631
     20 N2          3.6883    1.8521   -0.0252 N.pl3     1 <0>        -0.5946
     21 H2          3.9776    2.7779   -0.0232 H         1 <0>         0.4171
     22 C17         2.3767    1.4331   -0.0157 C.ar      1 <0>         0.0947
     23 C18         2.3904    0.0262   -0.0227 C.ar      1 <0>        -0.0997
     24 C19         1.1875   -0.6821   -0.0157 C.ar      1 <0>        -0.0711
     25 C20         0.0011   -0.0040   -0.0019 C.ar      1 <0>        -0.1451
     26 C21        -0.0178    1.3838    0.0055 C.ar      1 <0>        -0.0992
     27 C22         1.1576    2.1026   -0.0012 C.ar      1 <0>        -0.1294
     28 O2          7.5060   -6.1624   -1.6706 O.2       1 <0>        -0.5127
     29 C23         4.8082   -7.4076   -1.3924 C.2       1 <0>         0.3467
     30 O3          3.6555   -7.7699   -1.2780 O.3       1 <0>        -0.3613
     31 C24         5.9149   -8.4277   -1.4671 C.3       1 <0>        -0.1344
     32 H3         -0.9097   -3.7241   -5.0007 H         1 <0>         0.0567
     33 H4          0.3384   -3.0952   -6.1030 H         1 <0>         0.0561
     34 H5         -1.0640   -3.9755   -6.7561 H         1 <0>         0.0601
     35 H6          0.9553   -5.4143   -6.7275 H         1 <0>         0.0736
     36 H7         -0.2928   -6.0431   -5.6252 H         1 <0>         0.0742
     37 H8         -0.0198   -5.8825   -3.2181 H         1 <0>         0.1277
     38 H9          1.5654   -5.7357   -1.3396 H         1 <0>         0.1268
     39 H10         4.5528   -4.2195   -3.9788 H         1 <0>         0.1206
     40 H11         2.9705   -4.3750   -5.8591 H         1 <0>         0.1251
     41 H12         3.3921   -2.2783   -1.9143 H         1 <0>         0.0860
     42 H13         5.0459   -1.6414   -2.0808 H         1 <0>         0.0875
     43 H14         5.3462   -1.7785    0.3767 H         1 <0>         0.0757
     44 H15         3.6924   -2.4154    0.5433 H         1 <0>         0.0734
     45 H16         5.6018    0.8159   -0.0476 H         1 <0>         0.1713
     46 H17         1.1944   -1.7620   -0.0213 H         1 <0>         0.1187
     47 H18        -0.9293   -0.5525    0.0036 H         1 <0>         0.1214
     48 H19        -0.9634    1.9054    0.0123 H         1 <0>         0.1248
     49 H20         1.1325    3.1823    0.0044 H         1 <0>         0.1194
     50 H21         3.0565   -6.9699   -1.2440 H         1 <0>         0.4219
     51 H22         6.6082   -8.2729   -0.6403 H         1 <0>         0.1182
     52 H23         5.4906   -9.4296   -1.4026 H         1 <0>         0.0905
     53 H24         6.4466   -8.3184   -2.4123 H         1 <0>         0.1173
@<TRIPOS>BOND
     1    1    2 1
     2    1   32 1
     3    1   33 1
     4    1   34 1
     5    2    3 1
     6    2   35 1
     7    2   36 1
     8    3    8 ar
     9    3    4 ar
    10    4    5 ar
    11    4   37 1
    12    5    6 ar
    13    5   38 1
    14    6    7 ar
    15    6    9 1
    16    7    8 ar
    17    7   39 1
    18    8   40 1
    19    9   10 1
    20    9   15 1
    21    9   11 1
    22   11   12 1
    23   11   29 2
    24   12   13 1
    25   12   28 2
    26   13   14 2
    27   13   15 am
    28   15   16 1
    29   16   17 1
    30   16   41 1
    31   16   42 1
    32   17   18 1
    33   17   43 1
    34   17   44 1
    35   18   23 1
    36   18   19 2
    37   19   20 1
    38   19   45 1
    39   20   21 1
    40   20   22 1
    41   22   27 ar
    42   22   23 ar
    43   23   24 ar
    44   24   25 ar
    45   24   46 1
    46   25   26 ar
    47   25   47 1
    48   26   27 ar
    49   26   48 1
    50   27   49 1
    51   29   31 1
    52   29   30 1
    53   30   50 1
    54   31   51 1
    55   31   52 1
    56   31   53 1
@<TRIPOS>MOLECULE
ZINC00626396
   53    56     0     0     0
SMALL
USER_CHARGES
4-acetyl-5-(4-ethylphenyl)-3-hydroxy-1-[2-(1H-indol-3-yl)ethyl]-5H-pyrrol-2-one
@<TRIPOS>ATOM
      1 C1         -0.3622   -3.9109   -5.9246 C.3       1 <0>        -0.1474
      2 C2          0.4079   -5.2274   -5.8037 C.3       1 <0>        -0.0904
      3 C3          1.3782   -5.1381   -4.6540 C.ar      1 <0>        -0.0656
      4 C4          0.9837   -5.5200   -3.3854 C.ar      1 <0>        -0.1158
      5 C5          1.8736   -5.4376   -2.3308 C.ar      1 <0>        -0.0987
      6 C6          3.1579   -4.9733   -2.5448 C.ar      1 <0>        -0.1142
      7 C7          3.5507   -4.5864   -3.8125 C.ar      1 <0>        -0.0875
      8 C8          2.6625   -4.6737   -4.8681 C.ar      1 <0>        -0.1134
      9 C9          4.1279   -4.8830   -1.3950 C.3       1 <0>         0.2078
     10 H1          3.5894   -4.9021   -0.4475 H         1 <0>         0.1190
     11 C10         5.1129   -6.0271   -1.4556 C.3       1 <0>        -0.2142
     12 C11         6.3451   -5.4757   -1.5829 C.2       1 <0>         0.3062
     13 C12         6.2153   -4.0021   -1.6144 C.2       1 <0>         0.5024
     14 O1          7.1406   -3.2228   -1.7255 O.2       1 <0>        -0.4639
     15 N1          4.9212   -3.6529   -1.4997 N.am      1 <0>        -0.5906
     16 C13         4.3957   -2.2854   -1.4879 C.3       1 <0>         0.1402
     17 C14         4.3436   -1.7715   -0.0477 C.3       1 <0>        -0.0588
     18 C15         3.8031   -0.3648   -0.0355 C.2       1 <0>        -0.1763
     19 C16         4.5239    0.7676   -0.0366 C.2       1 <0>         0.0652
     20 N2          3.6894    1.8519   -0.0233 N.pl3     1 <0>        -0.5942
     21 H2          3.9787    2.7777   -0.0213 H         1 <0>         0.4175
     22 C17         2.3778    1.4330   -0.0131 C.ar      1 <0>         0.0946
     23 C18         2.3914    0.0261   -0.0203 C.ar      1 <0>        -0.0994
     24 C19         1.1885   -0.6822   -0.0126 C.ar      1 <0>        -0.0716
     25 C20         0.0021   -0.0041    0.0020 C.ar      1 <0>        -0.1438
     26 C21        -0.0167    1.3837    0.0096 C.ar      1 <0>        -0.0987
     27 C22         1.1587    2.1025    0.0023 C.ar      1 <0>        -0.1291
     28 O2          7.5059   -6.1624   -1.6721 O.2       1 <0>        -0.4234
     29 C23         4.8082   -7.4076   -1.3924 C.2       1 <0>         0.3951
     30 O3          5.6996   -8.2291   -1.4527 O.2       1 <0>        -0.4302
     31 C24         3.3770   -7.8576   -1.2504 C.3       1 <0>        -0.2044
     32 H3         -0.9097   -3.7241   -5.0007 H         1 <0>         0.0568
     33 H4          0.3384   -3.0952   -6.1030 H         1 <0>         0.0559
     34 H5         -1.0640   -3.9755   -6.7561 H         1 <0>         0.0595
     35 H6          0.9553   -5.4143   -6.7275 H         1 <0>         0.0735
     36 H7         -0.2928   -6.0431   -5.6252 H         1 <0>         0.0744
     37 H8         -0.0198   -5.8825   -3.2181 H         1 <0>         0.1272
     38 H9          1.5654   -5.7357   -1.3396 H         1 <0>         0.1297
     39 H10         4.5528   -4.2195   -3.9788 H         1 <0>         0.1188
     40 H11         2.9705   -4.3750   -5.8591 H         1 <0>         0.1246
     41 H12         3.3919   -2.2782   -1.9128 H         1 <0>         0.0942
     42 H13         5.0456   -1.6413   -2.0802 H         1 <0>         0.0928
     43 H14         5.3474   -1.7787    0.3771 H         1 <0>         0.0762
     44 H15         3.6937   -2.4156    0.5446 H         1 <0>         0.0756
     45 H16         5.6028    0.8157   -0.0470 H         1 <0>         0.1711
     46 H17         1.1954   -1.7621   -0.0184 H         1 <0>         0.1197
     47 H18        -0.9283   -0.5525    0.0080 H         1 <0>         0.1221
     48 H19        -0.9623    1.9054    0.0170 H         1 <0>         0.1250
     49 H20         1.1336    3.1822    0.0080 H         1 <0>         0.1195
     50 H21         5.4161   -6.2553   -0.5304 H         1 <0>         0.1634
     51 H22         2.7971   -7.4986   -2.1007 H         1 <0>         0.1103
     52 H23         3.3399   -8.9465   -1.2192 H         1 <0>         0.0967
     53 H24         2.9587   -7.4532   -0.3287 H         1 <0>         0.0967
@<TRIPOS>BOND
     1    1    2 1
     2    1   32 1
     3    1   33 1
     4    1   34 1
     5    2    3 1
     6    2   35 1
     7    2   36 1
     8    3    8 ar
     9    3    4 ar
    10    4    5 ar
    11    4   37 1
    12    5    6 ar
    13    5   38 1
    14    6    7 ar
    15    6    9 1
    16    7    8 ar
    17    7   39 1
    18    8   40 1
    19    9   10 1
    20    9   15 1
    21    9   11 1
    22   11   50 1
    23   11   12 1
    24   11   29 1
    25   12   13 1
    26   12   28 2
    27   13   14 2
    28   13   15 am
    29   15   16 1
    30   16   17 1
    31   16   41 1
    32   16   42 1
    33   17   18 1
    34   17   43 1
    35   17   44 1
    36   18   23 1
    37   18   19 2
    38   19   20 1
    39   19   45 1
    40   20   21 1
    41   20   22 1
    42   22   27 ar
    43   22   23 ar
    44   23   24 ar
    45   24   25 ar
    46   24   46 1
    47   25   26 ar
    48   25   47 1
    49   26   27 ar
    50   26   48 1
    51   27   49 1
    52   29   31 1
    53   29   30 2
    54   31   51 1
    55   31   52 1
    56   31   53 1
@<TRIPOS>MOLECULE
ZINC00626401
   52    55     0     0     0
SMALL
USER_CHARGES

@<TRIPOS>ATOM
      1 C1          1.6970    1.6571   -0.5808 C.3       1 <0>        -0.1436
      2 C2          1.7070    0.1276   -0.6169 C.3       1 <0>        -0.0804
      3 C3          1.9879   -0.4057    0.7643 C.ar      1 <0>        -0.0934
      4 C4          3.2911   -0.6317    1.1661 C.ar      1 <0>        -0.1214
      5 C5          3.5489   -1.1209    2.4330 C.ar      1 <0>        -0.0925
      6 C6          2.5034   -1.3835    3.2984 C.ar      1 <0>        -0.0597
      7 C7          1.2002   -1.1566    2.8970 C.ar      1 <0>        -0.0912
      8 C8          0.9427   -0.6634    1.6316 C.ar      1 <0>        -0.1241
      9 C9          2.7843   -1.9177    4.6793 C.3       1 <0>         0.2547
     10 H1          3.8508   -1.8546    4.8952 H         1 <0>         0.0705
     11 C10         2.3166   -3.3503    4.7869 C.2       1 <0>        -0.4816
     12 C11         1.3748   -3.3817    5.7620 C.2       1 <0>         0.2793
     13 O1          0.7049   -4.4826    6.1696 O.3       1 <0>        -0.6255
     14 C12         1.1982   -2.0182    6.3088 C.2       1 <0>         0.5053
     15 O2          0.4249   -1.7176    7.1962 O.2       1 <0>        -0.5359
     16 N1          2.0206   -1.1607    5.6779 N.am      1 <0>        -0.6074
     17 C13         2.1336    0.2760    5.9411 C.3       1 <0>         0.1458
     18 C14         1.1480    1.0365    5.0516 C.3       1 <0>        -0.0689
     19 C15         1.2643    2.5145    5.3224 C.2       1 <0>        -0.1552
     20 C16         0.5109    3.2326    6.1702 C.2       1 <0>         0.0493
     21 N2          0.9066    4.5423    6.1512 N.pl3     1 <0>        -0.5976
     22 H2          0.5105    5.2518    6.6809 H         1 <0>         0.4133
     23 C17         1.9509    4.7031    5.2682 C.ar      1 <0>         0.0944
     24 C18         2.2249    3.4387    4.7150 C.ar      1 <0>        -0.0983
     25 C19         3.2516    3.2951    3.7803 C.ar      1 <0>        -0.0616
     26 C20         3.9888    4.3845    3.4095 C.ar      1 <0>        -0.1505
     27 C21         3.7252    5.6330    3.9553 C.ar      1 <0>        -0.1007
     28 C22         2.7104    5.7990    4.8726 C.ar      1 <0>        -0.1360
     29 C23         2.7732   -4.4474    4.0186 C.2       1 <0>         0.4294
     30 O3          3.5434   -4.2652    3.0985 O.2       1 <0>        -0.5463
     31 C24         2.3031   -5.8420    4.3428 C.3       1 <0>        -0.1802
     32 H3          2.6679    2.0189   -0.2422 H         1 <0>         0.0548
     33 H4          1.4938    2.0428   -1.5798 H         1 <0>         0.0509
     34 H5          0.9223    1.9994    0.1053 H         1 <0>         0.0542
     35 H6          0.7361   -0.2342   -0.9555 H         1 <0>         0.0655
     36 H7          2.4817   -0.2146   -1.3030 H         1 <0>         0.0662
     37 H8          4.1080   -0.4266    0.4900 H         1 <0>         0.1126
     38 H9          4.5670   -1.2982    2.7467 H         1 <0>         0.1164
     39 H10         0.3834   -1.3621    3.5730 H         1 <0>         0.1120
     40 H11        -0.0752   -0.4825    1.3193 H         1 <0>         0.1115
     41 H12         1.9042    0.4727    6.9884 H         1 <0>         0.0757
     42 H13         3.1492    0.6065    5.7234 H         1 <0>         0.0740
     43 H14         1.3774    0.8399    4.0044 H         1 <0>         0.0850
     44 H15         0.1324    0.7060    5.2694 H         1 <0>         0.0707
     45 H16        -0.2893    2.8354    6.7771 H         1 <0>         0.1697
     46 H17         3.4629    2.3265    3.3519 H         1 <0>         0.1227
     47 H18         4.7831    4.2729    2.6863 H         1 <0>         0.1197
     48 H19         4.3169    6.4844    3.6529 H         1 <0>         0.1209
     49 H20         2.5138    6.7744    5.2925 H         1 <0>         0.1153
     50 H21         1.3484   -6.0272    3.8506 H         1 <0>         0.0722
     51 H22         3.0394   -6.5646    3.9911 H         1 <0>         0.0522
     52 H23         2.1814   -5.9428    5.4213 H         1 <0>         0.0879
@<TRIPOS>BOND
     1    1    2 1
     2    1   32 1
     3    1   33 1
     4    1   34 1
     5    2    3 1
     6    2   35 1
     7    2   36 1
     8    3    8 ar
     9    3    4 ar
    10    4    5 ar
    11    4   37 1
    12    5    6 ar
    13    5   38 1
    14    6    7 ar
    15    6    9 1
    16    7    8 ar
    17    7   39 1
    18    8   40 1
    19    9   11 1
    20    9   16 1
    21    9   10 1
    22   11   12 2
    23   11   29 1
    24   12   14 1
    25   12   13 1
    26   14   16 am
    27   14   15 2
    28   16   17 1
    29   17   18 1
    30   17   41 1
    31   17   42 1
    32   18   19 1
    33   18   43 1
    34   18   44 1
    35   19   24 1
    36   19   20 2
    37   20   21 1
    38   20   45 1
    39   21   22 1
    40   21   23 1
    41   23   28 ar
    42   23   24 ar
    43   24   25 ar
    44   25   26 ar
    45   25   46 1
    46   26   27 ar
    47   26   47 1
    48   27   28 ar
    49   27   48 1
    50   28   49 1
    51   29   30 2
    52   29   31 1
    53   31   50 1
    54   31   51 1
    55   31   52 1
@<TRIPOS>MOLECULE
ZINC00626401
   53    56     0     0     0
SMALL
USER_CHARGES
4-acetyl-5-(4-ethylphenyl)-3-hydroxy-1-[2-(1H-indol-3-yl)ethyl]-5H-pyrrol-2-one
@<TRIPOS>ATOM
      1 C1          4.1419   -0.9483   -1.4869 C.3       1 <0>        -0.1477
      2 C2          3.7112   -0.7071   -0.0387 C.3       1 <0>        -0.0897
      3 C3          2.3960    0.0285   -0.0217 C.ar      1 <0>        -0.0680
      4 C4          1.2084   -0.6789   -0.0136 C.ar      1 <0>        -0.1071
      5 C5          0.0021   -0.0041    0.0020 C.ar      1 <0>        -0.1307
      6 C6         -0.0167    1.3781    0.0096 C.ar      1 <0>        -0.1219
      7 C7          1.1709    2.0855    0.0021 C.ar      1 <0>        -0.0802
      8 C8          2.3773    1.4107   -0.0136 C.ar      1 <0>        -0.1099
      9 C9         -1.3319    2.1138    0.0199 C.3       1 <0>         0.2331
     10 H1         -2.1311    1.4472    0.3438 H         1 <0>         0.0958
     11 C10        -1.6335    2.6575   -1.3572 C.2       1 <0>        -0.4619
     12 C11        -1.7138    4.0057   -1.2360 C.2       1 <0>         0.3413
     13 C12        -1.4759    4.3802    0.1755 C.2       1 <0>         0.5045
     14 O1         -1.4821    5.5161    0.6061 O.2       1 <0>        -0.4879
     15 N1         -1.2524    3.2765    0.9116 N.am      1 <0>        -0.5929
     16 C13        -0.9777    3.2416    2.3502 C.3       1 <0>         0.1422
     17 C14         0.5313    3.3380    2.5837 C.3       1 <0>        -0.0676
     18 C15         0.8138    3.3021    4.0636 C.2       1 <0>        -0.1715
     19 C16         0.9807    4.3617    4.8705 C.2       1 <0>         0.0610
     20 N2          1.2200    3.9406    6.1503 N.pl3     1 <0>        -0.5947
     21 H2          1.3715    4.5245    6.9099 H         1 <0>         0.4168
     22 C17         1.2128    2.5646    6.1993 C.ar      1 <0>         0.0948
     23 C18         0.9523    2.1043    4.8954 C.ar      1 <0>        -0.0989
     24 C19         0.8805    0.7334    4.6422 C.ar      1 <0>        -0.0694
     25 C20         1.0607   -0.1557    5.6643 C.ar      1 <0>        -0.1457
     26 C21         1.3146    0.2933    6.9527 C.ar      1 <0>        -0.0991
     27 C22         1.3969    1.6419    7.2236 C.ar      1 <0>        -0.1301
     28 O2         -1.9693    4.8694   -2.2438 O.2       1 <0>        -0.5138
     29 C23        -1.8000    1.9051   -2.5440 C.2       1 <0>         0.3542
     30 O3         -1.7019    0.6957   -2.5145 O.3       1 <0>        -0.3619
     31 C24        -2.0991    2.6054   -3.8444 C.3       1 <0>        -0.1739
     32 H3          3.3852   -1.5449   -1.9964 H         1 <0>         0.0560
     33 H4          4.2541    0.0085   -1.9968 H         1 <0>         0.0559
     34 H5          5.0931   -1.4804   -1.4993 H         1 <0>         0.0601
     35 H6          4.4678   -0.1105    0.4708 H         1 <0>         0.0739
     36 H7          3.5989   -1.6640    0.4711 H         1 <0>         0.0744
     37 H8          1.2231   -1.7587   -0.0199 H         1 <0>         0.1273
     38 H9         -0.9258   -0.5567    0.0079 H         1 <0>         0.1264
     39 H10         1.1563    3.1654    0.0077 H         1 <0>         0.1222
     40 H11         3.3051    1.9634   -0.0195 H         1 <0>         0.1250
     41 H12        -1.4748    4.0816    2.8355 H         1 <0>         0.0883
     42 H13        -1.3513    2.3071    2.7689 H         1 <0>         0.0853
     43 H14         1.0284    2.4981    2.0984 H         1 <0>         0.0856
     44 H15         0.9048    4.2725    2.1651 H         1 <0>         0.0726
     45 H16         0.9334    5.3939    4.5562 H         1 <0>         0.1705
     46 H17         0.6837    0.3767    3.6420 H         1 <0>         0.1182
     47 H18         1.0046   -1.2162    5.4679 H         1 <0>         0.1209
     48 H19         1.4547   -0.4216    7.7500 H         1 <0>         0.1245
     49 H20         1.5932    1.9814    8.2298 H         1 <0>         0.1191
     50 H21        -1.5029    0.4001   -1.5802 H         1 <0>         0.4218
     51 H22        -2.1494    3.6810   -3.6747 H         1 <0>         0.1442
     52 H23        -1.3101    2.3876   -4.5643 H         1 <0>         0.1041
     53 H24        -3.0542    2.2542   -4.2350 H         1 <0>         0.1045
@<TRIPOS>BOND
     1    1    2 1
     2    1   32 1
     3    1   33 1
     4    1   34 1
     5    2    3 1
     6    2   35 1
     7    2   36 1
     8    3    8 ar
     9    3    4 ar
    10    4    5 ar
    11    4   37 1
    12    5    6 ar
    13    5   38 1
    14    6    7 ar
    15    6    9 1
    16    7    8 ar
    17    7   39 1
    18    8   40 1
    19    9   10 1
    20    9   15 1
    21    9   11 1
    22   11   12 1
    23   11   29 2
    24   12   13 1
    25   12   28 2
    26   13   14 2
    27   13   15 am
    28   15   16 1
    29   16   17 1
    30   16   41 1
    31   16   42 1
    32   17   18 1
    33   17   43 1
    34   17   44 1
    35   18   23 1
    36   18   19 2
    37   19   20 1
    38   19   45 1
    39   20   21 1
    40   20   22 1
    41   22   27 ar
    42   22   23 ar
    43   23   24 ar
    44   24   25 ar
    45   24   46 1
    46   25   26 ar
    47   25   47 1
    48   26   27 ar
    49   26   48 1
    50   27   49 1
    51   29   31 1
    52   29   30 1
    53   30   50 1
    54   31   51 1
    55   31   52 1
    56   31   53 1
@<TRIPOS>MOLECULE
ZINC00626401
   53    56     0     0     0
SMALL
USER_CHARGES
4-acetyl-5-(4-ethylphenyl)-3-hydroxy-1-[2-(1H-indol-3-yl)ethyl]-5H-pyrrol-2-one
@<TRIPOS>ATOM
      1 C1          4.1419   -0.9483   -1.4869 C.3       1 <0>        -0.1482
      2 C2          3.7112   -0.7071   -0.0387 C.3       1 <0>        -0.0910
      3 C3          2.3960    0.0285   -0.0217 C.ar      1 <0>        -0.0595
      4 C4          1.2084   -0.6789   -0.0136 C.ar      1 <0>        -0.1142
      5 C5          0.0021   -0.0041    0.0020 C.ar      1 <0>        -0.0915
      6 C6         -0.0167    1.3781    0.0096 C.ar      1 <0>        -0.1360
      7 C7          1.1709    2.0855    0.0021 C.ar      1 <0>        -0.0954
      8 C8          2.3773    1.4107   -0.0136 C.ar      1 <0>        -0.1129
      9 C9         -1.3319    2.1138    0.0199 C.3       1 <0>         0.2071
     10 H1         -2.1311    1.4472    0.3438 H         1 <0>         0.1279
     11 C10        -1.6335    2.6575   -1.3572 C.3       1 <0>        -0.2189
     12 C11        -1.7138    4.0057   -1.2360 C.2       1 <0>         0.3073
     13 C12        -1.4759    4.3802    0.1755 C.2       1 <0>         0.5020
     14 O1         -1.4821    5.5161    0.6061 O.2       1 <0>        -0.4642
     15 N1         -1.2524    3.2765    0.9116 N.am      1 <0>        -0.5896
     16 C13        -0.9777    3.2416    2.3502 C.3       1 <0>         0.1419
     17 C14         0.5313    3.3380    2.5837 C.3       1 <0>        -0.0689
     18 C15         0.8139    3.3021    4.0636 C.2       1 <0>        -0.1736
     19 C16         0.9807    4.3617    4.8705 C.2       1 <0>         0.0627
     20 N2          1.2201    3.9406    6.1503 N.pl3     1 <0>        -0.5945
     21 H2          1.3716    4.5245    6.9099 H         1 <0>         0.4172
     22 C17         1.2129    2.5646    6.1993 C.ar      1 <0>         0.0947
     23 C18         0.9524    2.1043    4.8954 C.ar      1 <0>        -0.0986
     24 C19         0.8806    0.7334    4.6422 C.ar      1 <0>        -0.0698
     25 C20         1.0608   -0.1557    5.6643 C.ar      1 <0>        -0.1446
     26 C21         1.3147    0.2933    6.9527 C.ar      1 <0>        -0.0986
     27 C22         1.3970    1.6419    7.2236 C.ar      1 <0>        -0.1298
     28 O2         -1.9694    4.8694   -2.2438 O.2       1 <0>        -0.4248
     29 C23        -1.8000    1.9051   -2.5440 C.2       1 <0>         0.3991
     30 O3         -2.0409    2.4692   -3.5913 O.2       1 <0>        -0.4331
     31 C24        -1.6782    0.4035   -2.5075 C.3       1 <0>        -0.2084
     32 H3          3.3852   -1.5449   -1.9964 H         1 <0>         0.0570
     33 H4          4.2541    0.0085   -1.9968 H         1 <0>         0.0557
     34 H5          5.0931   -1.4804   -1.4993 H         1 <0>         0.0607
     35 H6          4.4678   -0.1105    0.4708 H         1 <0>         0.0743
     36 H7          3.5989   -1.6640    0.4711 H         1 <0>         0.0758
     37 H8          1.2231   -1.7587   -0.0199 H         1 <0>         0.1294
     38 H9         -0.9258   -0.5567    0.0079 H         1 <0>         0.1361
     39 H10         1.1563    3.1654    0.0077 H         1 <0>         0.1195
     40 H11         3.3051    1.9634   -0.0195 H         1 <0>         0.1260
     41 H12        -1.4748    4.0816    2.8355 H         1 <0>         0.0932
     42 H13        -1.3512    2.3071    2.7689 H         1 <0>         0.0931
     43 H14         1.0284    2.4981    2.0984 H         1 <0>         0.0879
     44 H15         0.9048    4.2725    2.1651 H         1 <0>         0.0729
     45 H16         0.9334    5.3939    4.5562 H         1 <0>         0.1703
     46 H17         0.6838    0.3767    3.6420 H         1 <0>         0.1192
     47 H18         1.0048   -1.2162    5.4679 H         1 <0>         0.1215
     48 H19         1.4549   -0.4216    7.7500 H         1 <0>         0.1247
     49 H20         1.5933    1.9814    8.2298 H         1 <0>         0.1192
     50 H21        -0.7762    2.8481   -1.8354 H         1 <0>         0.1652
     51 H22        -1.4612    0.0812   -1.4891 H         1 <0>         0.0949
     52 H23        -2.6147   -0.0452   -2.8389 H         1 <0>         0.1097
     53 H24        -0.8706    0.0883   -3.1682 H         1 <0>         0.1001
@<TRIPOS>BOND
     1    1    2 1
     2    1   32 1
     3    1   33 1
     4    1   34 1
     5    2    3 1
     6    2   35 1
     7    2   36 1
     8    3    8 ar
     9    3    4 ar
    10    4    5 ar
    11    4   37 1
    12    5    6 ar
    13    5   38 1
    14    6    7 ar
    15    6    9 1
    16    7    8 ar
    17    7   39 1
    18    8   40 1
    19    9   10 1
    20    9   15 1
    21    9   11 1
    22   11   50 1
    23   11   12 1
    24   11   29 1
    25   12   13 1
    26   12   28 2
    27   13   14 2
    28   13   15 am
    29   15   16 1
    30   16   17 1
    31   16   41 1
    32   16   42 1
    33   17   18 1
    34   17   43 1
    35   17   44 1
    36   18   23 1
    37   18   19 2
    38   19   20 1
    39   19   45 1
    40   20   21 1
    41   20   22 1
    42   22   27 ar
    43   22   23 ar
    44   23   24 ar
    45   24   25 ar
    46   24   46 1
    47   25   26 ar
    48   25   47 1
    49   26   27 ar
    50   26   48 1
    51   27   49 1
    52   29   31 1
    53   29   30 2
    54   31   51 1
    55   31   52 1
    56   31   53 1
@<TRIPOS>MOLECULE
ZINC40428662
   33    36     0     0     0
SMALL
USER_CHARGES

@<TRIPOS>ATOM
      1 C1         -0.0167    1.3781    0.0096 C.ar      1 <0>        -0.1141
      2 C2          1.1709    2.0855    0.0021 C.ar      1 <0>        -0.1248
      3 C3          2.3773    1.4107   -0.0130 C.ar      1 <0>        -0.1041
      4 C4          2.3960    0.0285   -0.0201 C.ar      1 <0>        -0.1148
      5 C5          1.2084   -0.6789   -0.0117 C.ar      1 <0>        -0.0878
      6 C6          0.0021   -0.0041    0.0020 C.ar      1 <0>        -0.1228
      7 C7          3.7112   -0.7071   -0.0376 C.3       1 <0>         0.1426
      8 N1          4.1518   -0.9524    1.3379 N.pl3     1 <0>        -0.4851
      9 C8          4.9390   -0.0121    1.9755 C.ar      1 <0>         0.2342
     10 C9          5.3040    1.1532    1.3071 C.ar      1 <0>        -0.1589
     11 C10         6.0888    2.0955    1.9377 C.ar      1 <0>        -0.0159
     12 C11         6.5246    1.8948    3.2438 C.ar      1 <0>         0.0531
     13 C12         6.1757    0.7493    3.9233 C.ar      1 <0>        -0.0469
     14 C13         5.3781   -0.2162    3.2954 C.ar      1 <0>        -0.1195
     15 C14         5.0000   -1.4402    4.0102 C.2       1 <0>         0.3979
     16 O1          5.4113   -1.6536    5.2774 O.3       1 <0>        -0.5959
     17 C15         4.2073   -2.3763    3.3526 C.2       1 <0>        -0.4935
     18 C16         3.7685   -2.1147    1.9740 C.2       1 <0>         0.3665
     19 N2          3.0412   -3.1349    1.6031 N.2       1 <0>        -0.3798
     20 O2          2.9577   -4.0729    2.6561 O.3       1 <0>        -0.1727
     21 C17         3.6635   -3.6321    3.7133 C.2       1 <0>         0.5034
     22 O3          3.7974   -4.1997    4.7830 O.2       1 <0>        -0.5127
     23 F1          7.2933    2.8274    3.8474 F         1 <0>        -0.1303
     24 Cl1         6.5377    3.5449    1.0942 Cl        1 <0>        -0.0507
     25 H1         -0.9591    1.9053    0.0259 H         1 <0>         0.1200
     26 H2          1.1563    3.1654    0.0076 H         1 <0>         0.1216
     27 H3          3.3051    1.9634   -0.0196 H         1 <0>         0.1225
     28 H4          1.2231   -1.7588   -0.0176 H         1 <0>         0.1318
     29 H5         -0.9258   -0.5567    0.0082 H         1 <0>         0.1226
     30 H6          3.5884   -1.6586   -0.5549 H         1 <0>         0.1048
     31 H7          4.4573   -0.1052   -0.5563 H         1 <0>         0.0974
     32 H8          4.9722    1.3193    0.2929 H         1 <0>         0.1508
     33 H9          6.5158    0.5955    4.9368 H         1 <0>         0.1609
@<TRIPOS>BOND
     1    1    6 ar
     2    1    2 ar
     3    1   25 1
     4    2    3 ar
     5    2   26 1
     6    3    4 ar
     7    3   27 1
     8    4    5 ar
     9    4    7 1
    10    5    6 ar
    11    5   28 1
    12    6   29 1
    13    7    8 1
    14    7   30 1
    15    7   31 1
    16    8   18 1
    17    8    9 1
    18    9   14 ar
    19    9   10 ar
    20   10   11 ar
    21   10   32 1
    22   11   12 ar
    23   11   24 1
    24   12   13 ar
    25   12   23 1
    26   13   14 ar
    27   13   33 1
    28   14   15 1
    29   15   16 1
    30   15   17 2
    31   17   21 1
    32   17   18 1
    33   18   19 2
    34   19   20 1
    35   20   21 1
    36   21   22 2
@<TRIPOS>MOLECULE
ZINC12341773
   27    28     0     0     0
SMALL
USER_CHARGES
(5Z)-5-[(4-ethylphenyl)methylene]thiazolidine-2,4-dione
@<TRIPOS>ATOM
      1 C1         -0.5684   -6.6931    1.8259 C.3       1 <0>        -0.1485
      2 C2         -0.3226   -6.3577    0.3535 C.3       1 <0>        -0.0925
      3 C3          0.4187   -5.0494    0.2532 C.ar      1 <0>        -0.0507
      4 C4          1.8028   -5.0413    0.2477 C.ar      1 <0>        -0.1228
      5 C5          2.4885   -3.8487    0.1563 C.ar      1 <0>        -0.0720
      6 C6          1.7814   -2.6445    0.0685 C.ar      1 <0>        -0.1058
      7 C7          0.3823   -2.6611    0.0796 C.ar      1 <0>        -0.0808
      8 C8         -0.2884   -3.8626    0.1667 C.ar      1 <0>        -0.1172
      9 C9          2.5045   -1.3682   -0.0288 C.2       1 <0>         0.0803
     10 C10         1.8263   -0.2226   -0.2851 C.2       1 <0>        -0.2211
     11 C11         2.3031    1.1768   -0.2775 C.2       1 <0>         0.5624
     12 O1          3.4577    1.4577   -0.0160 O.2       1 <0>        -0.4710
     13 N1          1.4101    2.1076   -0.5692 N.am      1 <0>        -0.6854
     14 C12         0.1314    1.7917   -0.8581 C.2       1 <0>         0.5277
     15 O2         -0.7844    2.5387   -1.1456 O.2       1 <0>        -0.4193
     16 S1          0.1093    0.0114   -0.7244 S.3       1 <0>        -0.0301
     17 H1         -1.1045   -7.6393    1.8984 H         1 <0>         0.0619
     18 H2          0.3870   -6.7762    2.3440 H         1 <0>         0.0572
     19 H3         -1.1627   -5.9027    2.2843 H         1 <0>         0.0574
     20 H4         -1.2780   -6.2745   -0.1646 H         1 <0>         0.0769
     21 H5          0.2717   -7.1481   -0.1049 H         1 <0>         0.0768
     22 H6          2.3471   -5.9716    0.3155 H         1 <0>         0.1314
     23 H7          3.5685   -3.8440    0.1521 H         1 <0>         0.1351
     24 H8         -0.1708   -1.7356    0.0167 H         1 <0>         0.1342
     25 H9         -1.3682   -3.8774    0.1717 H         1 <0>         0.1317
     26 H10         3.5760   -1.3432    0.1038 H         1 <0>         0.1642
     27 H11         1.6813    3.0389   -0.5759 H         1 <0>         0.4201
@<TRIPOS>BOND
     1    1    2 1
     2    1   17 1
     3    1   18 1
     4    1   19 1
     5    2    3 1
     6    2   20 1
     7    2   21 1
     8    3    8 ar
     9    3    4 ar
    10    4    5 ar
    11    4   22 1
    12    5    6 ar
    13    5   23 1
    14    6    7 ar
    15    6    9 1
    16    7    8 ar
    17    7   24 1
    18    8   25 1
    19    9   10 2
    20    9   26 1
    21   10   16 1
    22   10   11 1
    23   11   12 2
    24   11   13 am
    25   13   14 am
    26   13   27 1
    27   14   15 2
    28   14   16 1
@<TRIPOS>MOLECULE
ZINC12403083
   29    30     0     0     0
SMALL
USER_CHARGES
(5Z)-5-[(4-dimethylaminophenyl)methylene]thiazolidine-2,4-dione
@<TRIPOS>ATOM
      1 C1         -0.8698    4.1381    1.1948 C.3       1 <0>         0.0852
      2 N1          0.4438    3.6038    0.8271 N.pl3     1 <0>        -0.6278
      3 C2          1.5821    4.5104    0.6579 C.3       1 <0>         0.0829
      4 C3          0.6103    2.2348    0.6386 C.ar      1 <0>         0.2461
      5 C4         -0.4983    1.3927    0.6507 C.ar      1 <0>        -0.2023
      6 C5         -0.3392    0.0436    0.4650 C.ar      1 <0>        -0.0328
      7 C6          0.9414   -0.4871    0.2629 C.ar      1 <0>        -0.1702
      8 C7          2.0540    0.3642    0.2516 C.ar      1 <0>        -0.0227
      9 C8          1.8851    1.7119    0.4382 C.ar      1 <0>        -0.2083
     10 C9          1.1171   -1.9307    0.0641 C.2       1 <0>         0.1023
     11 C10         0.0954   -2.6775   -0.4277 C.2       1 <0>        -0.2395
     12 C11        -0.0095   -4.1412   -0.5842 C.2       1 <0>         0.5616
     13 O1          0.8957   -4.8856   -0.2555 O.2       1 <0>        -0.4766
     14 N2         -1.1380   -4.6036   -1.0955 N.am      1 <0>        -0.6857
     15 C12        -2.1358   -3.7747   -1.4646 C.2       1 <0>         0.5397
     16 O2         -3.2147   -4.0598   -1.9485 O.2       1 <0>        -0.4215
     17 S1         -1.4893   -2.1575   -1.0711 S.3       1 <0>        -0.0415
     18 H1         -0.9613    4.1622    2.2807 H         1 <0>         0.0547
     19 H2         -0.9750    5.1482    0.7988 H         1 <0>         0.0712
     20 H3         -1.6505    3.5015    0.7784 H         1 <0>         0.0737
     21 H4          2.4403    3.9505    0.2862 H         1 <0>         0.0807
     22 H5          1.3212    5.2918   -0.0559 H         1 <0>         0.0622
     23 H6          1.8316    4.9633    1.6174 H         1 <0>         0.0576
     24 H7         -1.4857    1.8033    0.8021 H         1 <0>         0.1313
     25 H8         -1.1997   -0.6089    0.4748 H         1 <0>         0.1362
     26 H9          3.0432   -0.0406    0.0965 H         1 <0>         0.1327
     27 H10         2.7421    2.3690    0.4293 H         1 <0>         0.1320
     28 H11         2.0590   -2.3989    0.3091 H         1 <0>         0.1593
     29 H12        -1.2490   -5.5602   -1.2114 H         1 <0>         0.4196
@<TRIPOS>BOND
     1    1    2 1
     2    1   18 1
     3    1   19 1
     4    1   20 1
     5    2    3 1
     6    2    4 1
     7    3   21 1
     8    3   22 1
     9    3   23 1
    10    4    9 ar
    11    4    5 ar
    12    5    6 ar
    13    5   24 1
    14    6    7 ar
    15    6   25 1
    16    7    8 ar
    17    7   10 1
    18    8    9 ar
    19    8   26 1
    20    9   27 1
    21   10   11 2
    22   10   28 1
    23   11   17 1
    24   11   12 1
    25   12   13 2
    26   12   14 am
    27   14   15 am
    28   14   29 1
    29   15   16 2
    30   15   17 1
@<TRIPOS>MOLECULE
ZINC12408977
   21    22     0     0     0
SMALL
USER_CHARGES
(5Z)-5-[(3-chlorophenyl)methylene]thiazolidine-2,4-dione
@<TRIPOS>ATOM
      1 C1          0.7365    1.7919    1.0262 C.ar      1 <0>        -0.1084
      2 C2          0.8717    3.1447    0.7958 C.ar      1 <0>        -0.0735
      3 C3         -0.2047    3.8740    0.2792 C.ar      1 <0>        -0.0838
      4 C4         -1.4116    3.2231    0.0001 C.ar      1 <0>        -0.0838
      5 C5         -1.5294    1.8681    0.2316 C.ar      1 <0>        -0.0349
      6 C6         -0.4600    1.1548    0.7484 C.ar      1 <0>        -0.0839
      7 Cl1        -3.0232    1.0563   -0.1196 Cl        1 <0>        -0.0541
      8 C7         -0.0688    5.3167    0.0313 C.2       1 <0>         0.0740
      9 C8         -1.0452    5.9859   -0.6296 C.2       1 <0>        -0.2123
     10 C9         -1.2128    7.4391   -0.8439 C.2       1 <0>         0.5627
     11 O1         -0.4149    8.2465   -0.4059 O.2       1 <0>        -0.4673
     12 N1         -2.2743    7.8163   -1.5366 N.am      1 <0>        -0.6848
     13 C10        -3.1561    6.9181   -2.0202 C.2       1 <0>         0.5316
     14 O2         -4.1654    7.1236   -2.6671 O.2       1 <0>        -0.4147
     15 S1         -2.4799    5.3535   -1.4883 S.3       1 <0>        -0.0309
     16 H1          1.5669    1.2281    1.4250 H         1 <0>         0.1433
     17 H2          1.8064    3.6401    1.0134 H         1 <0>         0.1427
     18 H3         -2.2471    3.7791   -0.3988 H         1 <0>         0.1452
     19 H4         -0.5592    0.0950    0.9311 H         1 <0>         0.1420
     20 H5          0.8090    5.8434    0.3756 H         1 <0>         0.1694
     21 H6         -2.4222    8.7609   -1.7002 H         1 <0>         0.4216
@<TRIPOS>BOND
     1    1    6 ar
     2    1    2 ar
     3    1   16 1
     4    2    3 ar
     5    2   17 1
     6    3    4 ar
     7    3    8 1
     8    4    5 ar
     9    4   18 1
    10    5    6 ar
    11    5    7 1
    12    6   19 1
    13    8    9 2
    14    8   20 1
    15    9   15 1
    16    9   10 1
    17   10   11 2
    18   10   12 am
    19   12   13 am
    20   12   21 1
    21   13   14 2
    22   13   15 1
@<TRIPOS>MOLECULE
ZINC12382914
   30    31     0     0     0
SMALL
USER_CHARGES
(5Z)-5-[(4-isopropylphenyl)methylene]thiazolidine-2,4-dione
@<TRIPOS>ATOM
      1 C1         -1.1970   -6.3535    1.6090 C.3       1 <0>        -0.1468
      2 C2         -0.3226   -6.3577    0.3535 C.3       1 <0>        -0.0631
      3 C3         -1.2059   -6.5394   -0.8825 C.3       1 <0>        -0.1468
      4 C4          0.4187   -5.0494    0.2532 C.ar      1 <0>        -0.0450
      5 C5          1.8028   -5.0413    0.2477 C.ar      1 <0>        -0.1226
      6 C6          2.4885   -3.8487    0.1563 C.ar      1 <0>        -0.0720
      7 C7          1.7814   -2.6445    0.0685 C.ar      1 <0>        -0.1055
      8 C8          0.3823   -2.6611    0.0796 C.ar      1 <0>        -0.0812
      9 C9         -0.2884   -3.8626    0.1667 C.ar      1 <0>        -0.1142
     10 C10         2.5045   -1.3682   -0.0288 C.2       1 <0>         0.0804
     11 C11         1.8263   -0.2226   -0.2851 C.2       1 <0>        -0.2212
     12 C12         2.3031    1.1768   -0.2775 C.2       1 <0>         0.5624
     13 O1          3.4577    1.4577   -0.0160 O.2       1 <0>        -0.4711
     14 N1          1.4101    2.1076   -0.5692 N.am      1 <0>        -0.6854
     15 C13         0.1314    1.7917   -0.8581 C.2       1 <0>         0.5276
     16 O2         -0.7844    2.5387   -1.1456 O.2       1 <0>        -0.4194
     17 S1          0.1093    0.0114   -0.7244 S.3       1 <0>        -0.0301
     18 H1         -1.9130   -5.5337    1.5504 H         1 <0>         0.0586
     19 H2         -1.7332   -7.2997    1.6815 H         1 <0>         0.0619
     20 H3         -0.5678   -6.2240    2.4896 H         1 <0>         0.0575
     21 H4          0.3934   -7.1774    0.4121 H         1 <0>         0.0819
     22 H5         -1.7420   -7.4856   -0.8100 H         1 <0>         0.0619
     23 H6         -1.9219   -5.7196   -0.9411 H         1 <0>         0.0588
     24 H7         -0.5830   -6.5424   -1.7770 H         1 <0>         0.0577
     25 H8          2.3471   -5.9716    0.3155 H         1 <0>         0.1313
     26 H9          3.5685   -3.8440    0.1521 H         1 <0>         0.1350
     27 H10        -0.1708   -1.7356    0.0167 H         1 <0>         0.1340
     28 H11        -1.3682   -3.8774    0.1717 H         1 <0>         0.1313
     29 H12         3.5760   -1.3432    0.1038 H         1 <0>         0.1641
     30 H13         1.6813    3.0389   -0.5759 H         1 <0>         0.4200
@<TRIPOS>BOND
     1    1    2 1
     2    1   18 1
     3    1   19 1
     4    1   20 1
     5    2    3 1
     6    2    4 1
     7    2   21 1
     8    3   22 1
     9    3   23 1
    10    3   24 1
    11    4    9 ar
    12    4    5 ar
    13    5    6 ar
    14    5   25 1
    15    6    7 ar
    16    6   26 1
    17    7    8 ar
    18    7   10 1
    19    8    9 ar
    20    8   27 1
    21    9   28 1
    22   10   11 2
    23   10   29 1
    24   11   17 1
    25   11   12 1
    26   12   13 2
    27   12   14 am
    28   14   15 am
    29   14   30 1
    30   15   16 2
    31   15   17 1
@<TRIPOS>MOLECULE
ZINC16990429
   27    28     0     0     0
SMALL
USER_CHARGES
methyl 4-[(Z)-(2,4-dioxothiazolidin-5-ylidene)methyl]benzoate
@<TRIPOS>ATOM
      1 C1         -2.3000   -7.6346    0.4513 C.3       1 <0>         0.0361
      2 O1         -1.6528   -6.3385    0.3533 O.3       1 <0>        -0.3534
      3 C2         -0.3055   -6.3264    0.3485 C.2       1 <0>         0.5053
      4 O2          0.3116   -7.3701    0.4242 O.2       1 <0>        -0.4980
      5 C3          0.4209   -5.0448    0.2513 C.ar      1 <0>        -0.1033
      6 C4          1.8189   -5.0329    0.2465 C.ar      1 <0>        -0.0567
      7 C5          2.4921   -3.8478    0.1562 C.ar      1 <0>        -0.0898
      8 C6          1.7813   -2.6444    0.0684 C.ar      1 <0>        -0.0590
      9 C7          0.3811   -2.6572    0.0792 C.ar      1 <0>        -0.1063
     10 C8         -0.2898   -3.8440    0.1638 C.ar      1 <0>        -0.0574
     11 C9          2.5044   -1.3687   -0.0288 C.2       1 <0>         0.0663
     12 C10         1.8567   -0.2524   -0.4443 C.2       1 <0>        -0.2045
     13 C11         2.3228    1.1531   -0.4761 C.2       1 <0>         0.5613
     14 O3          3.4349    1.4674   -0.0969 O.2       1 <0>        -0.4647
     15 N1          1.4661    2.0484   -0.9381 N.am      1 <0>        -0.6851
     16 C12         0.2341    1.6954   -1.3570 C.2       1 <0>         0.5357
     17 O4         -0.6438    2.4082   -1.8045 O.2       1 <0>        -0.4133
     18 S1          0.2050   -0.0718   -1.1037 S.3       1 <0>        -0.0299
     19 H1         -3.3819   -7.5019    0.4445 H         1 <0>         0.1062
     20 H2         -2.0045   -8.2533   -0.3961 H         1 <0>         0.0662
     21 H3         -1.9995   -8.1215    1.3790 H         1 <0>         0.0661
     22 H4          2.3669   -5.9611    0.3145 H         1 <0>         0.1473
     23 H5          3.5721   -3.8389    0.1520 H         1 <0>         0.1463
     24 H6         -0.1682   -1.7294    0.0161 H         1 <0>         0.1448
     25 H7         -1.3698   -3.8545    0.1677 H         1 <0>         0.1482
     26 H8          3.5516   -1.3204    0.2306 H         1 <0>         0.1693
     27 H9          1.7303    2.9810   -0.9765 H         1 <0>         0.4224
@<TRIPOS>BOND
     1    1    2 1
     2    1   19 1
     3    1   20 1
     4    1   21 1
     5    2    3 1
     6    3    4 2
     7    3    5 1
     8    5   10 ar
     9    5    6 ar
    10    6    7 ar
    11    6   22 1
    12    7    8 ar
    13    7   23 1
    14    8    9 ar
    15    8   11 1
    16    9   10 ar
    17    9   24 1
    18   10   25 1
    19   11   12 2
    20   11   26 1
    21   12   18 1
    22   12   13 1
    23   13   14 2
    24   13   15 am
    25   15   16 am
    26   15   27 1
    27   16   17 2
    28   16   18 1
@<TRIPOS>MOLECULE
ZINC12341826
   25    26     0     0     0
SMALL
USER_CHARGES
(5Z)-5-[(3-methoxyphenyl)methylene]thiazolidine-2,4-dione
@<TRIPOS>ATOM
      1 C1          0.3206    1.0849    0.2218 C.3       1 <0>         0.0245
      2 O1         -0.2791    1.5706    1.4245 O.3       1 <0>        -0.3125
      3 C2         -0.6330    2.8825    1.4514 C.ar      1 <0>         0.1319
      4 C3         -0.4066    3.6852    0.3404 C.ar      1 <0>        -0.1834
      5 C4         -0.7636    5.0212    0.3602 C.ar      1 <0>        -0.0813
      6 C5         -1.3480    5.5674    1.4837 C.ar      1 <0>        -0.1151
      7 C6         -1.5810    4.7679    2.6081 C.ar      1 <0>        -0.0577
      8 C7         -1.2236    3.4159    2.5832 C.ar      1 <0>        -0.1230
      9 C8         -2.2037    5.3451    3.8084 C.2       1 <0>         0.0740
     10 C9         -2.2725    4.6199    4.9518 C.2       1 <0>        -0.2127
     11 C10        -2.9735    4.9210    6.2182 C.2       1 <0>         0.5627
     12 O2         -3.6147    5.9443    6.3667 O.2       1 <0>        -0.4691
     13 N1         -2.8681    4.0207    7.1812 N.am      1 <0>        -0.6855
     14 C11        -2.1568    2.8877    7.0121 C.2       1 <0>         0.5259
     15 O3         -1.9778    1.9831    7.8052 O.2       1 <0>        -0.4181
     16 S1         -1.5470    3.0329    5.3402 S.3       1 <0>        -0.0217
     17 H1          0.5537    0.0260    0.3339 H         1 <0>         0.1047
     18 H2          1.2376    1.6398    0.0233 H         1 <0>         0.0584
     19 H3         -0.3720    1.2185   -0.6092 H         1 <0>         0.0582
     20 H4          0.0506    3.2640   -0.5428 H         1 <0>         0.1358
     21 H5         -0.5838    5.6391   -0.5071 H         1 <0>         0.1357
     22 H6         -1.6258    6.6110    1.4955 H         1 <0>         0.1376
     23 H7         -1.4041    2.7916    3.4458 H         1 <0>         0.1424
     24 H8         -2.6063    6.3469    3.7793 H         1 <0>         0.1682
     25 H9         -3.3125    4.1792    8.0287 H         1 <0>         0.4203
@<TRIPOS>BOND
     1    1    2 1
     2    1   17 1
     3    1   18 1
     4    1   19 1
     5    2    3 1
     6    3    8 ar
     7    3    4 ar
     8    4    5 ar
     9    4   20 1
    10    5    6 ar
    11    5   21 1
    12    6    7 ar
    13    6   22 1
    14    7    8 ar
    15    7    9 1
    16    8   23 1
    17    9   10 2
    18    9   24 1
    19   10   16 1
    20   10   11 1
    21   11   12 2
    22   11   13 am
    23   13   14 am
    24   13   25 1
    25   14   15 2
    26   14   16 1
@<TRIPOS>MOLECULE
ZINC34051487
   25    26     0     0     0
SMALL
USER_CHARGES
(5Z)-5-[[3-(trifluoromethoxy)phenyl]methylene]thiazolidine-2,4-dione
@<TRIPOS>ATOM
      1 C1          1.7229    0.7435    3.5768 C.ar      1 <0>        -0.0782
      2 C2          1.1258    1.0960    4.7689 C.ar      1 <0>        -0.0941
      3 C3         -0.1864    1.5816    4.7757 C.ar      1 <0>        -0.0563
      4 C4         -0.8835    1.7113    3.5700 C.ar      1 <0>        -0.0990
      5 C5         -0.2741    1.3486    2.3820 C.ar      1 <0>         0.1111
      6 C6          1.0293    0.8680    2.3867 C.ar      1 <0>        -0.1672
      7 O1         -0.9495    1.4677    1.2087 O.3       1 <0>        -0.3073
      8 C7         -0.2577    1.0806    0.0197 C.3       1 <0>         0.6046
      9 F1          0.1052   -0.2676    0.1094 F         1 <0>        -0.1629
     10 F2          0.8920    1.8642   -0.1270 F         1 <0>        -0.1632
     11 F3         -1.0929    1.2661   -1.0872 F         1 <0>        -0.1265
     12 C8         -0.8277    1.9588    6.0438 C.2       1 <0>         0.0650
     13 C9         -2.1483    2.2645    6.0709 C.2       1 <0>        -0.2060
     14 C10        -2.9670    2.8098    7.1746 C.2       1 <0>         0.5655
     15 O2         -2.4869    3.0588    8.2646 O.2       1 <0>        -0.4699
     16 N1         -4.2478    3.0135    6.9162 N.am      1 <0>        -0.6995
     17 C11        -4.7756    2.7366    5.7066 C.2       1 <0>         0.5339
     18 O3         -5.9256    2.8738    5.3352 O.2       1 <0>        -0.4178
     19 S1         -3.3768    2.1264    4.7797 S.3       1 <0>        -0.0385
     20 H1          2.7357    0.3685    3.5725 H         1 <0>         0.1447
     21 H2          1.6707    0.9978    5.6962 H         1 <0>         0.1452
     22 H3         -1.8952    2.0891    3.5669 H         1 <0>         0.1486
     23 H4          1.5031    0.5901    1.4569 H         1 <0>         0.1410
     24 H5         -0.2361    1.9930    6.9705 H         1 <0>         0.1760
     25 H6         -4.9089    3.4177    7.6970 H         1 <0>         0.4509
@<TRIPOS>BOND
     1    1    6 ar
     2    1    2 ar
     3    1   20 1
     4    2    3 ar
     5    2   21 1
     6    3    4 ar
     7    3   12 1
     8    4    5 ar
     9    4   22 1
    10    5    6 ar
    11    5    7 1
    12    6   23 1
    13    7    8 1
    14    8    9 1
    15    8   10 1
    16    8   11 1
    17   12   13 2
    18   12   24 1
    19   13   19 1
    20   13   14 1
    21   14   15 2
    22   14   16 am
    23   16   17 am
    24   16   25 1
    25   17   18 2
    26   17   19 1
@<TRIPOS>MOLECULE
ZINC01027467
   21    22     0     0     0
SMALL
USER_CHARGES
(5Z)-5-[(4-fluorophenyl)methylene]thiazolidine-2,4-dione
@<TRIPOS>ATOM
      1 C1          0.3826   -2.6603    0.0801 C.ar      1 <0>        -0.0578
      2 C2         -0.2886   -3.8604    0.1660 C.ar      1 <0>        -0.1515
      3 C3          0.4193   -5.0499    0.2530 C.ar      1 <0>         0.1289
      4 C4          1.8061   -5.0409    0.2483 C.ar      1 <0>        -0.1572
      5 C5          2.4902   -3.8485    0.1571 C.ar      1 <0>        -0.0463
      6 C6          1.7822   -2.6442    0.0690 C.ar      1 <0>        -0.1098
      7 C7          2.5049   -1.3686   -0.0286 C.2       1 <0>         0.0784
      8 C8          1.8264   -0.2226   -0.2857 C.2       1 <0>        -0.2164
      9 C9          2.3027    1.1759   -0.2781 C.2       1 <0>         0.5624
     10 O1          3.4574    1.4568   -0.0163 O.2       1 <0>        -0.4686
     11 N1          1.4102    2.1070   -0.5703 N.am      1 <0>        -0.6850
     12 C10         0.1315    1.7913   -0.8599 C.2       1 <0>         0.5310
     13 O2         -0.7842    2.5383   -1.1479 O.2       1 <0>        -0.4162
     14 S1          0.1096    0.0110   -0.7259 S.3       1 <0>        -0.0335
     15 F1         -0.2452   -6.2228    0.3422 F         1 <0>        -0.1299
     16 H1         -0.1698   -1.7344    0.0169 H         1 <0>         0.1431
     17 H2         -1.3685   -3.8746    0.1702 H         1 <0>         0.1465
     18 H3          2.3511   -5.9708    0.3167 H         1 <0>         0.1463
     19 H4          3.5702   -3.8429    0.1532 H         1 <0>         0.1468
     20 H5          3.5764   -1.3434    0.1044 H         1 <0>         0.1676
     21 H6          1.6816    3.0382   -0.5769 H         1 <0>         0.4213
@<TRIPOS>BOND
     1    1    6 ar
     2    1    2 ar
     3    1   16 1
     4    2    3 ar
     5    2   17 1
     6    3    4 ar
     7    3   15 1
     8    4    5 ar
     9    4   18 1
    10    5    6 ar
    11    5   19 1
    12    6    7 1
    13    7    8 2
    14    7   20 1
    15    8   14 1
    16    8    9 1
    17    9   10 2
    18    9   11 am
    19   11   12 am
    20   11   21 1
    21   12   13 2
    22   12   14 1
@<TRIPOS>MOLECULE
ZINC12407391
   21    22     0     0     0
SMALL
USER_CHARGES
(5Z)-5-[(4-chlorophenyl)methylene]thiazolidine-2,4-dione
@<TRIPOS>ATOM
      1 C1          0.3824   -2.6607    0.0796 C.ar      1 <0>        -0.0750
      2 C2         -0.2885   -3.8615    0.1662 C.ar      1 <0>        -0.1076
      3 C3          0.4190   -5.0496    0.2532 C.ar      1 <0>        -0.0114
      4 C4          1.8045   -5.0411    0.2477 C.ar      1 <0>        -0.1136
      5 C5          2.4894   -3.8486    0.1562 C.ar      1 <0>        -0.0641
      6 C6          1.7818   -2.6444    0.0684 C.ar      1 <0>        -0.0934
      7 C7          2.5047   -1.3684   -0.0288 C.2       1 <0>         0.0744
      8 C8          1.8263   -0.2226   -0.2854 C.2       1 <0>        -0.2127
      9 C9          2.3029    1.1764   -0.2778 C.2       1 <0>         0.5622
     10 O1          3.4575    1.4572   -0.0159 O.2       1 <0>        -0.4677
     11 N1          1.4102    2.1073   -0.5697 N.am      1 <0>        -0.6849
     12 C10         0.1315    1.7916   -0.8589 C.2       1 <0>         0.5305
     13 O2         -0.7842    2.5387   -1.1466 O.2       1 <0>        -0.4157
     14 S1          0.1094    0.0113   -0.7251 S.3       1 <0>        -0.0315
     15 Cl1        -0.4349   -6.5566    0.3693 Cl        1 <0>        -0.0548
     16 H1         -0.1703   -1.7350    0.0166 H         1 <0>         0.1424
     17 H2         -1.3684   -3.8760    0.1707 H         1 <0>         0.1441
     18 H3          2.3492   -5.9712    0.3155 H         1 <0>         0.1440
     19 H4          3.5694   -3.8435    0.1520 H         1 <0>         0.1459
     20 H5          3.5762   -1.3434    0.1040 H         1 <0>         0.1678
     21 H6          1.6814    3.0386   -0.5759 H         1 <0>         0.4214
@<TRIPOS>BOND
     1    1    6 ar
     2    1    2 ar
     3    1   16 1
     4    2    3 ar
     5    2   17 1
     6    3    4 ar
     7    3   15 1
     8    4    5 ar
     9    4   18 1
    10    5    6 ar
    11    5   19 1
    12    6    7 1
    13    7    8 2
    14    7   20 1
    15    8   14 1
    16    8    9 1
    17    9   10 2
    18    9   11 am
    19   11   12 am
    20   11   21 1
    21   12   13 2
    22   12   14 1
@<TRIPOS>MOLECULE
ZINC12343955
   24    25     0     0     0
SMALL
USER_CHARGES
(5Z)-5-(m-tolylmethylene)thiazolidine-2,4-dione
@<TRIPOS>ATOM
      1 C1         -0.1069    0.6180    0.1680 C.3       1 <0>        -0.1208
      2 C2         -0.7572    1.3912    1.2862 C.ar      1 <0>        -0.0826
      3 C3          0.0210    1.9309    2.2960 C.ar      1 <0>        -0.0924
      4 C4         -0.5664    2.6426    3.3274 C.ar      1 <0>        -0.1187
      5 C5         -1.9336    2.8192    3.3570 C.ar      1 <0>        -0.0829
      6 C6         -2.7272    2.2770    2.3404 C.ar      1 <0>        -0.0955
      7 C7         -2.1247    1.5639    1.2978 C.ar      1 <0>        -0.0879
      8 C8         -4.1856    2.4609    2.3638 C.2       1 <0>         0.0786
      9 C9         -4.9672    1.7949    1.4785 C.2       1 <0>        -0.2188
     10 C10        -6.4151    1.9296    1.2119 C.2       1 <0>         0.5624
     11 O1         -7.1059    2.7259    1.8196 O.2       1 <0>        -0.4704
     12 N1         -6.9208    1.1407    0.2789 N.am      1 <0>        -0.6853
     13 C11        -6.1513    0.2599   -0.3924 C.2       1 <0>         0.5273
     14 O2         -6.4816   -0.5183   -1.2668 O.2       1 <0>        -0.4190
     15 S1         -4.5288    0.5176    0.3071 S.3       1 <0>        -0.0296
     16 H1         -0.0508   -0.4360    0.4398 H         1 <0>         0.0764
     17 H2          0.8984    1.0031   -0.0032 H         1 <0>         0.0715
     18 H3         -0.6978    0.7279   -0.7413 H         1 <0>         0.0709
     19 H4          1.0924    1.7955    2.2790 H         1 <0>         0.1302
     20 H5          0.0477    3.0605    4.1114 H         1 <0>         0.1326
     21 H6         -2.3905    3.3749    4.1625 H         1 <0>         0.1347
     22 H7         -2.7300    1.1460    0.5070 H         1 <0>         0.1343
     23 H8         -4.6344    3.1266    3.0862 H         1 <0>         0.1650
     24 H9         -7.8670    1.1965    0.0728 H         1 <0>         0.4202
@<TRIPOS>BOND
     1    1    2 1
     2    1   16 1
     3    1   17 1
     4    1   18 1
     5    2    7 ar
     6    2    3 ar
     7    3    4 ar
     8    3   19 1
     9    4    5 ar
    10    4   20 1
    11    5    6 ar
    12    5   21 1
    13    6    7 ar
    14    6    8 1
    15    7   22 1
    16    8    9 2
    17    8   23 1
    18    9   15 1
    19    9   10 1
    20   10   11 2
    21   10   12 am
    22   12   13 am
    23   12   24 1
    24   13   14 2
    25   13   15 1
@<TRIPOS>MOLECULE
ZINC03869685
   32    34     0     0     0
SMALL
USER_CHARGES

@<TRIPOS>ATOM
      1 C1          0.9741   -0.2755   -0.9644 C.ar      1 <0>        -0.0748
      2 C2          2.1569    0.4329   -0.9701 C.ar      1 <0>        -0.1346
      3 C3          2.3856    1.4156   -0.0177 C.ar      1 <0>         0.1032
      4 C4          1.4203    1.6918    0.9495 C.ar      1 <0>         0.0788
      5 C5          0.2328    0.9863    0.9617 C.ar      1 <0>        -0.0762
      6 C6          0.0021   -0.0041    0.0020 C.ar      1 <0>        -0.0447
      7 C7         -1.2637   -0.7605    0.0100 C.2       1 <0>         0.1350
      8 C8         -2.4363   -0.0759    0.1235 C.2       1 <0>        -0.0429
      9 C9         -3.6628   -0.7894    0.1327 C.2       1 <0>         0.4011
     10 O1         -4.7327   -0.2102    0.2323 O.2       1 <0>        -0.4484
     11 C10        -3.5946   -2.2549    0.0170 C.ar      1 <0>        -0.2690
     12 C11        -4.7561   -3.0387    0.0170 C.ar      1 <0>         0.2244
     13 C12        -4.6504   -4.4123   -0.0941 C.ar      1 <0>        -0.2081
     14 C13        -3.3994   -5.0103   -0.2044 C.ar      1 <0>         0.2000
     15 C14        -2.2463   -4.2416   -0.2047 C.ar      1 <0>        -0.1854
     16 C15        -2.3316   -2.8618   -0.0952 C.ar      1 <0>         0.1876
     17 O2         -1.2182   -2.0992   -0.1003 O.3       1 <0>        -0.1970
     18 O3         -3.3070   -6.3605   -0.3125 O.3       1 <0>        -0.4866
     19 O4         -5.9758   -2.4535    0.1257 O.3       1 <0>        -0.4726
     20 O5         -2.4312    1.2810    0.2275 O.3       1 <0>        -0.4502
     21 O6          1.6480    2.6557    1.8815 O.3       1 <0>        -0.4836
     22 O7          3.5534    2.1101   -0.0273 O.3       1 <0>        -0.4861
     23 H1          0.7971   -1.0371   -1.7094 H         1 <0>         0.1379
     24 H2          2.9075    0.2221   -1.7176 H         1 <0>         0.1421
     25 H3         -0.5155    1.1988    1.7108 H         1 <0>         0.1429
     26 H4         -5.5413   -5.0229   -0.0948 H         1 <0>         0.1515
     27 H5         -1.2805   -4.7174   -0.2903 H         1 <0>         0.1559
     28 H6         -3.3257   -6.6843   -1.2235 H         1 <0>         0.4050
     29 H7         -6.3751   -2.2160   -0.7224 H         1 <0>         0.4036
     30 H8         -3.3120    1.6729    0.3033 H         1 <0>         0.4079
     31 H9          1.3508    3.5370    1.6166 H         1 <0>         0.3905
     32 H10         3.5287    2.9137   -0.5647 H         1 <0>         0.3924
@<TRIPOS>BOND
     1    1    6 ar
     2    1    2 ar
     3    1   23 1
     4    2    3 ar
     5    2   24 1
     6    3    4 ar
     7    3   22 1
     8    4    5 ar
     9    4   21 1
    10    5    6 ar
    11    5   25 1
    12    6    7 1
    13    7   17 1
    14    7    8 2
    15    8    9 1
    16    8   20 1
    17    9   10 2
    18    9   11 1
    19   11   16 ar
    20   11   12 ar
    21   12   13 ar
    22   12   19 1
    23   13   14 ar
    24   13   26 1
    25   14   15 ar
    26   14   18 1
    27   15   16 ar
    28   15   27 1
    29   16   17 1
    30   18   28 1
    31   19   29 1
    32   20   30 1
    33   21   31 1
    34   22   32 1
@<TRIPOS>MOLECULE
ZINC03869685
   31    33     0     0     0
SMALL
USER_CHARGES

@<TRIPOS>ATOM
      1 C1          0.1390    1.1246   -0.8120 C.ar      1 <0>        -0.0626
      2 C2          1.3229    1.8301   -0.8179 C.ar      1 <0>        -0.1333
      3 C3          2.3812    1.4233   -0.0172 C.ar      1 <0>         0.0878
      4 C4          2.2522    0.2984    0.7970 C.ar      1 <0>         0.0757
      5 C5          1.0694   -0.4139    0.8086 C.ar      1 <0>        -0.0997
      6 C6          0.0021   -0.0041    0.0020 C.ar      1 <0>        -0.0194
      7 C7         -1.2620   -0.7597    0.0100 C.2       1 <0>         0.1007
      8 C8         -2.4587   -0.0763    0.1245 C.2       1 <0>        -0.0038
      9 C9         -3.6655   -0.7872    0.1324 C.2       1 <0>         0.3349
     10 C10        -3.6167   -2.1939    0.0219 C.2       1 <0>        -0.3331
     11 C11        -4.8018   -2.9593    0.0240 C.2       1 <0>         0.2664
     12 C12        -4.7326   -4.3182   -0.0844 C.2       1 <0>        -0.3749
     13 C13        -3.4871   -4.9570   -0.1979 C.2       1 <0>         0.3648
     14 O1         -3.4307   -6.2860   -0.3033 O.2       1 <0>        -0.6598
     15 C14        -2.3054   -4.2086   -0.2016 C.2       1 <0>        -0.3143
     16 C15        -2.3616   -2.8325   -0.0921 C.2       1 <0>         0.2118
     17 O2         -1.2290   -2.0988   -0.0996 O.3       1 <0>        -0.2018
     18 O3         -6.0073   -2.3463    0.1339 O.3       1 <0>        -0.4482
     19 O4         -4.8484   -0.1420    0.2437 O.3       1 <0>        -0.5747
     20 O5         -2.4638    1.2803    0.2294 O.3       1 <0>        -0.4649
     21 O6          3.2919   -0.0973    1.5794 O.3       1 <0>        -0.4856
     22 O7          3.5458    2.1225   -0.0269 O.3       1 <0>        -0.4881
     23 H1         -0.6843    1.4460   -1.4327 H         1 <0>         0.1397
     24 H2          1.4276    2.7014   -1.4473 H         1 <0>         0.1381
     25 H3          0.9685   -1.2854    1.4384 H         1 <0>         0.1410
     26 H4         -5.6395   -4.9047   -0.0825 H         1 <0>         0.1180
     27 H5         -1.3506   -4.7057   -0.2895 H         1 <0>         0.1230
     28 H6         -6.7597   -2.9537    0.1258 H         1 <0>         0.3847
     29 H7         -3.3475    1.6656    0.3047 H         1 <0>         0.4058
     30 H8          3.2925    0.2977    2.4620 H         1 <0>         0.3855
     31 H9          3.5825    2.8346    0.6263 H         1 <0>         0.3863
@<TRIPOS>BOND
     1    1    6 ar
     2    1    2 ar
     3    1   23 1
     4    2    3 ar
     5    2   24 1
     6    3    4 ar
     7    3   22 1
     8    4    5 ar
     9    4   21 1
    10    5    6 ar
    11    5   25 1
    12    6    7 1
    13    7   17 1
    14    7    8 2
    15    8    9 1
    16    8   20 1
    17    9   10 2
    18    9   19 1
    19   10   16 1
    20   10   11 1
    21   11   12 2
    22   11   18 1
    23   12   13 1
    24   12   26 1
    25   13   14 2
    26   13   15 1
    27   15   16 2
    28   15   27 1
    29   16   17 1
    30   18   28 1
    31   20   29 1
    32   21   30 1
    33   22   31 1
@<TRIPOS>MOLECULE
ZINC40847911
   39    42     0     0     0
SMALL
USER_CHARGES

@<TRIPOS>ATOM
      1 C1         -0.0167    1.3789    0.0096 C.ar      1 <0>        -0.1764
      2 C2          1.1808    2.0727    0.0019 C.ar      1 <0>        -0.0118
      3 C3          2.3727    1.3386   -0.0134 C.ar      1 <0>        -0.1898
      4 C4          2.3057   -0.0555   -0.0203 C.ar      1 <0>         0.1364
      5 N1          1.1412   -0.6699   -0.0124 N.ar      1 <0>        -0.4848
      6 C5          0.0021   -0.0041    0.0020 C.ar      1 <0>         0.1274
      7 C6          3.6801    2.0283   -0.0227 C.2       1 <0>         0.5655
      8 O1          3.7266    3.2433   -0.0170 O.2       1 <0>        -0.5209
      9 N2          4.8206    1.3103   -0.0374 N.am      1 <0>        -0.6320
     10 C7          6.0636    1.9660   -0.0462 C.2       1 <0>         0.0566
     11 C8          6.2698    3.2969   -0.0356 C.2       1 <0>         0.0545
     12 N3          7.6188    3.5587   -0.0496 N.pl3     1 <0>        -0.5717
     13 H1          8.0130    4.4450   -0.0455 H         1 <0>         0.4276
     14 C9          8.3275    2.3821   -0.0700 C.ar      1 <0>         0.3067
     15 C10         7.3873    1.3325   -0.0623 C.ar      1 <0>        -0.1557
     16 C11         7.8303    0.0111   -0.0733 C.ar      1 <0>        -0.0089
     17 C12         9.2060   -0.2173   -0.0879 C.ar      1 <0>        -0.1385
     18 C13        10.0773    0.8757   -0.0908 C.ar      1 <0>         0.1644
     19 N4          9.6268    2.1103   -0.0890 N.ar      1 <0>        -0.4914
     20 C14         9.7374   -1.6013   -0.0995 C.ar      1 <0>         0.0035
     21 C15         8.8589   -2.6852   -0.1017 C.ar      1 <0>        -0.1179
     22 C16         9.3508   -3.9706   -0.1125 C.ar      1 <0>        -0.0617
     23 C17        10.7312   -4.1899   -0.1213 C.ar      1 <0>        -0.0319
     24 C18        11.6102   -3.1031   -0.1191 C.ar      1 <0>        -0.0609
     25 C19        11.1155   -1.8187   -0.1141 C.ar      1 <0>        -0.1164
     26 C20        11.2445   -5.5267   -0.1321 C.1       1 <0>         0.2498
     27 N5         11.6516   -6.5872   -0.1407 N.1       1 <0>        -0.4124
     28 H2         -0.9559    1.9118    0.0259 H         1 <0>         0.1472
     29 H3          1.1954    3.1525    0.0072 H         1 <0>         0.1506
     30 H4          3.2169   -0.6353   -0.0324 H         1 <0>         0.1573
     31 H5         -0.9310   -0.5479    0.0084 H         1 <0>         0.1653
     32 H6          4.7836    0.3410   -0.0419 H         1 <0>         0.4124
     33 H7          5.4918    4.0458   -0.0190 H         1 <0>         0.2056
     34 H8          7.1297   -0.8108   -0.0703 H         1 <0>         0.1383
     35 H9         11.1432    0.7020   -0.1021 H         1 <0>         0.1678
     36 H10         7.7923   -2.5155   -0.0945 H         1 <0>         0.1348
     37 H11         8.6705   -4.8094   -0.1139 H         1 <0>         0.1360
     38 H12        12.6771   -3.2711   -0.1255 H         1 <0>         0.1369
     39 H13        11.7944   -0.9788   -0.1168 H         1 <0>         0.1385
@<TRIPOS>BOND
     1    1    6 ar
     2    1    2 ar
     3    1   28 1
     4    2    3 ar
     5    2   29 1
     6    3    4 ar
     7    3    7 1
     8    4    5 ar
     9    4   30 1
    10    5    6 ar
    11    6   31 1
    12    7    8 2
    13    7    9 am
    14    9   10 1
    15    9   32 1
    16   10   15 1
    17   10   11 2
    18   11   12 1
    19   11   33 1
    20   12   13 1
    21   12   14 1
    22   14   19 ar
    23   14   15 ar
    24   15   16 ar
    25   16   17 ar
    26   16   34 1
    27   17   18 ar
    28   17   20 1
    29   18   19 ar
    30   18   35 1
    31   20   25 ar
    32   20   21 ar
    33   21   22 ar
    34   21   36 1
    35   22   23 ar
    36   22   37 1
    37   23   24 ar
    38   23   26 1
    39   24   25 ar
    40   24   38 1
    41   25   39 1
    42   26   27 3
