@<TRIPOS>MOLECULE
ZINC03814434
   62    69     0     0     0
SMALL
USER_CHARGES

@<TRIPOS>ATOM
      1 C1         -0.1295    1.5952   -0.2973 C.3       1 <0>        -0.1687
      2 C2         -0.0862    0.0696   -0.1900 C.3       1 <0>         0.3342
      3 C3          0.5692   -0.4501   -1.4637 C.3       1 <0>         0.0405
      4 H1          1.4796    0.1159   -1.6612 H         1 <0>         0.1372
      5 C4          0.9167   -1.9328   -1.2889 C.3       1 <0>        -0.0061
      6 H2          1.3963   -2.3075   -2.1932 H         1 <0>         0.1555
      7 C5          1.8785   -2.0596   -0.1021 C.3       1 <0>        -0.1827
      8 C6          1.2061   -1.5198    1.1541 C.3       1 <0>         0.2999
      9 H3          1.9797   -1.4243    1.9161 H         1 <0>         0.1550
     10 O1          0.6555   -0.2442    0.9666 O.3       1 <0>        -0.3234
     11 N1          0.2189   -2.4746    1.6600 N.pl3     1 <0>        -0.5366
     12 C7          0.4705   -3.5508    2.4739 C.ar      1 <0>         0.1469
     13 C8          1.6649   -4.0152    3.0240 C.ar      1 <0>        -0.1522
     14 C9          1.5948   -5.1456    3.8201 C.ar      1 <0>        -0.0582
     15 C10         0.4006   -5.7997    4.0696 C.ar      1 <0>        -0.1457
     16 C11        -0.7984   -5.3597    3.5358 C.ar      1 <0>        -0.0280
     17 C12        -0.7487   -4.2198    2.7307 C.ar      1 <0>        -0.1131
     18 C13        -1.7893   -3.4830    2.0197 C.ar      1 <0>         0.0276
     19 C14        -1.1442   -2.4197    1.3841 C.ar      1 <0>         0.0376
     20 C15        -1.8806   -1.5095    0.6175 C.ar      1 <0>         0.0894
     21 N2         -1.4718   -0.3951   -0.1095 N.pl3     1 <0>        -0.5183
     22 C16        -2.5611    0.1913   -0.7090 C.ar      1 <0>         0.1618
     23 C17        -2.6521    1.3277   -1.5118 C.ar      1 <0>        -0.1305
     24 C18        -3.9109    1.6745   -1.9733 C.ar      1 <0>        -0.0737
     25 C19        -5.0393    0.9368   -1.6616 C.ar      1 <0>        -0.1358
     26 C20        -4.9745   -0.1955   -0.8662 C.ar      1 <0>        -0.0503
     27 C21        -3.7147   -0.5596   -0.3919 C.ar      1 <0>        -0.1042
     28 C22        -3.2693   -1.6660    0.4845 C.ar      1 <0>        -0.0360
     29 C23        -3.9084   -2.7313    1.1102 C.ar      1 <0>        -0.0288
     30 C24        -3.1873   -3.6421    1.8754 C.ar      1 <0>        -0.1255
     31 C25        -4.1221   -4.6480    2.4030 C.2       1 <0>         0.5632
     32 O2         -3.8062   -5.5851    3.1110 O.2       1 <0>        -0.5106
     33 N3         -5.3744   -4.3851    1.9926 N.am      1 <0>        -0.7162
     34 C26        -5.3495   -3.1771    1.1601 C.3       1 <0>         0.1358
     35 N4         -0.3067   -2.7008   -1.0216 N.4       1 <0>        -0.5252
     36 C27         0.0145   -4.1336   -0.9773 C.3       1 <0>        -0.0497
     37 O3         -0.3340   -0.2979   -2.5607 O.3       1 <0>        -0.3614
     38 C28         0.3101   -0.0933   -3.8198 C.3       1 <0>         0.0162
     39 H4          0.8261    2.0094    0.0240 H         1 <0>         0.0984
     40 H5         -0.3202    1.8814   -1.3317 H         1 <0>         0.1036
     41 H6         -0.9255    1.9818    0.3392 H         1 <0>         0.0921
     42 H7          2.1370   -3.1081    0.0458 H         1 <0>         0.1233
     43 H8          2.7835   -1.4869   -0.3048 H         1 <0>         0.1455
     44 H9          2.6036   -3.5149    2.8368 H         1 <0>         0.1365
     45 H10         2.5026   -5.5304    4.2610 H         1 <0>         0.1359
     46 H11         0.4045   -6.6780    4.6980 H         1 <0>         0.1352
     47 H12        -1.7278   -5.8736    3.7323 H         1 <0>         0.1600
     48 H13        -1.7792    1.9122   -1.7624 H         1 <0>         0.1440
     49 H14        -4.0153    2.5500   -2.5970 H         1 <0>         0.1336
     50 H15        -5.9967    1.2527   -2.0488 H         1 <0>         0.1332
     51 H16        -5.8575   -0.7687   -0.6249 H         1 <0>         0.1415
     52 H17        -6.1628   -4.9065    2.2103 H         1 <0>         0.4348
     53 H18        -5.9671   -2.3994    1.6094 H         1 <0>         0.1115
     54 H19        -5.7060   -3.4063    0.1559 H         1 <0>         0.1103
     55 H20        -0.6958   -2.4158   -0.1353 H         1 <0>         0.4186
     56 H21         0.4349   -4.4415   -1.9347 H         1 <0>         0.1256
     57 H22         0.7403   -4.3189   -0.1854 H         1 <0>         0.1191
     58 H23        -0.8932   -4.7035   -0.7789 H         1 <0>         0.1256
     59 H24         0.9168    0.8112   -3.7748 H         1 <0>         0.0633
     60 H25         0.9482   -0.9479   -4.0446 H         1 <0>         0.0514
     61 H26        -0.4433    0.0130   -4.6003 H         1 <0>         0.1100
     62 H27        -0.9785   -2.5293   -1.7546 H         1 <0>         0.4274
@<TRIPOS>BOND
     1    1    2 1
     2    1   39 1
     3    1   40 1
     4    1   41 1
     5    2   10 1
     6    2   21 1
     7    2    3 1
     8    3    4 1
     9    3    5 1
    10    3   37 1
    11    5    6 1
    12    5    7 1
    13    5   35 1
    14    7    8 1
    15    7   42 1
    16    7   43 1
    17    8    9 1
    18    8   10 1
    19    8   11 1
    20   11   19 1
    21   11   12 1
    22   12   17 ar
    23   12   13 ar
    24   13   14 ar
    25   13   44 1
    26   14   15 ar
    27   14   45 1
    28   15   16 ar
    29   15   46 1
    30   16   17 ar
    31   16   47 1
    32   17   18 1
    33   18   30 ar
    34   18   19 ar
    35   19   20 ar
    36   20   28 ar
    37   20   21 1
    38   21   22 1
    39   22   27 ar
    40   22   23 ar
    41   23   24 ar
    42   23   48 1
    43   24   25 ar
    44   24   49 1
    45   25   26 ar
    46   25   50 1
    47   26   27 ar
    48   26   51 1
    49   27   28 1
    50   28   29 ar
    51   29   34 1
    52   29   30 ar
    53   30   31 1
    54   31   32 2
    55   31   33 am
    56   33   34 1
    57   33   52 1
    58   34   53 1
    59   34   54 1
    60   35   36 1
    61   35   55 1
    62   35   62 1
    63   36   56 1
    64   36   57 1
    65   36   58 1
    66   37   38 1
    67   38   59 1
    68   38   60 1
    69   38   61 1
@<TRIPOS>MOLECULE
ZINC12576047
   24    25     0     0     0
SMALL
USER_CHARGES
(5Z)-5-[[3-(trifluoromethyl)phenyl]methylene]thiazolidine-2,4-dione
@<TRIPOS>ATOM
      1 C1          0.4438    1.3547    1.0268 C.ar      1 <0>        -0.1200
      2 C2          0.3133    0.0035    0.7846 C.ar      1 <0>        -0.0462
      3 C3          1.3850   -0.7122    0.2399 C.ar      1 <0>        -0.0946
      4 C4          2.5817   -0.0493   -0.0546 C.ar      1 <0>        -0.0449
      5 C5          2.6959    1.3018    0.1936 C.ar      1 <0>        -0.1796
      6 C6          1.6307    2.0028    0.7327 C.ar      1 <0>        -0.0448
      7 C7          3.9836    2.0178   -0.1228 C.3       1 <0>         0.5071
      8 F1          3.9388    2.4999   -1.4353 F         1 <0>        -0.1716
      9 F2          4.1513    3.0885    0.7619 F         1 <0>        -0.1735
     10 F3          5.0561    1.1296    0.0114 F         1 <0>        -0.1720
     11 C8          1.2544   -2.1529   -0.0220 C.2       1 <0>         0.0722
     12 C9          2.2231   -2.8077   -0.7084 C.2       1 <0>        -0.2103
     13 C10         2.3968   -4.2571   -0.9424 C.2       1 <0>         0.5631
     14 O1          1.6124   -5.0750   -0.4994 O.2       1 <0>        -0.4660
     15 N1          3.4482   -4.6189   -1.6582 N.am      1 <0>        -0.6842
     16 C11         4.3147   -3.7090   -2.1476 C.2       1 <0>         0.5348
     17 O2          5.3132   -3.9000   -2.8154 O.2       1 <0>        -0.4120
     18 S1          3.6373   -2.1553   -1.5859 S.3       1 <0>        -0.0363
     19 H1         -0.3840    1.9096    1.4430 H         1 <0>         0.1469
     20 H2         -0.6137   -0.5008    1.0143 H         1 <0>         0.1469
     21 H3          3.4137   -0.5948   -0.4749 H         1 <0>         0.1465
     22 H4          1.7265    3.0612    0.9249 H         1 <0>         0.1450
     23 H5          0.3868   -2.6898    0.3323 H         1 <0>         0.1711
     24 H6          3.5997   -5.5605   -1.8351 H         1 <0>         0.4225
@<TRIPOS>BOND
     1    1    6 ar
     2    1    2 ar
     3    1   19 1
     4    2    3 ar
     5    2   20 1
     6    3    4 ar
     7    3   11 1
     8    4    5 ar
     9    4   21 1
    10    5    6 ar
    11    5    7 1
    12    6   22 1
    13    7    8 1
    14    7    9 1
    15    7   10 1
    16   11   12 2
    17   11   23 1
    18   12   18 1
    19   12   13 1
    20   13   14 2
    21   13   15 am
    22   15   16 am
    23   15   24 1
    24   16   17 2
    25   16   18 1
@<TRIPOS>MOLECULE
ZINC00009295
   33    37     0     0     0
SMALL
USER_CHARGES

@<TRIPOS>ATOM
      1 C1         -0.0165    1.3617    0.0018 C.ar      1 <0>        -0.1166
      2 C2          1.1670    2.0860    0.0184 C.ar      1 <0>        -0.1102
      3 C3          2.3845    1.4365    0.0139 C.ar      1 <0>        -0.0886
      4 C4          2.4235    0.0506   -0.0069 C.ar      1 <0>         0.0477
      5 C5          1.2253   -0.6845   -0.0233 C.ar      1 <0>         0.0671
      6 C6          0.0020   -0.0039   -0.0189 C.ar      1 <0>        -0.0707
      7 N1          1.5589   -1.9954   -0.0410 N.2       1 <0>        -0.4717
      8 C7          2.8671   -2.1252   -0.0368 C.2       1 <0>         0.3597
      9 N2          3.4512   -0.8811   -0.0157 N.am      1 <0>        -0.4750
     10 C8          4.7897   -0.7218   -0.0067 C.2       1 <0>         0.5811
     11 O1          5.2621    0.3982    0.0124 O.2       1 <0>        -0.4908
     12 C9          5.6842   -1.8884   -0.0191 C.ar      1 <0>        -0.1855
     13 C10         7.0648   -1.7546   -0.0097 C.ar      1 <0>        -0.0005
     14 C11         7.8775   -2.8821   -0.0216 C.ar      1 <0>        -0.1716
     15 C12         7.3478   -4.1414   -0.0427 C.ar      1 <0>        -0.0150
     16 C13         5.9572   -4.3167   -0.0532 C.ar      1 <0>        -0.0588
     17 C14         5.1192   -3.1838   -0.0409 C.ar      1 <0>         0.0057
     18 C15         3.7136   -3.3357   -0.0511 C.ar      1 <0>        -0.0918
     19 C16         3.1553   -4.6045   -0.0728 C.ar      1 <0>        -0.0099
     20 C17         3.9517   -5.7383   -0.0860 C.ar      1 <0>        -0.1235
     21 C18         5.3407   -5.6422   -0.0767 C.ar      1 <0>        -0.0496
     22 C19         6.1748   -6.8553   -0.0900 C.2       1 <0>         0.5213
     23 O2          5.6524   -7.9579    0.0012 O.co2     1 <0>        -0.6640
     24 O3          7.3903   -6.7609   -0.1924 O.co2     1 <0>        -0.6690
     25 H1         -0.9622    1.8832    0.0098 H         1 <0>         0.1325
     26 H2          1.1351    3.1654    0.0346 H         1 <0>         0.1328
     27 H3          3.3027    2.0049    0.0262 H         1 <0>         0.1327
     28 H4         -0.9253   -0.5575   -0.0313 H         1 <0>         0.1345
     29 H5          7.5099   -0.7707    0.0065 H         1 <0>         0.1371
     30 H6          8.9505   -2.7602   -0.0144 H         1 <0>         0.1360
     31 H7          8.0006   -5.0018   -0.0516 H         1 <0>         0.1874
     32 H8          2.0806   -4.7111   -0.0791 H         1 <0>         0.1408
     33 H9          3.4871   -6.7131   -0.1025 H         1 <0>         0.1466
@<TRIPOS>BOND
     1    1    6 ar
     2    1    2 ar
     3    1   25 1
     4    2    3 ar
     5    2   26 1
     6    3    4 ar
     7    3   27 1
     8    4    9 1
     9    4    5 ar
    10    5    6 ar
    11    5    7 1
    12    6   28 1
    13    7    8 2
    14    8   18 1
    15    8    9 1
    16    9   10 am
    17   10   11 2
    18   10   12 1
    19   12   17 ar
    20   12   13 ar
    21   13   14 ar
    22   13   29 1
    23   14   15 ar
    24   14   30 1
    25   15   16 ar
    26   15   31 1
    27   16   21 ar
    28   16   17 ar
    29   17   18 ar
    30   18   19 ar
    31   19   20 ar
    32   19   32 1
    33   20   21 ar
    34   20   33 1
    35   21   22 1
    36   22   23 2
    37   22   24 1
@<TRIPOS>MOLECULE
ZINC21288966
   49    52     0     0     0
SMALL
USER_CHARGES
2-(2-chlorophenyl)-5,7-dihydroxy-8-[(3S,4R)-3-hydroxy-1-methyl-4-piperidyl]chromen-4-one
@<TRIPOS>ATOM
      1 C1          6.0895   -0.0238    5.9621 C.3       1 <0>        -0.0460
      2 N1          6.1756    1.0472    4.9603 N.4       1 <0>        -0.3934
      3 C2          5.9739    0.5180    3.6055 C.3       1 <0>        -0.0028
      4 C3          6.2126    1.6289    2.5802 C.3       1 <0>        -0.1464
      5 C4          5.2418    2.7821    2.8491 C.3       1 <0>        -0.0180
      6 H1          4.2050    2.4431    2.7074 H         1 <0>         0.1039
      7 C5          5.4391    3.2830    4.2825 C.3       1 <0>         0.1015
      8 H2          4.7709    4.1271    4.5084 H         1 <0>         0.0941
      9 C6          5.2218    2.1236    5.2574 C.3       1 <0>        -0.0361
     10 O1          6.7669    3.7898    4.4323 O.3       1 <0>        -0.5639
     11 C7          5.5132    3.9050    1.8814 C.ar      1 <0>        -0.2158
     12 C8          6.8017    4.3949    1.7322 C.ar      1 <0>         0.2946
     13 C9          7.0678    5.4304    0.8434 C.ar      1 <0>        -0.3049
     14 C10         6.0448    5.9841    0.0956 C.ar      1 <0>         0.3111
     15 C11         4.7411    5.4942    0.2412 C.ar      1 <0>        -0.3649
     16 C12         4.4748    4.4470    1.1407 C.ar      1 <0>         0.2362
     17 O2          3.2147    3.9814    1.2730 O.3       1 <0>        -0.2171
     18 C13         2.1871    4.4838    0.5705 C.2       1 <0>         0.1982
     19 C14         2.3394    5.4926   -0.3277 C.2       1 <0>        -0.2780
     20 C15         3.6225    6.0546   -0.5353 C.2       1 <0>         0.4382
     21 O3          3.7953    6.9641   -1.3304 O.2       1 <0>        -0.4786
     22 C16         0.8407    3.9147    0.7769 C.ar      1 <0>        -0.0680
     23 C17         0.6478    2.5322    0.7263 C.ar      1 <0>        -0.0708
     24 C18        -0.6124    2.0073    0.9205 C.ar      1 <0>        -0.1159
     25 C19        -1.6867    2.8467    1.1599 C.ar      1 <0>        -0.0780
     26 C20        -1.5036    4.2164    1.2169 C.ar      1 <0>        -0.1066
     27 C21        -0.2472    4.7566    1.0243 C.ar      1 <0>        -0.0057
     28 Cl1        -0.0199    6.4765    1.0889 Cl        1 <0>        -0.0424
     29 O4          6.3024    6.9947   -0.7728 O.3       1 <0>        -0.4999
     30 O5          7.8133    3.8585    2.4614 O.3       1 <0>        -0.4665
     31 H3          6.8128   -0.8151    5.7159 H         1 <0>         0.1242
     32 H4          5.0728   -0.4438    5.9634 H         1 <0>         0.1169
     33 H5          6.3184    0.3856    6.9571 H         1 <0>         0.1225
     34 H6          6.6809   -0.3050    3.4243 H         1 <0>         0.1308
     35 H7          4.9438    0.1448    3.5072 H         1 <0>         0.1211
     36 H8          7.2477    1.9910    2.6662 H         1 <0>         0.1216
     37 H9          6.0450    1.2349    1.5669 H         1 <0>         0.1057
     38 H10         4.1951    1.7434    5.1512 H         1 <0>         0.1298
     39 H11         5.3771    2.4772    6.2874 H         1 <0>         0.1312
     40 H12         7.0946    4.1958    5.4007 H         1 <0>         0.4106
     41 H13         8.0758    5.8030    0.7365 H         1 <0>         0.1471
     42 H14         1.4871    5.8659   -0.8759 H         1 <0>         0.1670
     43 H15         1.4839    1.8757    0.5352 H         1 <0>         0.1384
     44 H16        -0.7625    0.9385    0.8812 H         1 <0>         0.1407
     45 H17        -2.6721    2.4298    1.3071 H         1 <0>         0.1438
     46 H18        -2.3456    4.8651    1.4082 H         1 <0>         0.1476
     47 H19         5.4855    7.4321   -1.3656 H         1 <0>         0.4556
     48 H20         8.8375    4.2431    2.3473 H         1 <0>         0.4397
     49 H21         7.1882    1.4744    5.0059 H         1 <0>         0.4481
@<TRIPOS>BOND
     1    1    2 1
     2    1   31 1
     3    1   32 1
     4    1   33 1
     5    2    9 1
     6    2    3 1
     7    2   49 1
     8    3    4 1
     9    3   34 1
    10    3   35 1
    11    4    5 1
    12    4   36 1
    13    4   37 1
    14    5    6 1
    15    5    7 1
    16    5   11 1
    17    7    8 1
    18    7    9 1
    19    7   10 1
    20    9   38 1
    21    9   39 1
    22   10   40 1
    23   11   16 ar
    24   11   12 ar
    25   12   13 ar
    26   12   30 1
    27   13   14 ar
    28   13   41 1
    29   14   15 ar
    30   14   29 1
    31   15   20 1
    32   15   16 ar
    33   16   17 1
    34   17   18 1
    35   18   19 2
    36   18   22 1
    37   19   20 1
    38   19   42 1
    39   20   21 2
    40   22   27 ar
    41   22   23 ar
    42   23   24 ar
    43   23   43 1
    44   24   25 ar
    45   24   44 1
    46   25   26 ar
    47   25   45 1
    48   26   27 ar
    49   26   46 1
    50   27   28 1
    51   29   47 1
    52   30   48 1
@<TRIPOS>MOLECULE
ZINC12576721
   24    25     0     0     0
SMALL
USER_CHARGES
(5Z)-5-[[4-(trifluoromethyl)phenyl]methylene]thiazolidine-2,4-dione
@<TRIPOS>ATOM
      1 C1         -0.6105    2.7873    3.4816 C.ar      1 <0>        -0.0915
      2 C2          0.0390    2.2926    2.3706 C.ar      1 <0>        -0.0650
      3 C3         -0.6860    1.7352    1.3315 C.ar      1 <0>        -0.1604
      4 C4         -2.0673    1.6741    1.3960 C.ar      1 <0>        -0.0717
      5 C5         -2.7316    2.1595    2.5022 C.ar      1 <0>        -0.0794
      6 C6         -2.0063    2.7246    3.5570 C.ar      1 <0>        -0.0614
      7 C7         -2.7069    3.2492    4.7382 C.2       1 <0>         0.0645
      8 C8         -2.0226    3.9468    5.6780 C.2       1 <0>        -0.2023
      9 C9         -2.4698    4.4376    6.9989 C.2       1 <0>         0.5618
     10 O1         -3.6002    4.2427    7.4045 O.2       1 <0>        -0.4645
     11 N1         -1.5766    5.0956    7.7188 N.am      1 <0>        -0.6848
     12 C10        -0.3268    5.3151    7.2625 C.2       1 <0>         0.5311
     13 O2          0.5851    5.9034    7.8117 O.2       1 <0>        -0.4130
     14 S1         -0.3339    4.5329    5.6574 S.3       1 <0>        -0.0293
     15 C11         0.0322    1.1974    0.1207 C.3       1 <0>         0.5069
     16 F1          0.3392   -0.1526    0.3220 F         1 <0>        -0.1727
     17 F2          1.2137    1.9194   -0.0796 F         1 <0>        -0.1735
     18 F3         -0.7894    1.3262   -1.0042 F         1 <0>        -0.1737
     19 H1         -0.0434    3.2216    4.2917 H         1 <0>         0.1441
     20 H2          1.1163    2.3399    2.3110 H         1 <0>         0.1466
     21 H3         -2.6259    1.2414    0.5792 H         1 <0>         0.1465
     22 H4         -3.8092    2.1074    2.5528 H         1 <0>         0.1489
     23 H5         -3.7668    3.0789    4.8572 H         1 <0>         0.1705
     24 H6         -1.8276    5.4318    8.5933 H         1 <0>         0.4223
@<TRIPOS>BOND
     1    1    6 ar
     2    1    2 ar
     3    1   19 1
     4    2    3 ar
     5    2   20 1
     6    3    4 ar
     7    3   15 1
     8    4    5 ar
     9    4   21 1
    10    5    6 ar
    11    5   22 1
    12    6    7 1
    13    7    8 2
    14    7   23 1
    15    8   14 1
    16    8    9 1
    17    9   10 2
    18    9   11 am
    19   11   12 am
    20   11   24 1
    21   12   13 2
    22   12   14 1
    23   15   16 1
    24   15   17 1
    25   15   18 1
@<TRIPOS>MOLECULE
ZINC12409475
   24    25     0     0     0
SMALL
USER_CHARGES
(5Z)-5-(p-tolylmethylene)thiazolidine-2,4-dione
@<TRIPOS>ATOM
      1 C1         -0.3226   -6.3577    0.3535 C.3       1 <0>        -0.1234
      2 C2          0.4187   -5.0494    0.2532 C.ar      1 <0>        -0.0546
      3 C3          1.8028   -5.0413    0.2477 C.ar      1 <0>        -0.1259
      4 C4          2.4885   -3.8487    0.1563 C.ar      1 <0>        -0.0712
      5 C5          1.7814   -2.6445    0.0685 C.ar      1 <0>        -0.1072
      6 C6          0.3823   -2.6611    0.0796 C.ar      1 <0>        -0.0801
      7 C7         -0.2884   -3.8626    0.1667 C.ar      1 <0>        -0.1204
      8 C8          2.5045   -1.3682   -0.0288 C.2       1 <0>         0.0805
      9 C9          1.8263   -0.2226   -0.2851 C.2       1 <0>        -0.2213
     10 C10         2.3031    1.1768   -0.2775 C.2       1 <0>         0.5624
     11 O1          3.4577    1.4577   -0.0160 O.2       1 <0>        -0.4710
     12 N1          1.4101    2.1076   -0.5692 N.am      1 <0>        -0.6854
     13 C11         0.1314    1.7917   -0.8581 C.2       1 <0>         0.5278
     14 O2         -0.7844    2.5387   -1.1456 O.2       1 <0>        -0.4194
     15 S1          0.1093    0.0114   -0.7244 S.3       1 <0>        -0.0303
     16 H1         -0.4977   -6.5966    1.4025 H         1 <0>         0.0777
     17 H2         -1.2780   -6.2745   -0.1646 H         1 <0>         0.0718
     18 H3          0.2717   -7.1481   -0.1049 H         1 <0>         0.0717
     19 H4          2.3471   -5.9716    0.3155 H         1 <0>         0.1320
     20 H5          3.5685   -3.8440    0.1521 H         1 <0>         0.1353
     21 H6         -0.1708   -1.7356    0.0167 H         1 <0>         0.1343
     22 H7         -1.3682   -3.8774    0.1717 H         1 <0>         0.1323
     23 H8          3.5760   -1.3432    0.1038 H         1 <0>         0.1643
     24 H9          1.6813    3.0389   -0.5759 H         1 <0>         0.4201
@<TRIPOS>BOND
     1    1    2 1
     2    1   16 1
     3    1   17 1
     4    1   18 1
     5    2    7 ar
     6    2    3 ar
     7    3    4 ar
     8    3   19 1
     9    4    5 ar
    10    4   20 1
    11    5    6 ar
    12    5    8 1
    13    6    7 ar
    14    6   21 1
    15    7   22 1
    16    8    9 2
    17    8   23 1
    18    9   15 1
    19    9   10 1
    20   10   11 2
    21   10   12 am
    22   12   13 am
    23   12   24 1
    24   13   14 2
    25   13   15 1
@<TRIPOS>MOLECULE
ZINC12407294
   21    22     0     0     0
SMALL
USER_CHARGES
(5Z)-5-[(3-fluorophenyl)methylene]thiazolidine-2,4-dione
@<TRIPOS>ATOM
      1 C1         -1.3044    3.7324    0.2455 C.ar      1 <0>        -0.0855
      2 C2         -0.0779    4.3109   -0.0050 C.ar      1 <0>        -0.0999
      3 C3          1.0962    3.5999    0.2661 C.ar      1 <0>        -0.0667
      4 C4          1.0164    2.3051    0.7902 C.ar      1 <0>        -0.1155
      5 C5         -0.2190    1.7393    1.0356 C.ar      1 <0>         0.0996
      6 C6         -1.3772    2.4495    0.7584 C.ar      1 <0>        -0.1274
      7 F1         -0.2995    0.4892    1.5416 F         1 <0>        -0.1323
      8 C7          2.4072    4.2102    0.0012 C.2       1 <0>         0.0726
      9 C8          2.4845    5.3874   -0.6667 C.2       1 <0>        -0.2090
     10 C9          3.6514    6.2653   -0.8977 C.2       1 <0>         0.5620
     11 O1          4.7558    5.9870   -0.4696 O.2       1 <0>        -0.4666
     12 N1          3.4333    7.3683   -1.5940 N.am      1 <0>        -0.6850
     13 C10         2.2076    7.6727   -2.0666 C.2       1 <0>         0.5303
     14 O2          1.8682    8.6442   -2.7149 O.2       1 <0>        -0.4155
     15 S1          1.2049    6.3013   -1.5171 S.3       1 <0>        -0.0286
     16 H1         -2.2110    4.2808    0.0364 H         1 <0>         0.1443
     17 H2         -0.0238    5.3106   -0.4099 H         1 <0>         0.1408
     18 H3          1.9182    1.7498    1.0018 H         1 <0>         0.1482
     19 H4         -2.3410    2.0005    0.9477 H         1 <0>         0.1442
     20 H5          3.3088    3.7206    0.3387 H         1 <0>         0.1682
     21 H6          4.1720    7.9723   -1.7684 H         1 <0>         0.4216
@<TRIPOS>BOND
     1    1    6 ar
     2    1    2 ar
     3    1   16 1
     4    2    3 ar
     5    2   17 1
     6    3    4 ar
     7    3    8 1
     8    4    5 ar
     9    4   18 1
    10    5    6 ar
    11    5    7 1
    12    6   19 1
    13    8    9 2
    14    8   20 1
    15    9   15 1
    16    9   10 1
    17   10   11 2
    18   10   12 am
    19   12   13 am
    20   12   21 1
    21   13   14 2
    22   13   15 1
@<TRIPOS>MOLECULE
ZINC40394908
   26    28     0     0     0
SMALL
USER_CHARGES

@<TRIPOS>ATOM
      1 C1         -0.0187    1.5258    0.0104 C.3       1 <0>        -0.1725
      2 C2          0.0021   -0.0041    0.0020 C.3       1 <0>         0.0983
      3 N1         -1.3723   -0.5112    0.0124 N.pl3     1 <0>        -0.4904
      4 C3         -1.9989   -0.7469    1.2217 C.ar      1 <0>         0.2323
      5 C4         -1.3205   -0.5016    2.4122 C.ar      1 <0>        -0.1557
      6 C5         -1.9400   -0.7343    3.6220 C.ar      1 <0>        -0.0164
      7 C6         -3.2448   -1.2154    3.6684 C.ar      1 <0>         0.0519
      8 C7         -3.9341   -1.4653    2.5031 C.ar      1 <0>        -0.0469
      9 C8         -3.3175   -1.2326    1.2669 C.ar      1 <0>        -0.1215
     10 C9         -4.0427   -1.4949    0.0189 C.2       1 <0>         0.3978
     11 O1         -5.3088   -1.9606    0.0421 O.3       1 <0>        -0.5962
     12 C10        -3.3962   -1.2522   -1.1895 C.2       1 <0>        -0.4947
     13 C11        -2.0185   -0.7389   -1.1847 C.2       1 <0>         0.3641
     14 N2         -1.6588   -0.5947   -2.4326 N.2       1 <0>        -0.3802
     15 O2         -2.7186   -0.9773   -3.2848 O.3       1 <0>        -0.1731
     16 C12        -3.7685   -1.3841   -2.5484 C.2       1 <0>         0.5030
     17 O3         -4.8412   -1.7779   -2.9711 O.2       1 <0>        -0.5127
     18 F1         -3.8375   -1.4387    4.8618 F         1 <0>        -0.1307
     19 Cl1        -1.0841   -0.4248    5.1004 Cl        1 <0>        -0.0513
     20 H1          1.0039    1.9031    0.0027 H         1 <0>         0.0725
     21 H2         -0.5459    1.8868   -0.8726 H         1 <0>         0.0663
     22 H3         -0.5289    1.8773    0.9072 H         1 <0>         0.0607
     23 H4          0.5123   -0.3556   -0.8948 H         1 <0>         0.0949
     24 H5          0.5293   -0.3651    0.8851 H         1 <0>         0.0884
     25 H6         -0.3072   -0.1288    2.3883 H         1 <0>         0.1516
     26 H7         -4.9465   -1.8394    2.5418 H         1 <0>         0.1606
@<TRIPOS>BOND
     1    1    2 1
     2    1   20 1
     3    1   21 1
     4    1   22 1
     5    2    3 1
     6    2   23 1
     7    2   24 1
     8    3   13 1
     9    3    4 1
    10    4    9 ar
    11    4    5 ar
    12    5    6 ar
    13    5   25 1
    14    6    7 ar
    15    6   19 1
    16    7    8 ar
    17    7   18 1
    18    8    9 ar
    19    8   26 1
    20    9   10 1
    21   10   11 1
    22   10   12 2
    23   12   16 1
    24   12   13 1
    25   13   14 2
    26   14   15 1
    27   15   16 1
    28   16   17 2
@<TRIPOS>MOLECULE
ZINC40428662
   33    36     0     0     0
SMALL
USER_CHARGES

@<TRIPOS>ATOM
      1 C1         -0.0167    1.3781    0.0096 C.ar      1 <0>        -0.1141
      2 C2          1.1709    2.0855    0.0021 C.ar      1 <0>        -0.1248
      3 C3          2.3773    1.4107   -0.0130 C.ar      1 <0>        -0.1041
      4 C4          2.3960    0.0285   -0.0201 C.ar      1 <0>        -0.1148
      5 C5          1.2084   -0.6789   -0.0117 C.ar      1 <0>        -0.0878
      6 C6          0.0021   -0.0041    0.0020 C.ar      1 <0>        -0.1228
      7 C7          3.7112   -0.7071   -0.0376 C.3       1 <0>         0.1426
      8 N1          4.1518   -0.9524    1.3379 N.pl3     1 <0>        -0.4851
      9 C8          4.9390   -0.0121    1.9755 C.ar      1 <0>         0.2342
     10 C9          5.3040    1.1532    1.3071 C.ar      1 <0>        -0.1589
     11 C10         6.0888    2.0955    1.9377 C.ar      1 <0>        -0.0159
     12 C11         6.5246    1.8948    3.2438 C.ar      1 <0>         0.0531
     13 C12         6.1757    0.7493    3.9233 C.ar      1 <0>        -0.0469
     14 C13         5.3781   -0.2162    3.2954 C.ar      1 <0>        -0.1195
     15 C14         5.0000   -1.4402    4.0102 C.2       1 <0>         0.3979
     16 O1          5.4113   -1.6536    5.2774 O.3       1 <0>        -0.5959
     17 C15         4.2073   -2.3763    3.3526 C.2       1 <0>        -0.4935
     18 C16         3.7685   -2.1147    1.9740 C.2       1 <0>         0.3665
     19 N2          3.0412   -3.1349    1.6031 N.2       1 <0>        -0.3798
     20 O2          2.9577   -4.0729    2.6561 O.3       1 <0>        -0.1727
     21 C17         3.6635   -3.6321    3.7133 C.2       1 <0>         0.5034
     22 O3          3.7974   -4.1997    4.7830 O.2       1 <0>        -0.5127
     23 F1          7.2933    2.8274    3.8474 F         1 <0>        -0.1303
     24 Cl1         6.5377    3.5449    1.0942 Cl        1 <0>        -0.0507
     25 H1         -0.9591    1.9053    0.0259 H         1 <0>         0.1200
     26 H2          1.1563    3.1654    0.0076 H         1 <0>         0.1216
     27 H3          3.3051    1.9634   -0.0196 H         1 <0>         0.1225
     28 H4          1.2231   -1.7588   -0.0176 H         1 <0>         0.1318
     29 H5         -0.9258   -0.5567    0.0082 H         1 <0>         0.1226
     30 H6          3.5884   -1.6586   -0.5549 H         1 <0>         0.1048
     31 H7          4.4573   -0.1052   -0.5563 H         1 <0>         0.0974
     32 H8          4.9722    1.3193    0.2929 H         1 <0>         0.1508
     33 H9          6.5158    0.5955    4.9368 H         1 <0>         0.1609
@<TRIPOS>BOND
     1    1    6 ar
     2    1    2 ar
     3    1   25 1
     4    2    3 ar
     5    2   26 1
     6    3    4 ar
     7    3   27 1
     8    4    5 ar
     9    4    7 1
    10    5    6 ar
    11    5   28 1
    12    6   29 1
    13    7    8 1
    14    7   30 1
    15    7   31 1
    16    8   18 1
    17    8    9 1
    18    9   14 ar
    19    9   10 ar
    20   10   11 ar
    21   10   32 1
    22   11   12 ar
    23   11   24 1
    24   12   13 ar
    25   12   23 1
    26   13   14 ar
    27   13   33 1
    28   14   15 1
    29   15   16 1
    30   15   17 2
    31   17   21 1
    32   17   18 1
    33   18   19 2
    34   19   20 1
    35   20   21 1
    36   21   22 2
@<TRIPOS>MOLECULE
ZINC12341773
   27    28     0     0     0
SMALL
USER_CHARGES
(5Z)-5-[(4-ethylphenyl)methylene]thiazolidine-2,4-dione
@<TRIPOS>ATOM
      1 C1         -0.5684   -6.6931    1.8259 C.3       1 <0>        -0.1485
      2 C2         -0.3226   -6.3577    0.3535 C.3       1 <0>        -0.0925
      3 C3          0.4187   -5.0494    0.2532 C.ar      1 <0>        -0.0507
      4 C4          1.8028   -5.0413    0.2477 C.ar      1 <0>        -0.1228
      5 C5          2.4885   -3.8487    0.1563 C.ar      1 <0>        -0.0720
      6 C6          1.7814   -2.6445    0.0685 C.ar      1 <0>        -0.1058
      7 C7          0.3823   -2.6611    0.0796 C.ar      1 <0>        -0.0808
      8 C8         -0.2884   -3.8626    0.1667 C.ar      1 <0>        -0.1172
      9 C9          2.5045   -1.3682   -0.0288 C.2       1 <0>         0.0803
     10 C10         1.8263   -0.2226   -0.2851 C.2       1 <0>        -0.2211
     11 C11         2.3031    1.1768   -0.2775 C.2       1 <0>         0.5624
     12 O1          3.4577    1.4577   -0.0160 O.2       1 <0>        -0.4710
     13 N1          1.4101    2.1076   -0.5692 N.am      1 <0>        -0.6854
     14 C12         0.1314    1.7917   -0.8581 C.2       1 <0>         0.5277
     15 O2         -0.7844    2.5387   -1.1456 O.2       1 <0>        -0.4193
     16 S1          0.1093    0.0114   -0.7244 S.3       1 <0>        -0.0301
     17 H1         -1.1045   -7.6393    1.8984 H         1 <0>         0.0619
     18 H2          0.3870   -6.7762    2.3440 H         1 <0>         0.0572
     19 H3         -1.1627   -5.9027    2.2843 H         1 <0>         0.0574
     20 H4         -1.2780   -6.2745   -0.1646 H         1 <0>         0.0769
     21 H5          0.2717   -7.1481   -0.1049 H         1 <0>         0.0768
     22 H6          2.3471   -5.9716    0.3155 H         1 <0>         0.1314
     23 H7          3.5685   -3.8440    0.1521 H         1 <0>         0.1351
     24 H8         -0.1708   -1.7356    0.0167 H         1 <0>         0.1342
     25 H9         -1.3682   -3.8774    0.1717 H         1 <0>         0.1317
     26 H10         3.5760   -1.3432    0.1038 H         1 <0>         0.1642
     27 H11         1.6813    3.0389   -0.5759 H         1 <0>         0.4201
@<TRIPOS>BOND
     1    1    2 1
     2    1   17 1
     3    1   18 1
     4    1   19 1
     5    2    3 1
     6    2   20 1
     7    2   21 1
     8    3    8 ar
     9    3    4 ar
    10    4    5 ar
    11    4   22 1
    12    5    6 ar
    13    5   23 1
    14    6    7 ar
    15    6    9 1
    16    7    8 ar
    17    7   24 1
    18    8   25 1
    19    9   10 2
    20    9   26 1
    21   10   16 1
    22   10   11 1
    23   11   12 2
    24   11   13 am
    25   13   14 am
    26   13   27 1
    27   14   15 2
    28   14   16 1
@<TRIPOS>MOLECULE
ZINC12403083
   29    30     0     0     0
SMALL
USER_CHARGES
(5Z)-5-[(4-dimethylaminophenyl)methylene]thiazolidine-2,4-dione
@<TRIPOS>ATOM
      1 C1         -0.8698    4.1381    1.1948 C.3       1 <0>         0.0852
      2 N1          0.4438    3.6038    0.8271 N.pl3     1 <0>        -0.6278
      3 C2          1.5821    4.5104    0.6579 C.3       1 <0>         0.0829
      4 C3          0.6103    2.2348    0.6386 C.ar      1 <0>         0.2461
      5 C4         -0.4983    1.3927    0.6507 C.ar      1 <0>        -0.2023
      6 C5         -0.3392    0.0436    0.4650 C.ar      1 <0>        -0.0328
      7 C6          0.9414   -0.4871    0.2629 C.ar      1 <0>        -0.1702
      8 C7          2.0540    0.3642    0.2516 C.ar      1 <0>        -0.0227
      9 C8          1.8851    1.7119    0.4382 C.ar      1 <0>        -0.2083
     10 C9          1.1171   -1.9307    0.0641 C.2       1 <0>         0.1023
     11 C10         0.0954   -2.6775   -0.4277 C.2       1 <0>        -0.2395
     12 C11        -0.0095   -4.1412   -0.5842 C.2       1 <0>         0.5616
     13 O1          0.8957   -4.8856   -0.2555 O.2       1 <0>        -0.4766
     14 N2         -1.1380   -4.6036   -1.0955 N.am      1 <0>        -0.6857
     15 C12        -2.1358   -3.7747   -1.4646 C.2       1 <0>         0.5397
     16 O2         -3.2147   -4.0598   -1.9485 O.2       1 <0>        -0.4215
     17 S1         -1.4893   -2.1575   -1.0711 S.3       1 <0>        -0.0415
     18 H1         -0.9613    4.1622    2.2807 H         1 <0>         0.0547
     19 H2         -0.9750    5.1482    0.7988 H         1 <0>         0.0712
     20 H3         -1.6505    3.5015    0.7784 H         1 <0>         0.0737
     21 H4          2.4403    3.9505    0.2862 H         1 <0>         0.0807
     22 H5          1.3212    5.2918   -0.0559 H         1 <0>         0.0622
     23 H6          1.8316    4.9633    1.6174 H         1 <0>         0.0576
     24 H7         -1.4857    1.8033    0.8021 H         1 <0>         0.1313
     25 H8         -1.1997   -0.6089    0.4748 H         1 <0>         0.1362
     26 H9          3.0432   -0.0406    0.0965 H         1 <0>         0.1327
     27 H10         2.7421    2.3690    0.4293 H         1 <0>         0.1320
     28 H11         2.0590   -2.3989    0.3091 H         1 <0>         0.1593
     29 H12        -1.2490   -5.5602   -1.2114 H         1 <0>         0.4196
@<TRIPOS>BOND
     1    1    2 1
     2    1   18 1
     3    1   19 1
     4    1   20 1
     5    2    3 1
     6    2    4 1
     7    3   21 1
     8    3   22 1
     9    3   23 1
    10    4    9 ar
    11    4    5 ar
    12    5    6 ar
    13    5   24 1
    14    6    7 ar
    15    6   25 1
    16    7    8 ar
    17    7   10 1
    18    8    9 ar
    19    8   26 1
    20    9   27 1
    21   10   11 2
    22   10   28 1
    23   11   17 1
    24   11   12 1
    25   12   13 2
    26   12   14 am
    27   14   15 am
    28   14   29 1
    29   15   16 2
    30   15   17 1
@<TRIPOS>MOLECULE
ZINC12408977
   21    22     0     0     0
SMALL
USER_CHARGES
(5Z)-5-[(3-chlorophenyl)methylene]thiazolidine-2,4-dione
@<TRIPOS>ATOM
      1 C1          0.7365    1.7919    1.0262 C.ar      1 <0>        -0.1084
      2 C2          0.8717    3.1447    0.7958 C.ar      1 <0>        -0.0735
      3 C3         -0.2047    3.8740    0.2792 C.ar      1 <0>        -0.0838
      4 C4         -1.4116    3.2231    0.0001 C.ar      1 <0>        -0.0838
      5 C5         -1.5294    1.8681    0.2316 C.ar      1 <0>        -0.0349
      6 C6         -0.4600    1.1548    0.7484 C.ar      1 <0>        -0.0839
      7 Cl1        -3.0232    1.0563   -0.1196 Cl        1 <0>        -0.0541
      8 C7         -0.0688    5.3167    0.0313 C.2       1 <0>         0.0740
      9 C8         -1.0452    5.9859   -0.6296 C.2       1 <0>        -0.2123
     10 C9         -1.2128    7.4391   -0.8439 C.2       1 <0>         0.5627
     11 O1         -0.4149    8.2465   -0.4059 O.2       1 <0>        -0.4673
     12 N1         -2.2743    7.8163   -1.5366 N.am      1 <0>        -0.6848
     13 C10        -3.1561    6.9181   -2.0202 C.2       1 <0>         0.5316
     14 O2         -4.1654    7.1236   -2.6671 O.2       1 <0>        -0.4147
     15 S1         -2.4799    5.3535   -1.4883 S.3       1 <0>        -0.0309
     16 H1          1.5669    1.2281    1.4250 H         1 <0>         0.1433
     17 H2          1.8064    3.6401    1.0134 H         1 <0>         0.1427
     18 H3         -2.2471    3.7791   -0.3988 H         1 <0>         0.1452
     19 H4         -0.5592    0.0950    0.9311 H         1 <0>         0.1420
     20 H5          0.8090    5.8434    0.3756 H         1 <0>         0.1694
     21 H6         -2.4222    8.7609   -1.7002 H         1 <0>         0.4216
@<TRIPOS>BOND
     1    1    6 ar
     2    1    2 ar
     3    1   16 1
     4    2    3 ar
     5    2   17 1
     6    3    4 ar
     7    3    8 1
     8    4    5 ar
     9    4   18 1
    10    5    6 ar
    11    5    7 1
    12    6   19 1
    13    8    9 2
    14    8   20 1
    15    9   15 1
    16    9   10 1
    17   10   11 2
    18   10   12 am
    19   12   13 am
    20   12   21 1
    21   13   14 2
    22   13   15 1
@<TRIPOS>MOLECULE
ZINC12428618
   21    22     0     0     0
SMALL
USER_CHARGES
(5Z)-5-[(3-bromophenyl)methylene]thiazolidine-2,4-dione
@<TRIPOS>ATOM
      1 C1          0.7368    1.7915    1.0262 C.ar      1 <0>        -0.1148
      2 C2          0.8719    3.1444    0.7963 C.ar      1 <0>        -0.0629
      3 C3         -0.2048    3.8737    0.2802 C.ar      1 <0>        -0.0903
      4 C4         -1.4116    3.2227    0.0011 C.ar      1 <0>        -0.0639
      5 C5         -1.5290    1.8678    0.2317 C.ar      1 <0>        -0.0917
      6 C6         -0.4598    1.1545    0.7483 C.ar      1 <0>        -0.0645
      7 Br1        -3.1559    0.9833   -0.1516 Br        1 <0>        -0.0334
      8 C7         -0.0691    5.3165    0.0327 C.2       1 <0>         0.0741
      9 C8         -1.0458    5.9858   -0.6278 C.2       1 <0>        -0.2129
     10 C9         -1.2137    7.4390   -0.8416 C.2       1 <0>         0.5628
     11 O1         -0.4156    8.2463   -0.4038 O.2       1 <0>        -0.4673
     12 N1         -2.2756    7.8163   -1.5335 N.am      1 <0>        -0.6847
     13 C10        -3.1574    6.9181   -2.0172 C.2       1 <0>         0.5321
     14 O2         -4.1667    7.1237   -2.6641 O.2       1 <0>        -0.4143
     15 S1         -2.4805    5.3534   -1.4864 S.3       1 <0>        -0.0319
     16 H1          1.5672    1.2275    1.4246 H         1 <0>         0.1431
     17 H2          1.8066    3.6398    1.0139 H         1 <0>         0.1431
     18 H3         -2.2473    3.7786   -0.3975 H         1 <0>         0.1450
     19 H4         -0.5591    0.0947    0.9309 H         1 <0>         0.1414
     20 H5          0.8086    5.8432    0.3771 H         1 <0>         0.1692
     21 H6         -2.4239    8.7610   -1.6965 H         1 <0>         0.4217
@<TRIPOS>BOND
     1    1    6 ar
     2    1    2 ar
     3    1   16 1
     4    2    3 ar
     5    2   17 1
     6    3    4 ar
     7    3    8 1
     8    4    5 ar
     9    4   18 1
    10    5    6 ar
    11    5    7 1
    12    6   19 1
    13    8    9 2
    14    8   20 1
    15    9   15 1
    16    9   10 1
    17   10   11 2
    18   10   12 am
    19   12   13 am
    20   12   21 1
    21   13   14 2
    22   13   15 1
@<TRIPOS>MOLECULE
ZINC12341826
   25    26     0     0     0
SMALL
USER_CHARGES
(5Z)-5-[(3-methoxyphenyl)methylene]thiazolidine-2,4-dione
@<TRIPOS>ATOM
      1 C1          0.3206    1.0849    0.2218 C.3       1 <0>         0.0245
      2 O1         -0.2791    1.5706    1.4245 O.3       1 <0>        -0.3125
      3 C2         -0.6330    2.8825    1.4514 C.ar      1 <0>         0.1319
      4 C3         -0.4066    3.6852    0.3404 C.ar      1 <0>        -0.1834
      5 C4         -0.7636    5.0212    0.3602 C.ar      1 <0>        -0.0813
      6 C5         -1.3480    5.5674    1.4837 C.ar      1 <0>        -0.1151
      7 C6         -1.5810    4.7679    2.6081 C.ar      1 <0>        -0.0577
      8 C7         -1.2236    3.4159    2.5832 C.ar      1 <0>        -0.1230
      9 C8         -2.2037    5.3451    3.8084 C.2       1 <0>         0.0740
     10 C9         -2.2725    4.6199    4.9518 C.2       1 <0>        -0.2127
     11 C10        -2.9735    4.9210    6.2182 C.2       1 <0>         0.5627
     12 O2         -3.6147    5.9443    6.3667 O.2       1 <0>        -0.4691
     13 N1         -2.8681    4.0207    7.1812 N.am      1 <0>        -0.6855
     14 C11        -2.1568    2.8877    7.0121 C.2       1 <0>         0.5259
     15 O3         -1.9778    1.9831    7.8052 O.2       1 <0>        -0.4181
     16 S1         -1.5470    3.0329    5.3402 S.3       1 <0>        -0.0217
     17 H1          0.5537    0.0260    0.3339 H         1 <0>         0.1047
     18 H2          1.2376    1.6398    0.0233 H         1 <0>         0.0584
     19 H3         -0.3720    1.2185   -0.6092 H         1 <0>         0.0582
     20 H4          0.0506    3.2640   -0.5428 H         1 <0>         0.1358
     21 H5         -0.5838    5.6391   -0.5071 H         1 <0>         0.1357
     22 H6         -1.6258    6.6110    1.4955 H         1 <0>         0.1376
     23 H7         -1.4041    2.7916    3.4458 H         1 <0>         0.1424
     24 H8         -2.6063    6.3469    3.7793 H         1 <0>         0.1682
     25 H9         -3.3125    4.1792    8.0287 H         1 <0>         0.4203
@<TRIPOS>BOND
     1    1    2 1
     2    1   17 1
     3    1   18 1
     4    1   19 1
     5    2    3 1
     6    3    8 ar
     7    3    4 ar
     8    4    5 ar
     9    4   20 1
    10    5    6 ar
    11    5   21 1
    12    6    7 ar
    13    6   22 1
    14    7    8 ar
    15    7    9 1
    16    8   23 1
    17    9   10 2
    18    9   24 1
    19   10   16 1
    20   10   11 1
    21   11   12 2
    22   11   13 am
    23   13   14 am
    24   13   25 1
    25   14   15 2
    26   14   16 1
@<TRIPOS>MOLECULE
ZINC34051487
   25    26     0     0     0
SMALL
USER_CHARGES
(5Z)-5-[[3-(trifluoromethoxy)phenyl]methylene]thiazolidine-2,4-dione
@<TRIPOS>ATOM
      1 C1          1.7229    0.7435    3.5768 C.ar      1 <0>        -0.0782
      2 C2          1.1258    1.0960    4.7689 C.ar      1 <0>        -0.0941
      3 C3         -0.1864    1.5816    4.7757 C.ar      1 <0>        -0.0563
      4 C4         -0.8835    1.7113    3.5700 C.ar      1 <0>        -0.0990
      5 C5         -0.2741    1.3486    2.3820 C.ar      1 <0>         0.1111
      6 C6          1.0293    0.8680    2.3867 C.ar      1 <0>        -0.1672
      7 O1         -0.9495    1.4677    1.2087 O.3       1 <0>        -0.3073
      8 C7         -0.2577    1.0806    0.0197 C.3       1 <0>         0.6046
      9 F1          0.1052   -0.2676    0.1094 F         1 <0>        -0.1629
     10 F2          0.8920    1.8642   -0.1270 F         1 <0>        -0.1632
     11 F3         -1.0929    1.2661   -1.0872 F         1 <0>        -0.1265
     12 C8         -0.8277    1.9588    6.0438 C.2       1 <0>         0.0650
     13 C9         -2.1483    2.2645    6.0709 C.2       1 <0>        -0.2060
     14 C10        -2.9670    2.8098    7.1746 C.2       1 <0>         0.5655
     15 O2         -2.4869    3.0588    8.2646 O.2       1 <0>        -0.4699
     16 N1         -4.2478    3.0135    6.9162 N.am      1 <0>        -0.6995
     17 C11        -4.7756    2.7366    5.7066 C.2       1 <0>         0.5339
     18 O3         -5.9256    2.8738    5.3352 O.2       1 <0>        -0.4178
     19 S1         -3.3768    2.1264    4.7797 S.3       1 <0>        -0.0385
     20 H1          2.7357    0.3685    3.5725 H         1 <0>         0.1447
     21 H2          1.6707    0.9978    5.6962 H         1 <0>         0.1452
     22 H3         -1.8952    2.0891    3.5669 H         1 <0>         0.1486
     23 H4          1.5031    0.5901    1.4569 H         1 <0>         0.1410
     24 H5         -0.2361    1.9930    6.9705 H         1 <0>         0.1760
     25 H6         -4.9089    3.4177    7.6970 H         1 <0>         0.4509
@<TRIPOS>BOND
     1    1    6 ar
     2    1    2 ar
     3    1   20 1
     4    2    3 ar
     5    2   21 1
     6    3    4 ar
     7    3   12 1
     8    4    5 ar
     9    4   22 1
    10    5    6 ar
    11    5    7 1
    12    6   23 1
    13    7    8 1
    14    8    9 1
    15    8   10 1
    16    8   11 1
    17   12   13 2
    18   12   24 1
    19   13   19 1
    20   13   14 1
    21   14   15 2
    22   14   16 am
    23   16   17 am
    24   16   25 1
    25   17   18 2
    26   17   19 1
@<TRIPOS>MOLECULE
ZINC01027467
   21    22     0     0     0
SMALL
USER_CHARGES
(5Z)-5-[(4-fluorophenyl)methylene]thiazolidine-2,4-dione
@<TRIPOS>ATOM
      1 C1          0.3826   -2.6603    0.0801 C.ar      1 <0>        -0.0578
      2 C2         -0.2886   -3.8604    0.1660 C.ar      1 <0>        -0.1515
      3 C3          0.4193   -5.0499    0.2530 C.ar      1 <0>         0.1289
      4 C4          1.8061   -5.0409    0.2483 C.ar      1 <0>        -0.1572
      5 C5          2.4902   -3.8485    0.1571 C.ar      1 <0>        -0.0463
      6 C6          1.7822   -2.6442    0.0690 C.ar      1 <0>        -0.1098
      7 C7          2.5049   -1.3686   -0.0286 C.2       1 <0>         0.0784
      8 C8          1.8264   -0.2226   -0.2857 C.2       1 <0>        -0.2164
      9 C9          2.3027    1.1759   -0.2781 C.2       1 <0>         0.5624
     10 O1          3.4574    1.4568   -0.0163 O.2       1 <0>        -0.4686
     11 N1          1.4102    2.1070   -0.5703 N.am      1 <0>        -0.6850
     12 C10         0.1315    1.7913   -0.8599 C.2       1 <0>         0.5310
     13 O2         -0.7842    2.5383   -1.1479 O.2       1 <0>        -0.4162
     14 S1          0.1096    0.0110   -0.7259 S.3       1 <0>        -0.0335
     15 F1         -0.2452   -6.2228    0.3422 F         1 <0>        -0.1299
     16 H1         -0.1698   -1.7344    0.0169 H         1 <0>         0.1431
     17 H2         -1.3685   -3.8746    0.1702 H         1 <0>         0.1465
     18 H3          2.3511   -5.9708    0.3167 H         1 <0>         0.1463
     19 H4          3.5702   -3.8429    0.1532 H         1 <0>         0.1468
     20 H5          3.5764   -1.3434    0.1044 H         1 <0>         0.1676
     21 H6          1.6816    3.0382   -0.5769 H         1 <0>         0.4213
@<TRIPOS>BOND
     1    1    6 ar
     2    1    2 ar
     3    1   16 1
     4    2    3 ar
     5    2   17 1
     6    3    4 ar
     7    3   15 1
     8    4    5 ar
     9    4   18 1
    10    5    6 ar
    11    5   19 1
    12    6    7 1
    13    7    8 2
    14    7   20 1
    15    8   14 1
    16    8    9 1
    17    9   10 2
    18    9   11 am
    19   11   12 am
    20   11   21 1
    21   12   13 2
    22   12   14 1
@<TRIPOS>MOLECULE
ZINC12407391
   21    22     0     0     0
SMALL
USER_CHARGES
(5Z)-5-[(4-chlorophenyl)methylene]thiazolidine-2,4-dione
@<TRIPOS>ATOM
      1 C1          0.3824   -2.6607    0.0796 C.ar      1 <0>        -0.0750
      2 C2         -0.2885   -3.8615    0.1662 C.ar      1 <0>        -0.1076
      3 C3          0.4190   -5.0496    0.2532 C.ar      1 <0>        -0.0114
      4 C4          1.8045   -5.0411    0.2477 C.ar      1 <0>        -0.1136
      5 C5          2.4894   -3.8486    0.1562 C.ar      1 <0>        -0.0641
      6 C6          1.7818   -2.6444    0.0684 C.ar      1 <0>        -0.0934
      7 C7          2.5047   -1.3684   -0.0288 C.2       1 <0>         0.0744
      8 C8          1.8263   -0.2226   -0.2854 C.2       1 <0>        -0.2127
      9 C9          2.3029    1.1764   -0.2778 C.2       1 <0>         0.5622
     10 O1          3.4575    1.4572   -0.0159 O.2       1 <0>        -0.4677
     11 N1          1.4102    2.1073   -0.5697 N.am      1 <0>        -0.6849
     12 C10         0.1315    1.7916   -0.8589 C.2       1 <0>         0.5305
     13 O2         -0.7842    2.5387   -1.1466 O.2       1 <0>        -0.4157
     14 S1          0.1094    0.0113   -0.7251 S.3       1 <0>        -0.0315
     15 Cl1        -0.4349   -6.5566    0.3693 Cl        1 <0>        -0.0548
     16 H1         -0.1703   -1.7350    0.0166 H         1 <0>         0.1424
     17 H2         -1.3684   -3.8760    0.1707 H         1 <0>         0.1441
     18 H3          2.3492   -5.9712    0.3155 H         1 <0>         0.1440
     19 H4          3.5694   -3.8435    0.1520 H         1 <0>         0.1459
     20 H5          3.5762   -1.3434    0.1040 H         1 <0>         0.1678
     21 H6          1.6814    3.0386   -0.5759 H         1 <0>         0.4214
@<TRIPOS>BOND
     1    1    6 ar
     2    1    2 ar
     3    1   16 1
     4    2    3 ar
     5    2   17 1
     6    3    4 ar
     7    3   15 1
     8    4    5 ar
     9    4   18 1
    10    5    6 ar
    11    5   19 1
    12    6    7 1
    13    7    8 2
    14    7   20 1
    15    8   14 1
    16    8    9 1
    17    9   10 2
    18    9   11 am
    19   11   12 am
    20   11   21 1
    21   12   13 2
    22   12   14 1
@<TRIPOS>MOLECULE
ZINC12577045
   21    22     0     0     0
SMALL
USER_CHARGES
(5Z)-5-[(4-bromophenyl)methylene]thiazolidine-2,4-dione
@<TRIPOS>ATOM
      1 C1          0.3824   -2.6608    0.0795 C.ar      1 <0>        -0.0823
      2 C2         -0.2885   -3.8618    0.1651 C.ar      1 <0>        -0.0877
      3 C3          0.4189   -5.0497    0.2517 C.ar      1 <0>        -0.0687
      4 C4          1.8041   -5.0412    0.2471 C.ar      1 <0>        -0.0939
      5 C5          2.4892   -3.8486    0.1562 C.ar      1 <0>        -0.0713
      6 C6          1.7817   -2.6444    0.0684 C.ar      1 <0>        -0.0814
      7 C7          2.5047   -1.3684   -0.0288 C.2       1 <0>         0.0714
      8 C8          1.8263   -0.2226   -0.2853 C.2       1 <0>        -0.2096
      9 C9          2.3029    1.1765   -0.2777 C.2       1 <0>         0.5620
     10 O1          3.4576    1.4574   -0.0159 O.2       1 <0>        -0.4670
     11 N1          1.4102    2.1074   -0.5696 N.am      1 <0>        -0.6848
     12 C10         0.1315    1.7917   -0.8587 C.2       1 <0>         0.5303
     13 O2         -0.7843    2.5387   -1.1464 O.2       1 <0>        -0.4152
     14 S1          0.1094    0.0113   -0.7249 S.3       1 <0>        -0.0305
     15 Br1        -0.5112   -6.6914    0.3762 Br        1 <0>        -0.0352
     16 H1         -0.1704   -1.7351    0.0165 H         1 <0>         0.1420
     17 H2         -1.3684   -3.8764    0.1693 H         1 <0>         0.1433
     18 H3          2.3487   -5.9713    0.3153 H         1 <0>         0.1432
     19 H4          3.5692   -3.8436    0.1524 H         1 <0>         0.1455
     20 H5          3.5762   -1.3433    0.1039 H         1 <0>         0.1683
     21 H6          1.6814    3.0387   -0.5758 H         1 <0>         0.4216
@<TRIPOS>BOND
     1    1    6 ar
     2    1    2 ar
     3    1   16 1
     4    2    3 ar
     5    2   17 1
     6    3    4 ar
     7    3   15 1
     8    4    5 ar
     9    4   18 1
    10    5    6 ar
    11    5   19 1
    12    6    7 1
    13    7    8 2
    14    7   20 1
    15    8   14 1
    16    8    9 1
    17    9   10 2
    18    9   11 am
    19   11   12 am
    20   11   21 1
    21   12   13 2
    22   12   14 1
@<TRIPOS>MOLECULE
ZINC12343955
   24    25     0     0     0
SMALL
USER_CHARGES
(5Z)-5-(m-tolylmethylene)thiazolidine-2,4-dione
@<TRIPOS>ATOM
      1 C1         -0.1069    0.6180    0.1680 C.3       1 <0>        -0.1208
      2 C2         -0.7572    1.3912    1.2862 C.ar      1 <0>        -0.0826
      3 C3          0.0210    1.9309    2.2960 C.ar      1 <0>        -0.0924
      4 C4         -0.5664    2.6426    3.3274 C.ar      1 <0>        -0.1187
      5 C5         -1.9336    2.8192    3.3570 C.ar      1 <0>        -0.0829
      6 C6         -2.7272    2.2770    2.3404 C.ar      1 <0>        -0.0955
      7 C7         -2.1247    1.5639    1.2978 C.ar      1 <0>        -0.0879
      8 C8         -4.1856    2.4609    2.3638 C.2       1 <0>         0.0786
      9 C9         -4.9672    1.7949    1.4785 C.2       1 <0>        -0.2188
     10 C10        -6.4151    1.9296    1.2119 C.2       1 <0>         0.5624
     11 O1         -7.1059    2.7259    1.8196 O.2       1 <0>        -0.4704
     12 N1         -6.9208    1.1407    0.2789 N.am      1 <0>        -0.6853
     13 C11        -6.1513    0.2599   -0.3924 C.2       1 <0>         0.5273
     14 O2         -6.4816   -0.5183   -1.2668 O.2       1 <0>        -0.4190
     15 S1         -4.5288    0.5176    0.3071 S.3       1 <0>        -0.0296
     16 H1         -0.0508   -0.4360    0.4398 H         1 <0>         0.0764
     17 H2          0.8984    1.0031   -0.0032 H         1 <0>         0.0715
     18 H3         -0.6978    0.7279   -0.7413 H         1 <0>         0.0709
     19 H4          1.0924    1.7955    2.2790 H         1 <0>         0.1302
     20 H5          0.0477    3.0605    4.1114 H         1 <0>         0.1326
     21 H6         -2.3905    3.3749    4.1625 H         1 <0>         0.1347
     22 H7         -2.7300    1.1460    0.5070 H         1 <0>         0.1343
     23 H8         -4.6344    3.1266    3.0862 H         1 <0>         0.1650
     24 H9         -7.8670    1.1965    0.0728 H         1 <0>         0.4202
@<TRIPOS>BOND
     1    1    2 1
     2    1   16 1
     3    1   17 1
     4    1   18 1
     5    2    7 ar
     6    2    3 ar
     7    3    4 ar
     8    3   19 1
     9    4    5 ar
    10    4   20 1
    11    5    6 ar
    12    5   21 1
    13    6    7 ar
    14    6    8 1
    15    7   22 1
    16    8    9 2
    17    8   23 1
    18    9   15 1
    19    9   10 1
    20   10   11 2
    21   10   12 am
    22   12   13 am
    23   12   24 1
    24   13   14 2
    25   13   15 1
@<TRIPOS>MOLECULE
ZINC03964325
   57    59     0     0     0
SMALL
USER_CHARGES

@<TRIPOS>ATOM
      1 C1          0.1489    2.0884    0.1150 C.3       1 <0>        -0.1876
      2 C2          0.1348    0.5603    0.1888 C.3       1 <0>        -0.0191
      3 N1         -1.2520    0.0881    0.2979 N.4       1 <0>        -0.3822
      4 C3         -1.9779    0.4111   -0.9377 C.3       1 <0>        -0.0142
      5 C4         -3.4549    0.0484   -0.7712 C.3       1 <0>        -0.1895
      6 C5         -1.2593   -1.3663    0.5041 C.3       1 <0>        -0.0265
      7 C6         -0.6131   -1.6936    1.8518 C.3       1 <0>         0.0952
      8 N2         -0.6203   -3.1440    2.0575 N.am      1 <0>        -0.7289
      9 C7         -0.0988   -3.6675    3.1846 C.2       1 <0>         0.6111
     10 O1          0.3779   -2.9358    4.0309 O.2       1 <0>        -0.5184
     11 C8         -0.1061   -5.1270    3.3915 C.2       1 <0>        -0.2420
     12 C9          0.9071   -6.0320    3.0089 C.2       1 <0>        -0.0577
     13 C10         0.4868   -7.2892    3.3960 C.2       1 <0>        -0.0075
     14 N3         -0.7476   -7.1595    3.9982 N.pl3     1 <0>        -0.4910
     15 H1         -1.2731   -7.8879    4.3645 H         1 <0>         0.4270
     16 C11        -1.1044   -5.8642    4.0022 C.2       1 <0>         0.1158
     17 C12        -2.3825   -5.3072    4.5743 C.3       1 <0>        -0.0999
     18 C13         1.1957   -8.4957    3.2079 C.2       1 <0>         0.0729
     19 C14         0.5100   -9.6674    2.9570 C.2       1 <0>        -0.1889
     20 C15         1.0648  -11.0377    2.8871 C.ar      1 <0>        -0.0736
     21 C16         2.3472  -11.5557    3.0375 C.ar      1 <0>        -0.1000
     22 C17         2.5553  -12.9162    2.9116 C.ar      1 <0>         0.0861
     23 C18         1.4888  -13.7593    2.6366 C.ar      1 <0>        -0.1139
     24 C19         0.2139  -13.2531    2.4856 C.ar      1 <0>        -0.1021
     25 C20        -0.0144  -11.8871    2.6092 C.ar      1 <0>         0.1282
     26 N4         -1.1765  -11.1301    2.5069 N.am      1 <0>        -0.6466
     27 C21        -0.9294   -9.8245    2.7079 C.2       1 <0>         0.5595
     28 O2         -1.7538   -8.9280    2.6842 O.2       1 <0>        -0.5156
     29 F1          3.7984  -13.4252    3.0561 F         1 <0>        -0.1318
     30 C22         2.1990   -5.6919    2.3116 C.3       1 <0>        -0.0931
     31 H2          1.1793    2.4435    0.1331 H         1 <0>         0.1076
     32 H3         -0.3308    2.4121   -0.8087 H         1 <0>         0.0811
     33 H4         -0.3916    2.4984    0.9682 H         1 <0>         0.0809
     34 H5          0.5888    0.1488   -0.7126 H         1 <0>         0.1317
     35 H6          0.6996    0.2334    1.0619 H         1 <0>         0.1337
     36 H7         -1.8867    1.4775   -1.1444 H         1 <0>         0.1351
     37 H8         -1.5554   -0.1571   -1.7664 H         1 <0>         0.1307
     38 H9         -3.5537   -1.0316   -0.6617 H         1 <0>         0.0802
     39 H10        -3.8523    0.5414    0.1160 H         1 <0>         0.0808
     40 H11        -4.0109    0.3769   -1.6492 H         1 <0>         0.1074
     41 H12        -2.2871   -1.7292    0.4963 H         1 <0>         0.1397
     42 H13        -0.6973   -1.8494   -0.2952 H         1 <0>         0.1376
     43 H14         0.4147   -1.3306    1.8596 H         1 <0>         0.0893
     44 H15        -1.1751   -1.2105    2.6511 H         1 <0>         0.0890
     45 H16        -1.0005   -3.7277    1.3824 H         1 <0>         0.4099
     46 H17        -3.1529   -5.3000    3.8032 H         1 <0>         0.0840
     47 H18        -2.7087   -5.9289    5.4080 H         1 <0>         0.0782
     48 H19        -2.2103   -4.2898    4.9254 H         1 <0>         0.0840
     49 H20         2.2744   -8.5020    3.2604 H         1 <0>         0.1589
     50 H21         3.1765  -10.8977    3.2512 H         1 <0>         0.1436
     51 H22         1.6578  -14.8215    2.5394 H         1 <0>         0.1485
     52 H23        -0.6084  -13.9196    2.2712 H         1 <0>         0.1415
     53 H24        -2.0541  -11.4980    2.3189 H         1 <0>         0.4217
     54 H25         2.9686   -5.4822    3.0545 H         1 <0>         0.0785
     55 H26         2.5107   -6.5337    1.6932 H         1 <0>         0.0726
     56 H27         2.0522   -4.8138    1.6827 H         1 <0>         0.0634
     57 H28        -1.7009    0.5410    1.0799 H         1 <0>         0.4247
@<TRIPOS>BOND
     1    1    2 1
     2    1   31 1
     3    1   32 1
     4    1   33 1
     5    2    3 1
     6    2   34 1
     7    2   35 1
     8    3    4 1
     9    3    6 1
    10    3   57 1
    11    4    5 1
    12    4   36 1
    13    4   37 1
    14    5   38 1
    15    5   39 1
    16    5   40 1
    17    6    7 1
    18    6   41 1
    19    6   42 1
    20    7    8 1
    21    7   43 1
    22    7   44 1
    23    8    9 am
    24    8   45 1
    25    9   10 2
    26    9   11 1
    27   11   16 2
    28   11   12 1
    29   12   13 2
    30   12   30 1
    31   13   14 1
    32   13   18 1
    33   14   15 1
    34   14   16 1
    35   16   17 1
    36   17   46 1
    37   17   47 1
    38   17   48 1
    39   18   19 2
    40   18   49 1
    41   19   27 1
    42   19   20 1
    43   20   25 ar
    44   20   21 ar
    45   21   22 ar
    46   21   50 1
    47   22   23 ar
    48   22   29 1
    49   23   24 ar
    50   23   51 1
    51   24   25 ar
    52   24   52 1
    53   25   26 1
    54   26   27 am
    55   26   53 1
    56   27   28 2
    57   30   54 1
    58   30   55 1
    59   30   56 1
@<TRIPOS>MOLECULE
ZINC04335977
   25    28     0     0     0
SMALL
USER_CHARGES

@<TRIPOS>ATOM
      1 C1         -0.0166    1.3742    0.0096 C.ar      1 <0>        -0.0830
      2 C2          1.1706    2.0916    0.0021 C.ar      1 <0>        -0.1243
      3 C3          2.3823    1.4397   -0.0153 C.ar      1 <0>        -0.0569
      4 C4          2.4281    0.0410   -0.0258 C.ar      1 <0>        -0.1454
      5 C5          1.2170   -0.6851   -0.0143 C.ar      1 <0>         0.0500
      6 C6          0.0021   -0.0041    0.0020 C.ar      1 <0>        -0.1088
      7 C7          1.2506   -2.1591   -0.0199 C.2       1 <0>         0.0730
      8 C8          2.5639   -2.7742   -0.0443 C.ar      1 <0>        -0.1429
      9 C9          3.7793   -2.1038   -0.0604 C.ar      1 <0>        -0.1081
     10 C10         4.9294   -2.8876   -0.0855 C.ar      1 <0>        -0.0580
     11 C11         4.7889   -4.2709   -0.0911 C.ar      1 <0>        -0.1027
     12 C12         3.5603   -4.9095   -0.0724 C.ar      1 <0>        -0.0703
     13 C13         2.3922   -4.1530   -0.0476 C.ar      1 <0>         0.0737
     14 N1          1.0342   -4.3134   -0.0236 N.pl3     1 <0>        -0.4208
     15 H1          0.5868   -5.1740   -0.0178 H         1 <0>         0.4498
     16 N2          0.4180   -3.1700   -0.0087 N.2       1 <0>        -0.2006
     17 C14         3.7440   -0.6349   -0.0491 C.2       1 <0>         0.4424
     18 O1          4.7754    0.0120   -0.0592 O.2       1 <0>        -0.4413
     19 H2         -0.9607    1.8984    0.0260 H         1 <0>         0.1352
     20 H3          1.1437    3.1712    0.0097 H         1 <0>         0.1350
     21 H4          3.3001    2.0089   -0.0212 H         1 <0>         0.1415
     22 H5         -0.9260   -0.5563    0.0084 H         1 <0>         0.1375
     23 H6          5.9084   -2.4317   -0.1006 H         1 <0>         0.1458
     24 H7          5.6823   -4.8774   -0.1113 H         1 <0>         0.1405
     25 H8          3.5088   -5.9882   -0.0775 H         1 <0>         0.1387
@<TRIPOS>BOND
     1    1    6 ar
     2    1    2 ar
     3    1   19 1
     4    2    3 ar
     5    2   20 1
     6    3    4 ar
     7    3   21 1
     8    4   17 1
     9    4    5 ar
    10    5    6 ar
    11    5    7 1
    12    6   22 1
    13    7   16 2
    14    7    8 1
    15    8   13 ar
    16    8    9 ar
    17    9   10 ar
    18    9   17 1
    19   10   11 ar
    20   10   23 1
    21   11   12 ar
    22   11   24 1
    23   12   13 ar
    24   12   25 1
    25   13   14 1
    26   14   15 1
    27   14   16 1
    28   17   18 2
@<TRIPOS>MOLECULE
ZINC04335977
   25    28     0     0     0
SMALL
USER_CHARGES

@<TRIPOS>ATOM
      1 C1         -0.0168    1.3856    0.0097 C.ar      1 <0>        -0.1427
      2 C2          1.1170    2.1945    0.0032 C.ar      1 <0>        -0.0217
      3 C3          2.3711    1.6150   -0.0018 C.ar      1 <0>        -0.1545
      4 C4          2.3811    0.2055    0.0219 C.ar      1 <0>        -0.1284
      5 C5          1.2547   -0.6338   -0.0010 C.ar      1 <0>        -0.0019
      6 C6          0.0021   -0.0041    0.0020 C.ar      1 <0>        -0.0002
      7 N1          1.7529   -1.8663   -0.0388 N.2       1 <0>        -0.2064
      8 N2          3.0585   -1.8827   -0.0212 N.2       1 <0>        -0.1750
      9 C7          3.5637   -0.6566    0.0553 C.2       1 <0>        -0.0804
     10 C8          4.8090   -0.0488    0.2082 C.2       1 <0>         0.1832
     11 C9          5.9893   -0.7697    0.0663 C.2       1 <0>        -0.1794
     12 C10         7.1922   -0.1305    0.0279 C.2       1 <0>         0.0175
     13 C11         7.2645    1.2786    0.0514 C.2       1 <0>        -0.1580
     14 C12         6.1810    2.0262    0.2746 C.2       1 <0>        -0.0648
     15 C13         4.8472    1.4205    0.5359 C.3       1 <0>        -0.1143
     16 H1          4.7113    1.4792    1.6158 H         1 <0>         0.1756
     17 C14         3.7065    2.2205   -0.0350 C.2       1 <0>         0.4372
     18 O1          3.8852    3.3247   -0.5044 O.2       1 <0>        -0.4218
     19 H2         -0.9802    1.8735    0.0262 H         1 <0>         0.1380
     20 H3          1.0162    3.2698    0.0017 H         1 <0>         0.1414
     21 H4         -0.9134   -0.5771   -0.0011 H         1 <0>         0.1493
     22 H5          5.9525   -1.8461   -0.0139 H         1 <0>         0.1574
     23 H6          8.1023   -0.7101   -0.0209 H         1 <0>         0.1503
     24 H7          8.2158    1.7622   -0.1141 H         1 <0>         0.1476
     25 H8          6.2755    3.1020    0.2656 H         1 <0>         0.1520
@<TRIPOS>BOND
     1    1    6 ar
     2    1    2 ar
     3    1   19 1
     4    2    3 ar
     5    2   20 1
     6    3   17 1
     7    3    4 ar
     8    4    9 1
     9    4    5 ar
    10    5    6 ar
    11    5    7 1
    12    6   21 1
    13    7    8 2
    14    8    9 1
    15    9   10 2
    16   10   15 1
    17   10   11 1
    18   11   12 2
    19   11   22 1
    20   12   13 1
    21   12   23 1
    22   13   14 2
    23   13   24 1
    24   14   15 1
    25   14   25 1
    26   15   16 1
    27   15   17 1
    28   17   18 2
@<TRIPOS>MOLECULE
ZINC04335977
   25    28     0     0     0
SMALL
USER_CHARGES

@<TRIPOS>ATOM
      1 C1         -0.0164    1.3596    0.0095 C.ar      1 <0>        -0.0576
      2 C2          1.1713    2.0855    0.0021 C.ar      1 <0>        -0.1347
      3 C3          2.3768    1.4549   -0.0120 C.ar      1 <0>        -0.0679
      4 C4          2.4386    0.0472   -0.0213 C.ar      1 <0>        -0.1308
      5 C5          1.2221   -0.6871   -0.0140 C.ar      1 <0>         0.1082
      6 C6          0.0021   -0.0041    0.0020 C.ar      1 <0>        -0.1288
      7 C7          1.2623   -2.1488   -0.0253 C.ar      1 <0>        -0.0283
      8 C8          2.5333   -2.7124   -0.0445 C.ar      1 <0>        -0.1739
      9 C9          3.7767   -1.9860   -0.0536 C.ar      1 <0>        -0.1204
     10 C10         3.7083   -0.5824   -0.0381 C.ar      1 <0>         0.2929
     11 O1          4.8379    0.1571   -0.0391 O.3       1 <0>        -0.4795
     12 C11         4.9469   -2.7593   -0.0757 C.ar      1 <0>         0.0289
     13 C12         4.8276   -4.1389   -0.0827 C.ar      1 <0>        -0.1839
     14 C13         3.6180   -4.8159   -0.0703 C.ar      1 <0>         0.1011
     15 C14         2.4158   -4.1083   -0.0517 C.ar      1 <0>        -0.0377
     16 N1          1.0921   -4.3196   -0.0378 N.2       1 <0>        -0.2189
     17 N2          0.4367   -3.1958   -0.0225 N.2       1 <0>        -0.1913
     18 H1         -0.9619    1.8814    0.0259 H         1 <0>         0.1383
     19 H2          1.1354    3.1649    0.0072 H         1 <0>         0.1360
     20 H3          3.2881    2.0345   -0.0163 H         1 <0>         0.1414
     21 H4         -0.9259   -0.5566    0.0089 H         1 <0>         0.1451
     22 H5          5.9191   -2.2892   -0.0875 H         1 <0>         0.1508
     23 H6          5.7348   -4.7247   -0.0991 H         1 <0>         0.1453
     24 H7          3.6062   -5.8959   -0.0754 H         1 <0>         0.1485
     25 H8          5.1739    0.3631    0.8439 H         1 <0>         0.4170
@<TRIPOS>BOND
     1    1    6 ar
     2    1    2 ar
     3    1   18 1
     4    2    3 ar
     5    2   19 1
     6    3    4 ar
     7    3   20 1
     8    4   10 ar
     9    4    5 ar
    10    5    6 ar
    11    5    7 ar
    12    6   21 1
    13    7   17 1
    14    7    8 ar
    15    8   15 ar
    16    8    9 ar
    17    9   10 ar
    18    9   12 ar
    19   10   11 1
    20   11   25 1
    21   12   13 ar
    22   12   22 1
    23   13   14 ar
    24   13   23 1
    25   14   15 ar
    26   14   24 1
    27   15   16 1
    28   16   17 2
@<TRIPOS>MOLECULE
ZINC04335977
   25    28     0     0     0
SMALL
USER_CHARGES

@<TRIPOS>ATOM
      1 C1         -0.0166    1.3716    0.0096 C.ar      1 <0>        -0.0800
      2 C2          1.1708    2.0918    0.0021 C.ar      1 <0>        -0.1245
      3 C3          2.3828    1.4428   -0.0127 C.ar      1 <0>        -0.0544
      4 C4          2.4320    0.0434   -0.0205 C.ar      1 <0>        -0.1405
      5 C5          1.2210   -0.6886   -0.0124 C.ar      1 <0>         0.0405
      6 C6          0.0021   -0.0041    0.0020 C.ar      1 <0>        -0.1261
      7 C7          1.2457   -2.1536   -0.0208 C.2       1 <0>         0.0504
      8 C8          2.4853   -2.7488   -0.0355 C.ar      1 <0>        -0.1585
      9 C9          3.7667   -2.0921   -0.0444 C.ar      1 <0>        -0.1299
     10 C10         4.8847   -2.9128   -0.0585 C.ar      1 <0>        -0.0238
     11 C11         4.7118   -4.2966   -0.0633 C.ar      1 <0>        -0.1212
     12 C12         3.5050   -4.9362   -0.0556 C.ar      1 <0>        -0.0231
     13 C13         2.3094   -4.1914   -0.0406 C.ar      1 <0>         0.0660
     14 N1          0.9988   -4.3425   -0.0297 N.2       1 <0>        -0.2551
     15 H1         -0.5846   -3.1031   -0.0098 H         1 <0>         0.4487
     16 N2          0.3807   -3.1981   -0.0186 N.pl3     1 <0>        -0.3308
     17 C14         3.7519   -0.6254   -0.0360 C.2       1 <0>         0.4405
     18 O1          4.7871    0.0179   -0.0431 O.2       1 <0>        -0.4447
     19 H2         -0.9611    1.8950    0.0259 H         1 <0>         0.1352
     20 H3          1.1418    3.1714    0.0076 H         1 <0>         0.1359
     21 H4          3.2994    2.0140   -0.0187 H         1 <0>         0.1430
     22 H5         -0.9262   -0.5560    0.0082 H         1 <0>         0.1296
     23 H6          5.8766   -2.4856   -0.0660 H         1 <0>         0.1446
     24 H7          5.6007   -4.9099   -0.0744 H         1 <0>         0.1377
     25 H8          3.4673   -6.0156   -0.0604 H         1 <0>         0.1406
@<TRIPOS>BOND
     1    1    6 ar
     2    1    2 ar
     3    1   19 1
     4    2    3 ar
     5    2   20 1
     6    3    4 ar
     7    3   21 1
     8    4   17 1
     9    4    5 ar
    10    5    6 ar
    11    5    7 1
    12    6   22 1
    13    7    8 2
    14    7   16 1
    15    8    9 ar
    16    8   13 ar
    17    9   10 ar
    18    9   17 1
    19   10   11 ar
    20   10   23 1
    21   11   12 ar
    22   11   24 1
    23   12   13 ar
    24   12   25 1
    25   13   14 2
    26   14   16 1
    27   15   16 1
    28   17   18 2
@<TRIPOS>MOLECULE
ZINC04105082
   31    32     0     0     0
SMALL
USER_CHARGES
5-[(4-propoxyphenyl)methylene]thiazolidine-2,4-dione
@<TRIPOS>ATOM
      1 C1         -3.7754   -7.5167    0.4528 C.3       1 <0>        -0.1516
      2 C2         -2.2469   -7.5825    0.4527 C.3       1 <0>        -0.1241
      3 C3         -1.6754   -6.1673    0.3447 C.3       1 <0>         0.0539
      4 O1         -0.2477   -6.2289    0.3446 O.3       1 <0>        -0.3087
      5 C4          0.4200   -5.0502    0.2540 C.ar      1 <0>         0.1645
      6 C5          1.8101   -5.0405    0.2487 C.ar      1 <0>        -0.1575
      7 C6          2.4922   -3.8483    0.1570 C.ar      1 <0>        -0.0330
      8 C7          1.7832   -2.6439    0.0689 C.ar      1 <0>        -0.1427
      9 C8          0.3829   -2.6592    0.0800 C.ar      1 <0>        -0.0403
     10 C9         -0.2890   -3.8576    0.1672 C.ar      1 <0>        -0.2108
     11 C10         2.5054   -1.3690   -0.0286 C.2       1 <0>         0.0905
     12 C11         1.8265   -0.2225   -0.2865 C.2       1 <0>        -0.2299
     13 C12         2.3023    1.1751   -0.2788 C.2       1 <0>         0.5628
     14 O2          3.4571    1.4558   -0.0162 O.2       1 <0>        -0.4729
     15 N1          1.4104    2.1065   -0.5717 N.am      1 <0>        -0.6852
     16 C13         0.1318    1.7910   -0.8621 C.2       1 <0>         0.5296
     17 O3         -0.7836    2.5381   -1.1508 O.2       1 <0>        -0.4204
     18 S1          0.1100    0.0107   -0.7279 S.3       1 <0>        -0.0366
     19 H1         -4.1825   -8.5248    0.5297 H         1 <0>         0.0668
     20 H2         -4.1135   -6.9225    1.3017 H         1 <0>         0.0586
     21 H3         -4.1193   -7.0557   -0.4732 H         1 <0>         0.0588
     22 H4         -1.9088   -8.1767   -0.3963 H         1 <0>         0.0752
     23 H5         -1.9030   -8.0434    1.3787 H         1 <0>         0.0751
     24 H6         -2.0135   -5.5732    1.1936 H         1 <0>         0.0669
     25 H7         -2.0193   -5.7064   -0.5813 H         1 <0>         0.0672
     26 H8          2.3559   -5.9699    0.3171 H         1 <0>         0.1414
     27 H9          3.5722   -3.8419    0.1527 H         1 <0>         0.1434
     28 H10        -0.1688   -1.7330    0.0164 H         1 <0>         0.1373
     29 H11        -1.3689   -3.8709    0.1721 H         1 <0>         0.1375
     30 H12         3.5768   -1.3438    0.1049 H         1 <0>         0.1644
     31 H13         1.6820    3.0376   -0.5778 H         1 <0>         0.4199
@<TRIPOS>BOND
     1    1    2 1
     2    1   19 1
     3    1   20 1
     4    1   21 1
     5    2    3 1
     6    2   22 1
     7    2   23 1
     8    3    4 1
     9    3   24 1
    10    3   25 1
    11    4    5 1
    12    5   10 ar
    13    5    6 ar
    14    6    7 ar
    15    6   26 1
    16    7    8 ar
    17    7   27 1
    18    8    9 ar
    19    8   11 1
    20    9   10 ar
    21    9   28 1
    22   10   29 1
    23   11   12 2
    24   11   30 1
    25   12   18 1
    26   12   13 1
    27   13   14 2
    28   13   15 am
    29   15   16 am
    30   15   31 1
    31   16   17 2
    32   16   18 1
@<TRIPOS>MOLECULE
ZINC01865441
   25    26     0     0     0
SMALL
USER_CHARGES
(5Z)-5-[(4-methoxyphenyl)methylene]thiazolidine-2,4-dione
@<TRIPOS>ATOM
      1 C1          2.2693    4.1127    0.5671 C.3       1 <0>         0.0228
      2 O1          1.0600    3.4364    0.2178 O.3       1 <0>        -0.3102
      3 C2          1.1065    2.0808    0.1598 C.ar      1 <0>         0.1601
      4 C3         -0.0357    1.3623   -0.1743 C.ar      1 <0>        -0.1514
      5 C4          0.0058   -0.0124   -0.2346 C.ar      1 <0>        -0.0430
      6 C5          1.2016   -0.6870    0.0413 C.ar      1 <0>        -0.1412
      7 C6          2.3492    0.0419    0.3773 C.ar      1 <0>        -0.0317
      8 C7          2.2963    1.4163    0.4347 C.ar      1 <0>        -0.2149
      9 C8          1.2519   -2.1532   -0.0209 C.2       1 <0>         0.0888
     10 C9          0.1942   -2.8482   -0.5109 C.2       1 <0>        -0.2289
     11 C10        -0.0443   -4.3051   -0.5364 C.2       1 <0>         0.5629
     12 O2          0.7615   -5.0929   -0.0770 O.2       1 <0>        -0.4732
     13 N1         -1.1800   -4.7102   -1.0794 N.am      1 <0>        -0.6854
     14 C11        -2.0670   -3.8342   -1.5938 C.2       1 <0>         0.5294
     15 O3         -3.1375   -4.0659   -2.1229 O.2       1 <0>        -0.4197
     16 S1         -1.2897   -2.2520   -1.3099 S.3       1 <0>        -0.0338
     17 H1          2.0941    5.1885    0.5772 H         1 <0>         0.1054
     18 H2          2.5946    3.7883    1.5556 H         1 <0>         0.0602
     19 H3          3.0418    3.8772   -0.1650 H         1 <0>         0.0603
     20 H4         -0.9562    1.8837   -0.3913 H         1 <0>         0.1418
     21 H5         -0.8822   -0.5696   -0.4939 H         1 <0>         0.1407
     22 H6          3.2739   -0.4733    0.5914 H         1 <0>         0.1389
     23 H7          3.1807    1.9794    0.6937 H         1 <0>         0.1384
     24 H8          2.1305   -2.6785    0.3232 H         1 <0>         0.1636
     25 H9         -1.3775   -5.6594   -1.1126 H         1 <0>         0.4199
@<TRIPOS>BOND
     1    1    2 1
     2    1   17 1
     3    1   18 1
     4    1   19 1
     5    2    3 1
     6    3    8 ar
     7    3    4 ar
     8    4    5 ar
     9    4   20 1
    10    5    6 ar
    11    5   21 1
    12    6    7 ar
    13    6    9 1
    14    7    8 ar
    15    7   22 1
    16    8   23 1
    17    9   10 2
    18    9   24 1
    19   10   16 1
    20   10   11 1
    21   11   12 2
    22   11   13 am
    23   13   14 am
    24   13   25 1
    25   14   15 2
    26   14   16 1
@<TRIPOS>MOLECULE
ZINC03812168
   64    69     0     0     0
SMALL
USER_CHARGES
dimethylaminomethylBLAHdione
@<TRIPOS>ATOM
      1 C1         -3.6591   -3.4932   -0.5238 C.3       1 <0>        -0.0551
      2 C2         -2.4926   -2.9550   -2.5762 C.3       1 <0>        -0.0445
      3 C3         -2.6578   -1.3072   -0.8098 C.3       1 <0>        -0.0358
      4 C4         -2.4673   -1.1012    0.6860 C.3       1 <0>         0.0654
      5 H1         -3.1645   -1.7751    1.2185 H         1 <0>         0.0947
      6 C5         -2.7230    0.3270    1.1457 C.3       1 <0>        -0.1345
      7 C6         -2.5225    1.3892    0.0793 C.3       1 <0>         0.1021
      8 N1         -1.1339    1.8402    0.0096 N.pl3     1 <0>        -0.4782
      9 C7         -0.0126    1.0747    0.0080 C.2       1 <0>         0.0759
     10 C8          1.1009    1.8532    0.0015 C.2       1 <0>        -0.1124
     11 C9          0.6150    3.2557   -0.0375 C.ar      1 <0>        -0.0829
     12 C10        -0.7846    3.1777   -0.0610 C.ar      1 <0>         0.0902
     13 C11        -1.5354    4.3459   -0.1576 C.ar      1 <0>        -0.1369
     14 C12        -0.9089    5.5725   -0.1941 C.ar      1 <0>        -0.0870
     15 C13         0.4756    5.6497   -0.1263 C.ar      1 <0>        -0.1387
     16 C14         1.2312    4.5008   -0.0317 C.ar      1 <0>        -0.0542
     17 C15         2.5293    1.4989    0.0288 C.2       1 <0>        -0.0575
     18 C16         3.2121    0.4058    0.5546 C.2       1 <0>        -0.0318
     19 C17         2.7061   -0.7744    1.2787 C.2       1 <0>        -0.1258
     20 C18         1.4206   -1.0272    1.6582 C.2       1 <0>         0.1002
     21 N2          1.3169   -2.2819    2.1682 N.pl3     1 <0>        -0.4767
     22 C19         2.5720   -2.8515    2.2654 C.ar      1 <0>         0.0850
     23 C20         3.5031   -1.9214    1.7684 C.ar      1 <0>        -0.0774
     24 C21         4.8560   -2.2219    1.8708 C.ar      1 <0>        -0.0704
     25 C22         5.2705   -3.4529    2.3343 C.ar      1 <0>        -0.1401
     26 C23         4.3436   -4.3996    2.7389 C.ar      1 <0>        -0.0882
     27 C24         3.0009   -4.0952    2.7142 C.ar      1 <0>        -0.1389
     28 C25         0.0751   -2.9597    2.5494 C.3       1 <0>         0.1083
     29 C26        -0.9464   -2.8428    1.4151 C.3       1 <0>         0.0261
     30 O1         -1.1329   -1.4683    1.0718 O.3       1 <0>        -0.3787
     31 C27         4.6407    0.6399    0.2297 C.2       1 <0>         0.5576
     32 O2          5.5801   -0.0982    0.4313 O.2       1 <0>        -0.4501
     33 N3          4.7726    1.8285   -0.3761 N.am      1 <0>        -0.6884
     34 C28         3.5684    2.3701   -0.5773 C.2       1 <0>         0.5496
     35 O3          3.3676    3.4021   -1.1909 O.2       1 <0>        -0.4507
     36 H2         -4.6064   -3.1194   -0.9125 H         1 <0>         0.1320
     37 H3         -3.5558   -4.5494   -0.7723 H         1 <0>         0.1292
     38 H4         -3.6371   -3.3709    0.5591 H         1 <0>         0.1176
     39 H5         -1.6226   -2.4415   -2.9853 H         1 <0>         0.1242
     40 H6         -2.4140   -4.0227   -2.7812 H         1 <0>         0.1266
     41 H7         -3.3976   -2.5618   -3.0392 H         1 <0>         0.1281
     42 H8         -3.6420   -0.9427   -1.1043 H         1 <0>         0.1512
     43 H9         -1.8892   -0.7576   -1.3530 H         1 <0>         0.1401
     44 H10        -3.7581    0.3948    1.5248 H         1 <0>         0.1133
     45 H11        -2.0693    0.5478    1.9998 H         1 <0>         0.1111
     46 H12        -2.8851    1.1097   -0.8943 H         1 <0>         0.0847
     47 H13        -3.1227    2.2722    0.3811 H         1 <0>         0.1001
     48 H14         0.0021   -0.0041    0.0020 H         1 <0>         0.1790
     49 H15        -2.6150    4.2937   -0.2077 H         1 <0>         0.1188
     50 H16        -1.4958    6.4773   -0.2780 H         1 <0>         0.1308
     51 H17         0.9608    6.6157   -0.1385 H         1 <0>         0.1284
     52 H18         2.3072    4.5814    0.0562 H         1 <0>         0.1320
     53 H19         0.6104   -0.3170    1.5917 H         1 <0>         0.1871
     54 H20         5.6126   -1.4944    1.6337 H         1 <0>         0.1514
     55 H21         6.3257   -3.6782    2.3787 H         1 <0>         0.1280
     56 H22         4.6724   -5.3687    3.0799 H         1 <0>         0.1300
     57 H23         2.2783   -4.8297    3.0422 H         1 <0>         0.1175
     58 H24         0.2774   -4.0129    2.7458 H         1 <0>         0.1169
     59 H25        -0.3264   -2.4933    3.4522 H         1 <0>         0.0971
     60 H26        -0.5876   -3.3893    0.5423 H         1 <0>         0.0664
     61 H27        -1.8985   -3.2659    1.7424 H         1 <0>         0.0864
     62 H28         5.6204    2.2247   -0.6318 H         1 <0>         0.4332
     63 N4         -2.5268   -2.7479   -1.1131 N.4       1 <0>        -0.4048
     64 H29        -1.6507   -3.0961   -0.7064 H         1 <0>         0.4232
@<TRIPOS>BOND
     1    1   36 1
     2    1   37 1
     3    1   38 1
     4    1   63 1
     5    2   39 1
     6    2   40 1
     7    2   41 1
     8    2   63 1
     9    3    4 1
    10    3   42 1
    11    3   43 1
    12    3   63 1
    13    4    5 1
    14    4   30 1
    15    4    6 1
    16    6    7 1
    17    6   44 1
    18    6   45 1
    19    7    8 1
    20    7   46 1
    21    7   47 1
    22    8   12 1
    23    8    9 1
    24    9   10 2
    25    9   48 1
    26   10   11 1
    27   10   17 1
    28   11   16 ar
    29   11   12 ar
    30   12   13 ar
    31   13   14 ar
    32   13   49 1
    33   14   15 ar
    34   14   50 1
    35   15   16 ar
    36   15   51 1
    37   16   52 1
    38   17   34 1
    39   17   18 2
    40   18   19 1
    41   18   31 1
    42   19   23 1
    43   19   20 2
    44   20   21 1
    45   20   53 1
    46   21   22 1
    47   21   28 1
    48   22   27 ar
    49   22   23 ar
    50   23   24 ar
    51   24   25 ar
    52   24   54 1
    53   25   26 ar
    54   25   55 1
    55   26   27 ar
    56   26   56 1
    57   27   57 1
    58   28   29 1
    59   28   58 1
    60   28   59 1
    61   29   30 1
    62   29   60 1
    63   29   61 1
    64   31   32 2
    65   31   33 am
    66   33   34 am
    67   33   62 1
    68   34   35 2
    69   63   64 1
