@<TRIPOS>MOLECULE
ZINC00189552
   23    24     0     0     0
SMALL
USER_CHARGES

@<TRIPOS>ATOM
      1 C1         -0.0167    1.3794    0.0096 C.ar      1 <0>        -0.1443
      2 C2          1.1684    2.0934    0.0021 C.ar      1 <0>        -0.1177
      3 C3          2.3774    1.4290   -0.0129 C.ar      1 <0>        -0.0951
      4 C4          2.4033    0.0337   -0.0206 C.ar      1 <0>         0.0387
      5 C5          1.2043   -0.6806   -0.0130 C.ar      1 <0>        -0.1317
      6 C6          0.0021   -0.0041    0.0020 C.ar      1 <0>        -0.1166
      7 C7          3.6956   -0.6849   -0.0373 C.2       1 <0>         0.1385
      8 N1          3.8440   -2.0363   -0.0513 N.pl3     1 <0>        -0.5408
      9 H1          3.1302   -2.6932   -0.0528 H         1 <0>         0.4084
     10 C8          5.1909   -2.2985   -0.0640 C.2       1 <0>        -0.0118
     11 C9          5.8303   -1.0619   -0.0569 C.2       1 <0>        -0.0229
     12 N2          4.8821   -0.1169   -0.0464 N.2       1 <0>        -0.4354
     13 C10         7.2910   -0.8337   -0.0653 C.2       1 <0>         0.5473
     14 O1          8.0583   -1.7854   -0.0797 O.co2     1 <0>        -0.6219
     15 O2          7.7316    0.3067   -0.0577 O.co2     1 <0>        -0.7145
     16 C11         5.8311   -3.6214   -0.0815 C.2       1 <0>         0.5368
     17 O3          5.1435   -4.6338   -0.0861 O.co2     1 <0>        -0.7301
     18 O4          7.0516   -3.7105   -0.0916 O.co2     1 <0>        -0.5902
     19 H2         -0.9605    1.9042    0.0260 H         1 <0>         0.1136
     20 H3          1.1469    3.1732    0.0078 H         1 <0>         0.1193
     21 H4          3.3018    1.9875   -0.0191 H         1 <0>         0.1374
     22 H5          1.2177   -1.7605   -0.0193 H         1 <0>         0.1162
     23 H6         -0.9265   -0.5556    0.0079 H         1 <0>         0.1168
@<TRIPOS>BOND
     1    1    6 ar
     2    1    2 ar
     3    1   19 1
     4    2    3 ar
     5    2   20 1
     6    3    4 ar
     7    3   21 1
     8    4    5 ar
     9    4    7 1
    10    5    6 ar
    11    5   22 1
    12    6   23 1
    13    7   12 2
    14    7    8 1
    15    8    9 1
    16    8   10 1
    17   10   11 2
    18   10   16 1
    19   11   12 1
    20   11   13 1
    21   13   14 2
    22   13   15 1
    23   16   17 2
    24   16   18 1
@<TRIPOS>MOLECULE
ZINC45350151
   18    19     0     0     0
SMALL
USER_CHARGES

@<TRIPOS>ATOM
      1 C1         -0.0170    1.3990    0.0097 C.ar      1 <0>        -0.0745
      2 C2          1.1478    2.1079    0.0024 C.ar      1 <0>        -0.1037
      3 C3          2.3709    1.4439   -0.0133 C.ar      1 <0>         0.0546
      4 C4          2.4105    0.0330   -0.0213 C.ar      1 <0>         0.0402
      5 C5          1.2112   -0.6880   -0.0124 C.ar      1 <0>        -0.0020
      6 C6          0.0021   -0.0041    0.0020 C.ar      1 <0>        -0.0568
      7 C7         -1.2299   -0.7340    0.0099 C.1       1 <0>         0.2720
      8 N1         -2.2073   -1.3130    0.0161 N.1       1 <0>        -0.4388
      9 N2          3.7044   -0.3300   -0.0365 N.2       1 <0>        -0.4635
     10 C8          4.4627    0.7373   -0.0386 C.2       1 <0>         0.2595
     11 N3          3.6786    1.8626   -0.0245 N.pl3     1 <0>        -0.5716
     12 H1          3.9894    2.7815   -0.0230 H         1 <0>         0.4292
     13 C9          5.9398    0.7306   -0.0534 C.2       1 <0>         0.5599
     14 O1          6.5463   -0.3312   -0.0653 O.co2     1 <0>        -0.6335
     15 O2          6.5560    1.7867   -0.0536 O.co2     1 <0>        -0.6705
     16 H2         -0.9619    1.9217    0.0261 H         1 <0>         0.1331
     17 H3          1.1212    3.1875    0.0085 H         1 <0>         0.1289
     18 H4          1.2255   -1.7679   -0.0184 H         1 <0>         0.1376
@<TRIPOS>BOND
     1    1    6 ar
     2    1    2 ar
     3    1   16 1
     4    2    3 ar
     5    2   17 1
     6    3   11 1
     7    3    4 ar
     8    4    5 ar
     9    4    9 1
    10    5    6 ar
    11    5   18 1
    12    6    7 1
    13    7    8 3
    14    9   10 2
    15   10   11 1
    16   10   13 1
    17   11   12 1
    18   13   14 2
    19   13   15 1
