@<TRIPOS>MOLECULE
ZINC03963016
   42    46     0     0     0
SMALL
USER_CHARGES
3-(morpholinoBLAHyl)phenol
@<TRIPOS>ATOM
      1 C1         -1.2199    1.7485    0.0174 C.ar      1 <0>        -0.1114
      2 C2         -1.2454    3.1288    0.0308 C.ar      1 <0>        -0.0774
      3 C3         -0.0514    3.8476    0.0228 C.ar      1 <0>        -0.0316
      4 C4          1.1652    3.1691    0.0075 C.ar      1 <0>        -0.0947
      5 C5          1.1814    1.7842    0.0004 C.ar      1 <0>         0.0969
      6 C6         -0.0126    1.0758    0.0080 C.ar      1 <0>        -0.1204
      7 O1          2.3662    1.1187   -0.0145 O.3       1 <0>        -0.4955
      8 C7         -0.0760    5.3307    0.0300 C.ar      1 <0>         0.3845
      9 N1          1.0710    5.9932    0.0217 N.ar      1 <0>        -0.4874
     10 C8          1.0827    7.3220    0.0274 C.ar      1 <0>         0.1715
     11 C9          2.1340    8.3518    0.0216 C.ar      1 <0>        -0.1770
     12 C10         3.5264    8.3236    0.0080 C.ar      1 <0>         0.0114
     13 C11         4.2037    9.5307    0.0066 C.ar      1 <0>        -0.1955
     14 C12         3.4805   10.7116    0.0188 C.ar      1 <0>         0.1704
     15 N2          2.1641   10.7119    0.0316 N.ar      1 <0>        -0.4762
     16 C13         1.4636    9.5855    0.0336 C.ar      1 <0>         0.3115
     17 O2          0.1349    9.3460    0.0455 O.3       1 <0>        -0.1672
     18 C14        -0.1299    8.0233    0.0423 C.ar      1 <0>        -0.0415
     19 C15        -1.3182    7.2817    0.0506 C.ar      1 <0>         0.4009
     20 N3         -1.2469    5.9562    0.0390 N.ar      1 <0>        -0.5158
     21 N4         -2.5483    7.9214    0.0658 N.pl3     1 <0>        -0.4671
     22 C16        -2.6536    8.8336    1.2139 C.3       1 <0>         0.0181
     23 C17        -3.9995    9.5613    1.1590 C.3       1 <0>         0.0659
     24 O3         -5.0560    8.5977    1.1343 O.3       1 <0>        -0.3796
     25 C18        -4.9848    7.6934    0.0286 C.3       1 <0>         0.0595
     26 C19        -3.6490    6.9468    0.0722 C.3       1 <0>         0.0258
     27 H1         -2.1460    1.1928    0.0184 H         1 <0>         0.1359
     28 H2         -2.1904    3.6515    0.0423 H         1 <0>         0.1394
     29 H3          2.0932    3.7215    0.0009 H         1 <0>         0.1435
     30 H4          0.0021   -0.0041    0.0020 H         1 <0>         0.1341
     31 H5          2.7007    0.9308   -0.9022 H         1 <0>         0.3927
     32 H6          4.0626    7.3862   -0.0010 H         1 <0>         0.1508
     33 H7          5.2835    9.5514   -0.0034 H         1 <0>         0.1556
     34 H8          4.0084   11.6537    0.0174 H         1 <0>         0.1815
     35 H9         -2.5862    8.2625    2.1399 H         1 <0>         0.0633
     36 H10        -1.8440    9.5623    1.1753 H         1 <0>         0.1014
     37 H11        -4.0451   10.1746    0.2590 H         1 <0>         0.0678
     38 H12        -4.1066   10.1965    2.0382 H         1 <0>         0.1107
     39 H13        -5.0591    8.2524   -0.9042 H         1 <0>         0.0641
     40 H14        -5.8042    6.9772    0.0900 H         1 <0>         0.1096
     41 H15        -3.5659    6.2983   -0.8000 H         1 <0>         0.1026
     42 H16        -3.5970    6.3450    0.9795 H         1 <0>         0.0691
@<TRIPOS>BOND
     1    1    6 ar
     2    1    2 ar
     3    1   27 1
     4    2    3 ar
     5    2   28 1
     6    3    4 ar
     7    3    8 1
     8    4    5 ar
     9    4   29 1
    10    5    6 ar
    11    5    7 1
    12    6   30 1
    13    7   31 1
    14    8   20 ar
    15    8    9 ar
    16    9   10 ar
    17   10   18 ar
    18   10   11 1
    19   11   16 ar
    20   11   12 ar
    21   12   13 ar
    22   12   32 1
    23   13   14 ar
    24   13   33 1
    25   14   15 ar
    26   14   34 1
    27   15   16 ar
    28   16   17 1
    29   17   18 1
    30   18   19 ar
    31   19   20 ar
    32   19   21 1
    33   21   26 1
    34   21   22 1
    35   22   23 1
    36   22   35 1
    37   22   36 1
    38   23   24 1
    39   23   37 1
    40   23   38 1
    41   24   25 1
    42   25   26 1
    43   25   39 1
    44   25   40 1
    45   26   41 1
    46   26   42 1
@<TRIPOS>MOLECULE
ZINC28642528
   39    42     0     0     0
SMALL
USER_CHARGES
4-(6-chloroimidazo[1,2-a]pyridin-3-yl)-2-(2-methyl-5-nitro-phenyl)sulfonyl-thiazole
@<TRIPOS>ATOM
      1 C1         -2.5598    1.0048    0.0692 C.3       1 <0>        -0.1877
      2 C2         -1.2623    1.7712    0.0759 C.ar      1 <0>         0.0782
      3 C3         -0.0582    1.0919    0.0904 C.ar      1 <0>        -0.1371
      4 C4          1.1319    1.7948    0.0909 C.ar      1 <0>         0.0076
      5 C5          1.1182    3.1772    0.0822 C.ar      1 <0>        -0.0717
      6 C6         -0.0856    3.8564    0.0730 C.ar      1 <0>         0.0515
      7 C7         -1.2760    3.1533    0.0725 C.ar      1 <0>        -0.6745
      8 S1         -2.8105    4.0191    0.0603 S.o2      1 <0>         2.6232
      9 O1         -3.6089    3.4452    1.0862 O.2       1 <0>        -0.8847
     10 O2         -2.4951    5.4042    0.0254 O.2       1 <0>        -0.9010
     11 C8         -3.6073    3.6454   -1.4663 C.2       1 <0>        -0.5016
     12 N1         -4.4356    2.6672   -1.7417 N.2       1 <0>        -0.3738
     13 C9         -4.9545    2.5209   -2.9518 C.2       1 <0>         0.1306
     14 C10        -4.5981    3.4284   -3.9152 C.2       1 <0>        -0.1981
     15 S2         -3.4992    4.4843   -2.9823 S.3       1 <0>         0.2476
     16 C11        -5.8886    1.4144   -3.2533 C.2       1 <0>        -0.0183
     17 C12        -6.2294    0.3881   -2.4206 C.2       1 <0>         0.0999
     18 N2         -7.0961   -0.4003   -3.0543 N.2       1 <0>        -0.4774
     19 C13        -7.3203    0.0779   -4.2714 C.2       1 <0>         0.2376
     20 N3         -6.5755    1.2194   -4.4283 N.pl3     1 <0>        -0.3481
     21 C14        -6.6191    1.9194   -5.6000 C.2       1 <0>         0.0543
     22 C15        -7.3949    1.4994   -6.6227 C.2       1 <0>        -0.0479
     23 C16        -8.1692    0.3336   -6.4918 C.2       1 <0>        -0.0929
     24 C17        -8.1345   -0.3723   -5.3292 C.2       1 <0>        -0.0542
     25 Cl1        -7.4368    2.4034   -8.1042 Cl        1 <0>        -0.0244
     26 N4          2.3927    3.9300    0.0821 N.pl3     1 <0>         0.0268
     27 O3          3.4534    3.3315    0.0898 O.2       1 <0>        -0.1501
     28 O4          2.3806    5.1479    0.0745 O.3       1 <0>        -0.1474
     29 H1         -2.3481   -0.0746    0.0732 H         1 <0>         0.0964
     30 H2         -3.1333    1.2627   -0.8334 H         1 <0>         0.1053
     31 H3         -3.1451    1.2670    0.9629 H         1 <0>         0.1241
     32 H4         -0.0475    0.0119    0.0969 H         1 <0>         0.1622
     33 H5          2.0724    1.2641    0.0977 H         1 <0>         0.1661
     34 H6         -0.0962    4.9363    0.0658 H         1 <0>         0.1779
     35 H7         -4.9008    3.4905   -4.9501 H         1 <0>         0.2072
     36 H8         -5.8605    0.2414   -1.4162 H         1 <0>         0.1963
     37 H9         -6.0277    2.8163   -5.7100 H         1 <0>         0.1693
     38 H10        -8.7888   -0.0006   -7.3108 H         1 <0>         0.1597
     39 H11        -8.7253   -1.2696   -5.2185 H         1 <0>         0.1694
@<TRIPOS>BOND
     1    1    2 1
     2    1   29 1
     3    1   30 1
     4    1   31 1
     5    2    7 ar
     6    2    3 ar
     7    3    4 ar
     8    3   32 1
     9    4    5 ar
    10    4   33 1
    11    5    6 ar
    12    5   26 1
    13    6    7 ar
    14    6   34 1
    15    7    8 1
    16    8    9 2
    17    8   10 2
    18    8   11 1
    19   11   15 1
    20   11   12 2
    21   12   13 1
    22   13   14 2
    23   13   16 1
    24   14   15 1
    25   14   35 1
    26   16   20 1
    27   16   17 2
    28   17   18 1
    29   17   36 1
    30   18   19 2
    31   19   24 1
    32   19   20 1
    33   20   21 1
    34   21   22 2
    35   21   37 1
    36   22   23 1
    37   22   25 1
    38   23   24 2
    39   23   38 1
    40   24   39 1
    41   26   27 2
    42   26   28 1
@<TRIPOS>MOLECULE
ZINC27646798
   37    40     0     0     0
SMALL
USER_CHARGES
3-(4-morpholinothieno[3,2-d]pyrimidin-2-yl)phenol
@<TRIPOS>ATOM
      1 C1         -1.2199    1.7485    0.0173 C.ar      1 <0>        -0.0892
      2 C2         -1.2454    3.1288    0.0298 C.ar      1 <0>        -0.1126
      3 C3         -0.0514    3.8476    0.0223 C.ar      1 <0>        -0.0081
      4 C4          1.1652    3.1691    0.0075 C.ar      1 <0>        -0.1131
      5 C5          1.1814    1.7842    0.0004 C.ar      1 <0>         0.1468
      6 C6         -0.0126    1.0758    0.0080 C.ar      1 <0>        -0.1927
      7 O1          2.3662    1.1187   -0.0145 O.3       1 <0>        -0.5085
      8 C7         -0.0760    5.3307    0.0295 C.ar      1 <0>         0.3925
      9 N1          1.0716    5.9741    0.0216 N.ar      1 <0>        -0.5030
     10 C8          1.1211    7.3278    0.0275 C.ar      1 <0>         0.1897
     11 C9          2.2454    8.1729    0.0212 C.2       1 <0>        -0.1560
     12 C10         2.0874    9.5099    0.0298 C.2       1 <0>        -0.1082
     13 S1          0.3128    9.7024    0.0473 S.3       1 <0>         0.0987
     14 C11        -0.1289    7.9855    0.0425 C.ar      1 <0>        -0.2646
     15 C12        -1.3162    7.2724    0.0507 C.ar      1 <0>         0.4224
     16 N2         -1.2564    5.9419    0.0383 N.ar      1 <0>        -0.5299
     17 N3         -2.5370    7.9274    0.0650 N.pl3     1 <0>        -0.4689
     18 C13        -2.6310    8.8416    1.2125 C.3       1 <0>         0.0169
     19 C14        -3.9673    9.5866    1.1565 C.3       1 <0>         0.0634
     20 O2         -5.0362    8.6368    1.1320 O.3       1 <0>        -0.3790
     21 C15        -4.9762    7.7309    0.0269 C.3       1 <0>         0.0577
     22 C16        -3.6502    6.9671    0.0715 C.3       1 <0>         0.0252
     23 H1         -2.1460    1.1927    0.0191 H         1 <0>         0.1309
     24 H2         -2.1904    3.6515    0.0409 H         1 <0>         0.1364
     25 H3          2.0932    3.7215    0.0012 H         1 <0>         0.1426
     26 H4          0.0021   -0.0041    0.0020 H         1 <0>         0.1300
     27 H5          2.3792    0.0188   -0.0201 H         1 <0>         0.4347
     28 H6          3.2383    7.7480    0.0097 H         1 <0>         0.1535
     29 H7          2.8474   10.2773    0.0272 H         1 <0>         0.2047
     30 H8         -2.5696    8.2646    2.1470 H         1 <0>         0.0647
     31 H9         -1.8036    9.5654    1.1735 H         1 <0>         0.0973
     32 H10        -4.0660   10.2298    2.0434 H         1 <0>         0.1117
     33 H11        -4.0039   10.2062    0.2484 H         1 <0>         0.0678
     34 H12        -5.8133    7.0201    0.0897 H         1 <0>         0.1102
     35 H13        -5.0447    8.2958   -0.9145 H         1 <0>         0.0643
     36 H14        -3.5732    6.3106   -0.8077 H         1 <0>         0.1032
     37 H15        -3.6053    6.3598    0.9876 H         1 <0>         0.0685
@<TRIPOS>BOND
     1    1    6 ar
     2    1    2 ar
     3    1   23 1
     4    2    3 ar
     5    2   24 1
     6    3    4 ar
     7    3    8 1
     8    4    5 ar
     9    4   25 1
    10    5    6 ar
    11    5    7 1
    12    6   26 1
    13    7   27 1
    14    8   16 ar
    15    8    9 ar
    16    9   10 ar
    17   10   14 ar
    18   10   11 1
    19   11   12 2
    20   11   28 1
    21   12   13 1
    22   12   29 1
    23   13   14 1
    24   14   15 ar
    25   15   16 ar
    26   15   17 1
    27   17   22 1
    28   17   18 1
    29   18   19 1
    30   18   30 1
    31   18   31 1
    32   19   20 1
    33   19   32 1
    34   19   33 1
    35   20   21 1
    36   21   22 1
    37   21   34 1
    38   21   35 1
    39   22   36 1
    40   22   37 1
@<TRIPOS>MOLECULE
ZINC28652818
   41    43     0     0     0
SMALL
USER_CHARGES

@<TRIPOS>ATOM
      1 C1          0.3557    1.3635   -0.3008 C.3       1 <0>        -0.1879
      2 C2          0.5315   -0.1323   -0.2509 C.ar      1 <0>         0.0663
      3 C3          0.7071   -0.8472   -1.4213 C.ar      1 <0>        -0.1375
      4 C4          0.8683   -2.2191   -1.3755 C.ar      1 <0>         0.0033
      5 C5          0.8546   -2.8766   -0.1593 C.ar      1 <0>        -0.0742
      6 C6          0.6800   -2.1619    1.0107 C.ar      1 <0>         0.0555
      7 C7          0.5230   -0.7890    0.9652 C.ar      1 <0>        -0.6840
      8 S1          0.3065    0.1229    2.4573 S.o2      1 <0>         2.7206
      9 O1         -0.8241    0.9610    2.2606 O.2       1 <0>        -0.9295
     10 O2          0.3832   -0.8155    3.5216 O.2       1 <0>        -0.9174
     11 N1          1.6163    1.1240    2.6137 N.pl3     1 <0>        -0.8462
     12 C8          1.4903    2.5495    2.3001 C.3       1 <0>         0.0283
     13 N2          2.8449    0.6078    3.0459 N.2       1 <0>        -0.2167
     14 C9          3.8734    1.3939    3.1687 C.2       1 <0>         0.1615
     15 C10         5.1597    0.8535    3.6212 C.2       1 <0>        -0.0534
     16 C11         5.4345   -0.4596    3.9465 C.2       1 <0>         0.1136
     17 N3          6.7110   -0.5407    4.3087 N.2       1 <0>        -0.4816
     18 C12         7.2744    0.6597    4.2325 C.2       1 <0>         0.2477
     19 N4          6.3319    1.5562    3.7991 N.pl3     1 <0>        -0.3475
     20 C13         6.6529    2.8712    3.6276 C.2       1 <0>         0.0941
     21 C14         7.9053    3.3115    3.8785 C.2       1 <0>        -0.1118
     22 C15         8.8940    2.4167    4.3204 C.2       1 <0>        -0.0779
     23 C16         8.5830    1.1042    4.5031 C.2       1 <0>        -0.0635
     24 Br1         8.3288    5.1382    3.6335 Br        1 <0>        -0.0023
     25 N5          1.0263   -4.3459   -0.1104 N.pl3     1 <0>         0.0322
     26 O3          1.1786   -4.9712   -1.1339 O.2       1 <0>        -0.1512
     27 O4          1.0143   -4.9209    0.9531 O.3       1 <0>        -0.1448
     28 H1          1.3132    1.8485   -0.1108 H         1 <0>         0.0971
     29 H2         -0.0093    1.6538   -1.2860 H         1 <0>         0.1013
     30 H3         -0.3640    1.6703    0.4582 H         1 <0>         0.1139
     31 H4          0.7178   -0.3336   -2.3713 H         1 <0>         0.1591
     32 H5          1.0048   -2.7776   -2.2898 H         1 <0>         0.1645
     33 H6          0.6689   -2.6755    1.9607 H         1 <0>         0.1759
     34 H7          1.2939    3.1071    3.2159 H         1 <0>         0.0797
     35 H8          2.4167    2.9057    1.8495 H         1 <0>         0.0820
     36 H9          0.6666    2.6965    1.6015 H         1 <0>         0.1041
     37 H10         3.7806    2.4448    2.9375 H         1 <0>         0.1306
     38 H11         4.7330   -1.2800    3.9129 H         1 <0>         0.1976
     39 H12         5.8992    3.5661    3.2878 H         1 <0>         0.1732
     40 H13         9.8948    2.7699    4.5203 H         1 <0>         0.1576
     41 H14         9.3362    0.4077    4.8406 H         1 <0>         0.1676
@<TRIPOS>BOND
     1    1    2 1
     2    1   28 1
     3    1   29 1
     4    1   30 1
     5    2    7 ar
     6    2    3 ar
     7    3    4 ar
     8    3   31 1
     9    4    5 ar
    10    4   32 1
    11    5    6 ar
    12    5   25 1
    13    6    7 ar
    14    6   33 1
    15    7    8 1
    16    8    9 2
    17    8   10 2
    18    8   11 1
    19   11   12 1
    20   11   13 1
    21   12   34 1
    22   12   35 1
    23   12   36 1
    24   13   14 2
    25   14   15 1
    26   14   37 1
    27   15   19 1
    28   15   16 2
    29   16   17 1
    30   16   38 1
    31   17   18 2
    32   18   23 1
    33   18   19 1
    34   19   20 1
    35   20   21 2
    36   20   39 1
    37   21   22 1
    38   21   24 1
    39   22   23 2
    40   22   40 1
    41   23   41 1
    42   25   26 2
    43   25   27 1
@<TRIPOS>MOLECULE
ZINC28641115
   37    40     0     0     0
SMALL
USER_CHARGES
4-(6-chloroimidazo[1,2-a]pyridin-3-yl)-2-(2-methyl-5-nitro-phenyl)sulfanyl-thiazole
@<TRIPOS>ATOM
      1 C1         -1.1316    3.4629    2.4940 C.3       1 <0>        -0.1429
      2 C2         -0.5590    2.9394    1.2020 C.ar      1 <0>         0.0344
      3 C3          0.6447    2.2632    1.2031 C.ar      1 <0>        -0.1250
      4 C4          1.1683    1.7774    0.0186 C.ar      1 <0>        -0.0095
      5 C5          0.4912    1.9713   -1.1724 C.ar      1 <0>        -0.0198
      6 C6         -0.7103    2.6505   -1.1826 C.ar      1 <0>         0.0197
      7 C7         -1.2402    3.1406    0.0064 C.ar      1 <0>        -0.1933
      8 S1         -2.7735    4.0088   -0.0013 S.3       1 <0>         0.1974
      9 C8         -2.1902    5.6615    0.1801 C.2       1 <0>         0.0251
     10 N1         -2.8962    6.7670    0.3312 N.2       1 <0>        -0.4506
     11 C9         -2.3018    7.9399    0.4599 C.2       1 <0>         0.1656
     12 C10        -0.8293    7.9365    0.4118 C.2       1 <0>        -0.2909
     13 S2         -0.5040    6.2441    0.1961 S.3       1 <0>         0.1286
     14 C11        -3.0321    9.1232    0.6275 C.2       1 <0>        -0.0505
     15 C12        -4.4331    9.2425    0.8098 C.2       1 <0>         0.1340
     16 N2         -4.7174   10.5130    0.9306 N.2       1 <0>        -0.4818
     17 C13        -3.5966   11.2519    0.8316 C.2       1 <0>         0.2181
     18 N3         -2.5321   10.4189    0.6429 N.pl3     1 <0>        -0.3184
     19 C14        -1.2750   10.9112    0.5112 C.2       1 <0>         0.0505
     20 C15        -1.0435   12.2547    0.5633 C.2       1 <0>        -0.0432
     21 C16        -2.1067   13.1351    0.7548 C.2       1 <0>        -0.0989
     22 C17        -3.3925   12.6304    0.8899 C.2       1 <0>        -0.0522
     23 Cl1         0.5722   12.8662    0.3929 Cl        1 <0>        -0.0243
     24 N4          1.0559    1.4493   -2.4371 N.pl3     1 <0>        -0.0218
     25 O1          2.2021    0.8008   -2.4283 O.2       1 <0>        -0.1594
     26 O2          0.4122    1.6334   -3.5712 O.3       1 <0>        -0.1594
     27 H1         -0.4561    3.2086    3.3241 H         1 <0>         0.0878
     28 H2         -2.1168    3.0065    2.6700 H         1 <0>         0.1031
     29 H3         -1.2397    4.5558    2.4309 H         1 <0>         0.0841
     30 H4          1.1761    2.1095    2.1307 H         1 <0>         0.1614
     31 H5          2.1079    1.2449    0.0234 H         1 <0>         0.1655
     32 H6         -1.2382    2.8014   -2.1127 H         1 <0>         0.1698
     33 H7         -0.1387    8.7632    0.4893 H         1 <0>         0.1954
     34 H8         -5.1405    8.4273    0.8449 H         1 <0>         0.1986
     35 H9         -0.4483   10.2322    0.3627 H         1 <0>         0.1735
     36 H10        -1.9318   14.2000    0.7972 H         1 <0>         0.1603
     37 H11        -4.2275   13.2990    1.0385 H         1 <0>         0.1693
@<TRIPOS>BOND
     1    1    2 1
     2    1   27 1
     3    1   28 1
     4    1   29 1
     5    2    7 ar
     6    2    3 ar
     7    3    4 ar
     8    3   30 1
     9    4    5 ar
    10    4   31 1
    11    5    6 ar
    12    5   24 1
    13    6    7 ar
    14    6   32 1
    15    7    8 1
    16    8    9 1
    17    9   13 1
    18    9   10 2
    19   10   11 1
    20   11   12 2
    21   11   14 1
    22   12   13 1
    23   12   33 1
    24   14   18 1
    25   14   15 2
    26   15   16 1
    27   15   34 1
    28   16   17 2
    29   17   22 1
    30   17   18 1
    31   18   19 1
    32   19   20 2
    33   19   35 1
    34   20   21 1
    35   20   23 1
    36   21   22 2
    37   21   36 1
    38   22   37 1
    39   24   25 2
    40   24   26 1
@<TRIPOS>MOLECULE
ZINC37858693
   41    44     0     0     0
SMALL
USER_CHARGES

@<TRIPOS>ATOM
      1 C1          0.5160    2.1016    0.8389 C.ar      1 <0>        -0.0994
      2 C2          1.7856    2.6500    0.8665 C.ar      1 <0>        -0.1121
      3 C3          2.8922    1.8441    0.6914 C.ar      1 <0>        -0.0943
      4 C4          2.7287    0.4752    0.4869 C.ar      1 <0>        -0.0732
      5 C5          1.4472   -0.0719    0.4605 C.ar      1 <0>        -0.1006
      6 C6          0.3478    0.7436    0.6363 C.ar      1 <0>        -0.1173
      7 C7          3.9141   -0.3959    0.2976 C.ar      1 <0>        -0.0335
      8 C8          4.8973   -0.0477   -0.6237 C.ar      1 <0>        -0.0260
      9 C9          6.0057   -0.8554   -0.8057 C.ar      1 <0>        -0.1150
     10 C10         6.1509   -2.0173   -0.0765 C.ar      1 <0>        -0.0276
     11 C11         5.1749   -2.3827    0.8521 C.ar      1 <0>        -0.1580
     12 C12         4.0513   -1.5679    1.0483 C.ar      1 <0>         0.1530
     13 O1          3.1107   -1.9210    1.9513 O.3       1 <0>        -0.2119
     14 C13         3.2233   -3.0458    2.6842 C.2       1 <0>         0.5161
     15 C14         4.3307   -3.9124    2.5453 C.2       1 <0>        -0.3925
     16 C15         5.3074   -3.6191    1.6424 C.2       1 <0>         0.3444
     17 O2          6.3792   -4.4322    1.4880 O.3       1 <0>        -0.4181
     18 N1          2.2825   -3.3434    3.5479 N.pl3     1 <0>        -0.4926
     19 C16         2.4343   -4.4783    4.4722 C.3       1 <0>         0.0520
     20 C17         2.1323   -3.9883    5.8930 C.3       1 <0>         0.0436
     21 O3          0.8653   -3.3262    5.9032 O.3       1 <0>        -0.3612
     22 C18         0.8098   -2.1560    5.0839 C.3       1 <0>         0.0453
     23 C19         1.0465   -2.5487    3.6254 C.3       1 <0>         0.0388
     24 H1         -0.3469    2.7354    0.9805 H         1 <0>         0.1315
     25 H2          1.9111    3.7109    1.0251 H         1 <0>         0.1335
     26 H3          3.8830    2.2735    0.7124 H         1 <0>         0.1299
     27 H4          1.3146   -1.1320    0.3020 H         1 <0>         0.1182
     28 H5         -0.6458    0.3207    0.6159 H         1 <0>         0.1304
     29 H6          4.7942    0.8593   -1.2010 H         1 <0>         0.1606
     30 H7          6.7620   -0.5746   -1.5237 H         1 <0>         0.1586
     31 H8          7.0184   -2.6435   -0.2242 H         1 <0>         0.1605
     32 H9          4.3974   -4.8082    3.1449 H         1 <0>         0.1871
     33 H10         1.7353   -5.2692    4.2004 H         1 <0>         0.1243
     34 H11         3.4552   -4.8572    4.4238 H         1 <0>         0.1224
     35 H12         2.1038   -4.8394    6.5733 H         1 <0>         0.1345
     36 H13         2.9091   -3.2929    6.2111 H         1 <0>         0.0713
     37 H14        -0.1702   -1.6889    5.1820 H         1 <0>         0.1322
     38 H15         1.5817   -1.4539    5.3990 H         1 <0>         0.0698
     39 H16         1.1488   -1.6504    3.0165 H         1 <0>         0.1219
     40 H17         0.2054   -3.1421    3.2669 H         1 <0>         0.1210
     41 H18         6.3643   -5.2148    2.0559 H         1 <0>         0.4327
@<TRIPOS>BOND
     1    1    6 ar
     2    1    2 ar
     3    1   24 1
     4    2    3 ar
     5    2   25 1
     6    3    4 ar
     7    3   26 1
     8    4    5 ar
     9    4    7 1
    10    5    6 ar
    11    5   27 1
    12    6   28 1
    13    7   12 ar
    14    7    8 ar
    15    8    9 ar
    16    8   29 1
    17    9   10 ar
    18    9   30 1
    19   10   11 ar
    20   10   31 1
    21   11   16 1
    22   11   12 ar
    23   12   13 1
    24   13   14 1
    25   14   15 1
    26   14   18 2
    27   15   16 2
    28   15   32 1
    29   16   17 1
    30   17   41 1
    31   18   23 1
    32   18   19 1
    33   19   20 1
    34   19   33 1
    35   19   34 1
    36   20   21 1
    37   20   35 1
    38   20   36 1
    39   21   22 1
    40   22   23 1
    41   22   37 1
    42   22   38 1
    43   23   39 1
    44   23   40 1
@<TRIPOS>MOLECULE
ZINC37858693
   40    43     0     0     0
SMALL
USER_CHARGES

@<TRIPOS>ATOM
      1 C1          0.2876    1.8369    0.5003 C.ar      1 <0>        -0.1138
      2 C2          1.5256    2.4537    0.5196 C.ar      1 <0>        -0.1178
      3 C3          2.6766    1.7000    0.4106 C.ar      1 <0>        -0.1031
      4 C4          2.5899    0.3150    0.2813 C.ar      1 <0>        -0.0464
      5 C5          1.3398   -0.3010    0.2629 C.ar      1 <0>        -0.0972
      6 C6          0.1955    0.4627    0.3722 C.ar      1 <0>        -0.1190
      7 C7          3.8233   -0.5002    0.1633 C.ar      1 <0>        -0.0659
      8 C8          4.8057   -0.1521   -0.7576 C.ar      1 <0>        -0.0509
      9 C9          5.9596   -0.9073   -0.8735 C.ar      1 <0>        -0.1421
     10 C10         6.1511   -2.0171   -0.0767 C.ar      1 <0>        -0.0303
     11 C11         5.1771   -2.3805    0.8515 C.ar      1 <0>        -0.2132
     12 C12         4.0070   -1.6203    0.9822 C.ar      1 <0>         0.1636
     13 O1          3.0722   -1.9773    1.8869 O.3       1 <0>        -0.2401
     14 C13         3.2188   -3.0440    2.6844 C.2       1 <0>         0.4332
     15 C14         4.3202   -3.8451    2.6409 C.2       1 <0>        -0.4014
     16 C15         5.3485   -3.5630    1.7210 C.2       1 <0>         0.4330
     17 O2          6.3487   -4.2595    1.6546 O.2       1 <0>        -0.4871
     18 N1          2.2228   -3.3404    3.5787 N.pl3     1 <0>        -0.6054
     19 C16         2.5307   -3.9598    4.8776 C.3       1 <0>         0.0933
     20 C17         1.8423   -3.1437    5.9776 C.3       1 <0>         0.0440
     21 O3          0.4569   -2.9961    5.6571 O.3       1 <0>        -0.3749
     22 C18         0.2096   -2.2766    4.4468 C.3       1 <0>         0.0453
     23 C19         0.8149   -3.0430    3.2707 C.3       1 <0>         0.0807
     24 H1         -0.6104    2.4302    0.5900 H         1 <0>         0.1241
     25 H2          1.5916    3.5270    0.6198 H         1 <0>         0.1260
     26 H3          3.6427    2.1826    0.4251 H         1 <0>         0.1253
     27 H4          1.2668   -1.3738    0.1627 H         1 <0>         0.1192
     28 H5         -0.7737   -0.0136    0.3580 H         1 <0>         0.1249
     29 H6          4.6668    0.7142   -1.3874 H         1 <0>         0.1424
     30 H7          6.7148   -0.6263   -1.5926 H         1 <0>         0.1401
     31 H8          7.0533   -2.6030   -0.1722 H         1 <0>         0.1447
     32 H9          4.4000   -4.6957    3.3015 H         1 <0>         0.1539
     33 H10         2.1587   -4.9842    4.8932 H         1 <0>         0.0888
     34 H11         3.6087   -3.9576    5.0390 H         1 <0>         0.1017
     35 H12         1.9421   -3.6615    6.9316 H         1 <0>         0.1144
     36 H13         2.3070   -2.1601    6.0461 H         1 <0>         0.0589
     37 H14        -0.8652   -2.1705    4.2994 H         1 <0>         0.1109
     38 H15         0.6683   -1.2898    4.5097 H         1 <0>         0.0586
     39 H16         0.7573   -2.4341    2.3685 H         1 <0>         0.0961
     40 H17         0.2673   -3.9736    3.1217 H         1 <0>         0.0853
@<TRIPOS>BOND
     1    1    6 ar
     2    1    2 ar
     3    1   24 1
     4    2    3 ar
     5    2   25 1
     6    3    4 ar
     7    3   26 1
     8    4    5 ar
     9    4    7 1
    10    5    6 ar
    11    5   27 1
    12    6   28 1
    13    7   12 ar
    14    7    8 ar
    15    8    9 ar
    16    8   29 1
    17    9   10 ar
    18    9   30 1
    19   10   11 ar
    20   10   31 1
    21   11   16 1
    22   11   12 ar
    23   12   13 1
    24   13   14 1
    25   14   15 2
    26   14   18 1
    27   15   16 1
    28   15   32 1
    29   16   17 2
    30   18   23 1
    31   18   19 1
    32   19   20 1
    33   19   33 1
    34   19   34 1
    35   20   21 1
    36   20   35 1
    37   20   36 1
    38   21   22 1
    39   22   23 1
    40   22   37 1
    41   22   38 1
    42   23   39 1
    43   23   40 1
