@<TRIPOS>MOLECULE
ZINC01437546
   39    41     0     0     0
SMALL
USER_CHARGES

@<TRIPOS>ATOM
      1 C1         -0.0173    1.4248    0.0099 C.3       1 <0>         0.0220
      2 O1          0.0021   -0.0041    0.0020 O.3       1 <0>        -0.3084
      3 C2          0.6260   -0.6185    1.0418 C.ar      1 <0>         0.1495
      4 C3          1.2021    0.1396    2.0509 C.ar      1 <0>        -0.1920
      5 C4          1.8359   -0.4840    3.1071 C.ar      1 <0>        -0.0471
      6 C5          1.8967   -1.8700    3.1594 C.ar      1 <0>         0.0759
      7 C6          1.3201   -2.6282    2.1495 C.ar      1 <0>        -0.0689
      8 C7          0.6816   -2.0038    1.0965 C.ar      1 <0>        -0.1269
      9 N1          2.5411   -2.5043    4.2325 N.pl3     1 <0>        -0.3026
     10 C8          2.2005   -3.6783    4.8207 C.2       1 <0>         0.2029
     11 N2          3.0728   -3.8956    5.7815 N.2       1 <0>        -0.3312
     12 N3          3.9313   -2.9422    5.8338 N.2       1 <0>        -0.0250
     13 N4          3.6822   -2.0627    4.9250 N.2       1 <0>        -0.0706
     14 S1          0.8460   -4.7160    4.3812 S.3       1 <0>         0.1014
     15 C9          0.9594   -6.1024    5.5455 C.3       1 <0>        -0.1842
     16 C10        -0.1570   -7.0780    5.2752 C.2       1 <0>         0.4229
     17 O2         -0.9510   -6.8594    4.3847 O.2       1 <0>        -0.4296
     18 C11        -0.2835   -8.2932    6.0900 C.ar      1 <0>        -0.1612
     19 C12         0.6285   -8.5446    7.1222 C.ar      1 <0>        -0.0605
     20 C13         0.5073   -9.6844    7.8848 C.ar      1 <0>        -0.1420
     21 C14        -0.5180  -10.5873    7.6330 C.ar      1 <0>         0.1223
     22 C15        -1.4306  -10.3442    6.6066 C.ar      1 <0>         0.0696
     23 C16        -1.3201   -9.2011    5.8407 C.ar      1 <0>        -0.0649
     24 O3         -2.4324  -11.2312    6.3634 O.3       1 <0>        -0.4827
     25 O4         -0.6317  -11.7099    8.3878 O.3       1 <0>        -0.4851
     26 H1          1.0053    1.8021    0.0021 H         1 <0>         0.0605
     27 H2         -0.5445    1.7859   -0.8732 H         1 <0>         0.1065
     28 H3         -0.5275    1.7763    0.9067 H         1 <0>         0.0605
     29 H4          1.1550    1.2178    2.0099 H         1 <0>         0.1453
     30 H5          2.2846    0.1062    3.8924 H         1 <0>         0.1420
     31 H6          1.3674   -3.7064    2.1895 H         1 <0>         0.1467
     32 H7          0.2291   -2.5936    0.3131 H         1 <0>         0.1510
     33 H8          1.9188   -6.6044    5.4204 H         1 <0>         0.1399
     34 H9          0.8756   -5.7279    6.5657 H         1 <0>         0.1393
     35 H10         1.4270   -7.8448    7.3198 H         1 <0>         0.1440
     36 H11         1.2114   -9.8773    8.6808 H         1 <0>         0.1450
     37 H12        -2.0285   -9.0097    5.0483 H         1 <0>         0.1483
     38 H13        -3.2435  -11.0541    6.8593 H         1 <0>         0.3913
     39 H14        -1.1857  -11.6014    9.1730 H         1 <0>         0.3961
@<TRIPOS>BOND
     1    1    2 1
     2    1   26 1
     3    1   27 1
     4    1   28 1
     5    2    3 1
     6    3    8 ar
     7    3    4 ar
     8    4    5 ar
     9    4   29 1
    10    5    6 ar
    11    5   30 1
    12    6    7 ar
    13    6    9 1
    14    7    8 ar
    15    7   31 1
    16    8   32 1
    17    9   13 1
    18    9   10 1
    19   10   11 2
    20   10   14 1
    21   11   12 1
    22   12   13 2
    23   14   15 1
    24   15   16 1
    25   15   33 1
    26   15   34 1
    27   16   17 2
    28   16   18 1
    29   18   23 ar
    30   18   19 ar
    31   19   20 ar
    32   19   35 1
    33   20   21 ar
    34   20   36 1
    35   21   22 ar
    36   21   25 1
    37   22   23 ar
    38   22   24 1
    39   23   37 1
    40   24   38 1
    41   25   39 1
@<TRIPOS>MOLECULE
ZINC13209838
   26    27     0     0     0
SMALL
USER_CHARGES

@<TRIPOS>ATOM
      1 C1         -0.0169    1.3955    0.0097 C.ar      1 <0>        -0.0655
      2 C2          1.1666    2.0997    0.0022 C.ar      1 <0>        -0.1412
      3 C3          2.3803    1.4250   -0.0130 C.ar      1 <0>         0.1204
      4 C4          2.4077    0.0300   -0.0208 C.ar      1 <0>         0.0717
      5 C5          1.2268   -0.6837   -0.0133 C.ar      1 <0>        -0.0675
      6 C6          0.0021   -0.0041    0.0020 C.ar      1 <0>        -0.1649
      7 C7         -1.2584   -0.7577    0.0100 C.2       1 <0>         0.3791
      8 O1         -1.2399   -1.9705    0.0033 O.2       1 <0>        -0.4230
      9 C8         -2.5747   -0.0243    0.0265 C.3       1 <0>         0.0621
     10 N1         -3.6736   -0.9932    0.0318 N.pl3     1 <0>        -0.4557
     11 C9         -4.2896   -1.5287   -1.0670 C.2       1 <0>        -0.0511
     12 C10        -5.2379   -2.3692   -0.6112 C.2       1 <0>        -0.0247
     13 N2         -5.2019   -2.3476    0.7294 N.2       1 <0>        -0.4910
     14 C11        -4.2639   -1.5294    1.1216 C.2       1 <0>         0.1893
     15 O2          3.5987   -0.6264   -0.0361 O.3       1 <0>        -0.4831
     16 O3          3.5435    2.1248   -0.0208 O.3       1 <0>        -0.4849
     17 H1         -0.9592    1.9229    0.0261 H         1 <0>         0.1412
     18 H2          1.1507    3.1796    0.0078 H         1 <0>         0.1448
     19 H3          1.2468   -1.7635   -0.0197 H         1 <0>         0.1462
     20 H4         -2.6335    0.5966    0.9204 H         1 <0>         0.1316
     21 H5         -2.6505    0.6062   -0.8594 H         1 <0>         0.1295
     22 H6         -4.0596   -1.3174   -2.1009 H         1 <0>         0.1738
     23 H7         -5.9097   -2.9575   -1.2186 H         1 <0>         0.1712
     24 H8         -4.0045   -1.3147    2.1478 H         1 <0>         0.2035
     25 H9          3.9519   -0.8210    0.8428 H         1 <0>         0.3920
     26 H10         3.8891    2.3231    0.8603 H         1 <0>         0.3962
@<TRIPOS>BOND
     1    1    6 ar
     2    1    2 ar
     3    1   17 1
     4    2    3 ar
     5    2   18 1
     6    3    4 ar
     7    3   16 1
     8    4    5 ar
     9    4   15 1
    10    5    6 ar
    11    5   19 1
    12    6    7 1
    13    7    8 2
    14    7    9 1
    15    9   10 1
    16    9   20 1
    17    9   21 1
    18   10   14 1
    19   10   11 1
    20   11   12 2
    21   11   22 1
    22   12   13 1
    23   12   23 1
    24   13   14 2
    25   14   24 1
    26   15   25 1
    27   16   26 1
@<TRIPOS>MOLECULE
ZINC13209838
   27    28     0     0     0
SMALL
USER_CHARGES

@<TRIPOS>ATOM
      1 C1         -0.0169    1.3955    0.0097 C.ar      1 <0>        -0.0643
      2 C2          1.1666    2.0997    0.0022 C.ar      1 <0>        -0.1407
      3 C3          2.3803    1.4250   -0.0130 C.ar      1 <0>         0.1370
      4 C4          2.4077    0.0300   -0.0208 C.ar      1 <0>         0.0747
      5 C5          1.2268   -0.6837   -0.0133 C.ar      1 <0>        -0.0602
      6 C6          0.0021   -0.0041    0.0020 C.ar      1 <0>        -0.1806
      7 C7         -1.2584   -0.7577    0.0100 C.2       1 <0>         0.3897
      8 O1         -1.2399   -1.9705    0.0033 O.2       1 <0>        -0.4303
      9 C8         -2.5747   -0.0243    0.0265 C.3       1 <0>         0.0487
     10 N1         -3.6736   -0.9932    0.0318 N.pl3     1 <0>        -0.4058
     11 C9         -4.2893   -1.5290   -1.0670 C.2       1 <0>         0.0320
     12 C10        -5.2378   -2.3694   -0.6112 C.2       1 <0>         0.0071
     13 N2         -5.2021   -2.3473    0.7294 N.pl3     1 <0>        -0.4730
     14 C11        -4.2642   -1.5291    1.1216 C.cat     1 <0>         0.2973
     15 O2          3.5987   -0.6264   -0.0361 O.3       1 <0>        -0.4804
     16 O3          3.5435    2.1248   -0.0208 O.3       1 <0>        -0.4822
     17 H1         -0.9592    1.9229    0.0261 H         1 <0>         0.1404
     18 H2          1.1507    3.1796    0.0078 H         1 <0>         0.1493
     19 H3          1.2468   -1.7635   -0.0197 H         1 <0>         0.1480
     20 H4         -2.6335    0.5966    0.9204 H         1 <0>         0.1579
     21 H5         -2.6505    0.6062   -0.8594 H         1 <0>         0.1604
     22 H6         -4.0590   -1.3181   -2.1009 H         1 <0>         0.2234
     23 H7         -5.9094   -2.9579   -1.2186 H         1 <0>         0.2259
     24 H8         -4.0051   -1.3140    2.1478 H         1 <0>         0.2603
     25 H9          3.9519   -0.8210    0.8428 H         1 <0>         0.3964
     26 H10         3.8891    2.3231    0.8603 H         1 <0>         0.4025
     27 H11        -5.7798   -2.8614    1.3150 H         1 <0>         0.4665
@<TRIPOS>BOND
     1    1    6 ar
     2    1    2 ar
     3    1   17 1
     4    2    3 ar
     5    2   18 1
     6    3    4 ar
     7    3   16 1
     8    4    5 ar
     9    4   15 1
    10    5    6 ar
    11    5   19 1
    12    6    7 1
    13    7    8 2
    14    7    9 1
    15    9   10 1
    16    9   20 1
    17    9   21 1
    18   10   14 1
    19   10   11 1
    20   11   12 2
    21   11   22 1
    22   12   13 1
    23   12   23 1
    24   13   14 2
    25   13   27 1
    26   14   24 1
    27   15   25 1
    28   16   26 1
@<TRIPOS>MOLECULE
ZINC00111949
   34    35     0     0     0
SMALL
USER_CHARGES

@<TRIPOS>ATOM
      1 C1         -0.0184    1.5028    0.0103 C.3       1 <0>        -0.1073
      2 C2          0.0021   -0.0041    0.0020 C.ar      1 <0>         0.1925
      3 C3          0.0059   -0.6989   -1.1975 C.ar      1 <0>        -0.2387
      4 C4          0.0249   -2.0845   -1.1608 C.ar      1 <0>         0.1956
      5 N1          0.0386   -2.6990    0.0103 N.ar      1 <0>        -0.5061
      6 C5          0.0345   -2.0049    1.1396 C.ar      1 <0>         0.2961
      7 N2          0.0220   -0.6794    1.1390 N.ar      1 <0>        -0.5382
      8 S1          0.0533   -2.8644    2.6776 S.3       1 <0>         0.0630
      9 C6          0.0411   -1.5421    3.9194 C.3       1 <0>        -0.1738
     10 C7          0.0558   -2.1484    5.2990 C.2       1 <0>         0.4175
     11 O1          0.0727   -3.3540    5.4314 O.2       1 <0>        -0.4281
     12 C8          0.0495   -1.2796    6.4830 C.ar      1 <0>        -0.1583
     13 C9          0.0241    0.1122    6.3325 C.ar      1 <0>        -0.0614
     14 C10         0.0178    0.9243    7.4442 C.ar      1 <0>        -0.1426
     15 C11         0.0370    0.3667    8.7165 C.ar      1 <0>         0.1195
     16 C12         0.0624   -1.0189    8.8748 C.ar      1 <0>         0.0700
     17 C13         0.0631   -1.8408    7.7659 C.ar      1 <0>        -0.0666
     18 O2          0.0817   -1.5602   10.1223 O.3       1 <0>        -0.4830
     19 O3          0.0316    1.1727    9.8087 O.3       1 <0>        -0.4853
     20 C14         0.0292   -2.8812   -2.4401 C.3       1 <0>        -0.1085
     21 H1          1.0042    1.8801    0.0026 H         1 <0>         0.0878
     22 H2         -0.5455    1.8639   -0.8728 H         1 <0>         0.0836
     23 H3         -0.5286    1.8543    0.9071 H         1 <0>         0.0827
     24 H4         -0.0060   -0.1721   -2.1402 H         1 <0>         0.1493
     25 H5          0.9221   -0.9135    3.7894 H         1 <0>         0.1308
     26 H6         -0.8577   -0.9376    3.7977 H         1 <0>         0.1307
     27 H7          0.0098    0.5485    5.3447 H         1 <0>         0.1425
     28 H8         -0.0018    1.9977    7.3269 H         1 <0>         0.1436
     29 H9          0.0786   -2.9139    7.8873 H         1 <0>         0.1480
     30 H10        -0.7960   -1.7322   10.4900 H         1 <0>         0.3910
     31 H11        -0.8532    1.3911   10.1320 H         1 <0>         0.3952
     32 H12         1.0578   -3.0593   -2.7536 H         1 <0>         0.0889
     33 H13        -0.4709   -3.8356   -2.2754 H         1 <0>         0.0855
     34 H14        -0.4961   -2.3248   -3.2163 H         1 <0>         0.0839
@<TRIPOS>BOND
     1    1    2 1
     2    1   21 1
     3    1   22 1
     4    1   23 1
     5    2    7 ar
     6    2    3 ar
     7    3    4 ar
     8    3   24 1
     9    4    5 ar
    10    4   20 1
    11    5    6 ar
    12    6    7 ar
    13    6    8 1
    14    8    9 1
    15    9   10 1
    16    9   25 1
    17    9   26 1
    18   10   11 2
    19   10   12 1
    20   12   17 ar
    21   12   13 ar
    22   13   14 ar
    23   13   27 1
    24   14   15 ar
    25   14   28 1
    26   15   16 ar
    27   15   19 1
    28   16   17 ar
    29   16   18 1
    30   17   29 1
    31   18   30 1
    32   19   31 1
    33   20   32 1
    34   20   33 1
    35   20   34 1
@<TRIPOS>MOLECULE
ZINC00085612
   40    41     0     0     0
SMALL
USER_CHARGES

@<TRIPOS>ATOM
      1 C1         -0.0184    1.5028    0.0103 C.3       1 <0>        -0.1099
      2 C2          0.0021   -0.0041    0.0020 C.ar      1 <0>         0.1772
      3 C3          0.0055   -0.6763   -1.2073 C.ar      1 <0>        -0.1575
      4 C4          0.0247   -2.0599   -1.2182 C.ar      1 <0>         0.0249
      5 C5          0.0401   -2.7345    0.0080 C.ar      1 <0>        -0.0674
      6 C6          0.0354   -1.9808    1.1953 C.ar      1 <0>         0.1602
      7 N1          0.0218   -0.6571    1.1473 N.ar      1 <0>        -0.4928
      8 S1          0.0545   -2.8013    2.7544 S.3       1 <0>         0.0083
      9 C7          0.0416   -1.4483    3.9626 C.3       1 <0>        -0.1656
     10 C8          0.0564   -2.0197    5.3570 C.2       1 <0>         0.4149
     11 O1          0.0739   -3.2215    5.5197 O.2       1 <0>        -0.4284
     12 C9          0.0495   -1.1213    6.5188 C.ar      1 <0>        -0.1589
     13 C10         0.0235    0.2662    6.3333 C.ar      1 <0>        -0.0612
     14 C11         0.0166    1.1060    7.4242 C.ar      1 <0>        -0.1423
     15 C12         0.0361    0.5806    8.7101 C.ar      1 <0>         0.1198
     16 C13         0.0621   -0.8005    8.9033 C.ar      1 <0>         0.0700
     17 C14         0.0633   -1.6501    7.8154 C.ar      1 <0>        -0.0669
     18 O2          0.0815   -1.3103   10.1640 O.3       1 <0>        -0.4830
     19 O3          0.0301    1.4139    9.7817 O.3       1 <0>        -0.4853
     20 C15         0.0598   -4.1657    0.0529 C.1       1 <0>         0.2464
     21 N2          0.0754   -5.3010    0.0884 N.1       1 <0>        -0.3846
     22 C16         0.0285   -2.8217   -2.5184 C.3       1 <0>         0.0930
     23 O4          0.0099   -1.9002   -3.6105 O.3       1 <0>        -0.3836
     24 C17         0.0118   -2.5230   -4.8966 C.3       1 <0>         0.0302
     25 H1          1.0042    1.8801    0.0026 H         1 <0>         0.0877
     26 H2         -0.5455    1.8639   -0.8728 H         1 <0>         0.0843
     27 H3         -0.5286    1.8543    0.9071 H         1 <0>         0.0821
     28 H4         -0.0071   -0.1252   -2.1360 H         1 <0>         0.1589
     29 H5          0.9222   -0.8227    3.8169 H         1 <0>         0.1332
     30 H6         -0.8575   -0.8475    3.8256 H         1 <0>         0.1330
     31 H7          0.0091    0.6775    5.3348 H         1 <0>         0.1431
     32 H8         -0.0035    2.1761    7.2799 H         1 <0>         0.1441
     33 H9          0.0793   -2.7198    7.9638 H         1 <0>         0.1474
     34 H10        -0.7962   -1.4734   10.5358 H         1 <0>         0.3910
     35 H11        -0.8549    1.6399   10.0993 H         1 <0>         0.3954
     36 H12         0.9268   -3.4363   -2.5769 H         1 <0>         0.0779
     37 H13        -0.8530   -3.4611   -2.5675 H         1 <0>         0.0779
     38 H14         0.9097   -3.1314   -5.0044 H         1 <0>         0.0463
     39 H15        -0.8700   -3.1561   -4.9950 H         1 <0>         0.0462
     40 H16        -0.0030   -1.7565   -5.6715 H         1 <0>         0.0939
@<TRIPOS>BOND
     1    1    2 1
     2    1   25 1
     3    1   26 1
     4    1   27 1
     5    2    7 ar
     6    2    3 ar
     7    3    4 ar
     8    3   28 1
     9    4    5 ar
    10    4   22 1
    11    5    6 ar
    12    5   20 1
    13    6    7 ar
    14    6    8 1
    15    8    9 1
    16    9   10 1
    17    9   29 1
    18    9   30 1
    19   10   11 2
    20   10   12 1
    21   12   17 ar
    22   12   13 ar
    23   13   14 ar
    24   13   31 1
    25   14   15 ar
    26   14   32 1
    27   15   16 ar
    28   15   19 1
    29   16   17 ar
    30   16   18 1
    31   17   33 1
    32   18   34 1
    33   19   35 1
    34   20   21 3
    35   22   23 1
    36   22   36 1
    37   22   37 1
    38   23   24 1
    39   24   38 1
    40   24   39 1
    41   24   40 1
@<TRIPOS>MOLECULE
ZINC00366897
   39    41     0     0     0
SMALL
USER_CHARGES

@<TRIPOS>ATOM
      1 C1          0.0137    1.4610    0.0071 C.3       1 <0>         0.0634
      2 N1          0.0160   -0.0039    0.0007 N.pl3     1 <0>        -0.4569
      3 C2         -0.0871   -0.8306   -1.0943 C.2       1 <0>         0.2284
      4 N2         -0.0415   -2.0652   -0.6506 N.2       1 <0>        -0.2663
      5 N3          0.0812   -2.0674    0.6286 N.2       1 <0>        -0.2903
      6 C3          0.1267   -0.8336    1.0797 C.2       1 <0>         0.1481
      7 S1          0.2951   -0.3419    2.7633 S.3       1 <0>         0.0571
      8 C4          0.3904   -1.9096    3.6710 C.3       1 <0>        -0.1673
      9 C5          0.5381   -1.6290    5.1442 C.2       1 <0>         0.4213
     10 O1          0.5754   -0.4839    5.5427 O.2       1 <0>        -0.4306
     11 C6          0.6369   -2.7418    6.0975 C.ar      1 <0>        -0.1601
     12 C7          0.5999   -4.0642    5.6391 C.ar      1 <0>        -0.0604
     13 C8          0.6931   -5.1056    6.5349 C.ar      1 <0>        -0.1419
     14 C9          0.8236   -4.8482    7.8938 C.ar      1 <0>         0.1212
     15 C10         0.8612   -3.5336    8.3584 C.ar      1 <0>         0.0694
     16 C11         0.7742   -2.4833    7.4669 C.ar      1 <0>        -0.0657
     17 O2          0.9886   -3.2864    9.6896 O.3       1 <0>        -0.4829
     18 O3          0.9142   -5.8792    8.7722 O.3       1 <0>        -0.4852
     19 C12        -0.2234   -0.4082   -2.5044 C.ar      1 <0>        -0.0206
     20 C13         0.1425    0.8830   -2.8878 C.ar      1 <0>        -0.1128
     21 C14         0.0128    1.2709   -4.2054 C.ar      1 <0>        -0.1161
     22 C15        -0.4792    0.3833   -5.1458 C.ar      1 <0>        -0.1031
     23 C16        -0.8437   -0.8982   -4.7724 C.ar      1 <0>        -0.1157
     24 C17        -0.7131   -1.3007   -3.4593 C.ar      1 <0>        -0.0735
     25 H1          1.0178    1.8268   -0.2075 H         1 <0>         0.0912
     26 H2         -0.6764    1.8266   -0.7533 H         1 <0>         0.1007
     27 H3         -0.3019    1.8196    0.9868 H         1 <0>         0.0991
     28 H4         -0.5199   -2.4843    3.5001 H         1 <0>         0.1350
     29 H5          1.2511   -2.4799    3.3217 H         1 <0>         0.1350
     30 H6          0.4978   -4.2674    4.5833 H         1 <0>         0.1439
     31 H7          0.6645   -6.1253    6.1802 H         1 <0>         0.1447
     32 H8          0.8074   -1.4650    7.8250 H         1 <0>         0.1478
     33 H9          1.9047   -3.2101    9.9896 H         1 <0>         0.3910
     34 H10         1.8197   -6.1733    8.9414 H         1 <0>         0.3957
     35 H11         0.5260    1.5771   -2.1546 H         1 <0>         0.1271
     36 H12         0.2955    2.2698   -4.5033 H         1 <0>         0.1306
     37 H13        -0.5795    0.6921   -6.1758 H         1 <0>         0.1291
     38 H14        -1.2273   -1.5861   -5.5112 H         1 <0>         0.1328
     39 H15        -0.9937   -2.3027   -3.1699 H         1 <0>         0.1368
@<TRIPOS>BOND
     1    1    2 1
     2    1   25 1
     3    1   26 1
     4    1   27 1
     5    2    6 1
     6    2    3 1
     7    3    4 2
     8    3   19 1
     9    4    5 1
    10    5    6 2
    11    6    7 1
    12    7    8 1
    13    8    9 1
    14    8   28 1
    15    8   29 1
    16    9   10 2
    17    9   11 1
    18   11   16 ar
    19   11   12 ar
    20   12   13 ar
    21   12   30 1
    22   13   14 ar
    23   13   31 1
    24   14   15 ar
    25   14   18 1
    26   15   16 ar
    27   15   17 1
    28   16   32 1
    29   17   33 1
    30   18   34 1
    31   19   24 ar
    32   19   20 ar
    33   20   21 ar
    34   20   35 1
    35   21   22 ar
    36   21   36 1
    37   22   23 ar
    38   22   37 1
    39   23   24 ar
    40   23   38 1
    41   24   39 1
@<TRIPOS>MOLECULE
ZINC00118483
   41    43     0     0     0
SMALL
USER_CHARGES

@<TRIPOS>ATOM
      1 C1         -0.0173    1.4248    0.0099 C.3       1 <0>         0.0215
      2 O1          0.0021   -0.0041    0.0020 O.3       1 <0>        -0.2999
      3 C2          0.6062   -0.6076   -1.0565 C.ar      1 <0>         0.1096
      4 C3          1.1715    0.1613   -2.0599 C.ar      1 <0>        -0.1600
      5 C4          1.7899   -0.4458   -3.1423 C.ar      1 <0>        -0.0585
      6 C5          1.8454   -1.8155   -3.2259 C.ar      1 <0>        -0.1248
      7 C6          1.2794   -2.6096   -2.2211 C.ar      1 <0>        -0.1787
      8 C7          0.6601   -1.9967   -1.1261 C.ar      1 <0>         0.1539
      9 O2          0.1114   -2.7518   -0.1407 O.3       1 <0>        -0.3177
     10 C8         -1.2594   -3.1244   -0.2958 C.3       1 <0>         0.0412
     11 C9          1.4972   -4.0171   -2.5891 C.2       1 <0>         0.5223
     12 O3          1.1305   -4.9729   -1.9345 O.2       1 <0>        -0.4312
     13 O4          2.1603   -4.0912   -3.7554 O.3       1 <0>        -0.2964
     14 C10         2.4260   -2.7712   -4.2374 C.3       1 <0>         0.1365
     15 H1          3.5012   -2.6150   -4.3238 H         1 <0>         0.1312
     16 C11         1.7555   -2.5654   -5.5972 C.3       1 <0>        -0.1719
     17 C12         2.4274   -3.4381   -6.6258 C.2       1 <0>         0.3981
     18 O5          3.3517   -4.1542   -6.3030 O.2       1 <0>        -0.4298
     19 C13         1.9632   -3.4216   -8.0190 C.ar      1 <0>        -0.1636
     20 C14         0.9003   -2.5914   -8.3950 C.ar      1 <0>        -0.0655
     21 C15         0.4674   -2.5775   -9.7019 C.ar      1 <0>        -0.1429
     22 C16         1.0822   -3.3858  -10.6498 C.ar      1 <0>         0.1164
     23 C17         2.1417   -4.2155  -10.2832 C.ar      1 <0>         0.0703
     24 C18         2.5861   -4.2317   -8.9764 C.ar      1 <0>        -0.0695
     25 O6          2.7403   -5.0054  -11.2145 O.3       1 <0>        -0.4834
     26 O7          0.6503   -3.3683  -11.9366 O.3       1 <0>        -0.4856
     27 H2          1.0053    1.8021    0.0021 H         1 <0>         0.0607
     28 H3         -0.5445    1.7859   -0.8732 H         1 <0>         0.0596
     29 H4         -0.5275    1.7763    0.9067 H         1 <0>         0.1074
     30 H5          1.1304    1.2388   -1.9992 H         1 <0>         0.1494
     31 H6          2.2285    0.1597   -3.9216 H         1 <0>         0.1445
     32 H7         -1.5719   -3.7243    0.5590 H         1 <0>         0.1014
     33 H8         -1.8754   -2.2270   -0.3545 H         1 <0>         0.0495
     34 H9         -1.3766   -3.7060   -1.2102 H         1 <0>         0.0486
     35 H10         0.7012   -2.8330   -5.5266 H         1 <0>         0.1149
     36 H11         1.8461   -1.5201   -5.8925 H         1 <0>         0.1273
     37 H12         0.4199   -1.9625   -7.6601 H         1 <0>         0.1406
     38 H13        -0.3526   -1.9368   -9.9908 H         1 <0>         0.1425
     39 H14         3.4090   -4.8707   -8.6922 H         1 <0>         0.1468
     40 H15         3.4846   -4.5853  -11.6668 H         1 <0>         0.3905
     41 H16         1.0961   -2.7144  -12.4923 H         1 <0>         0.3945
@<TRIPOS>BOND
     1    1    2 1
     2    1   27 1
     3    1   28 1
     4    1   29 1
     5    2    3 1
     6    3    8 ar
     7    3    4 ar
     8    4    5 ar
     9    4   30 1
    10    5    6 ar
    11    5   31 1
    12    6   14 1
    13    6    7 ar
    14    7    8 ar
    15    7   11 1
    16    8    9 1
    17    9   10 1
    18   10   32 1
    19   10   33 1
    20   10   34 1
    21   11   12 2
    22   11   13 1
    23   13   14 1
    24   14   15 1
    25   14   16 1
    26   16   17 1
    27   16   35 1
    28   16   36 1
    29   17   18 2
    30   17   19 1
    31   19   24 ar
    32   19   20 ar
    33   20   21 ar
    34   20   37 1
    35   21   22 ar
    36   21   38 1
    37   22   23 ar
    38   22   26 1
    39   23   24 ar
    40   23   25 1
    41   24   39 1
    42   25   40 1
    43   26   41 1
@<TRIPOS>MOLECULE
ZINC00118486
   41    43     0     0     0
SMALL
USER_CHARGES

@<TRIPOS>ATOM
      1 C1         -0.0173    1.4248    0.0099 C.3       1 <0>         0.0214
      2 O1          0.0021   -0.0041    0.0020 O.3       1 <0>        -0.3000
      3 C2          0.6062   -0.6076   -1.0565 C.ar      1 <0>         0.1097
      4 C3          1.1715    0.1613   -2.0599 C.ar      1 <0>        -0.1598
      5 C4          1.7899   -0.4458   -3.1423 C.ar      1 <0>        -0.0583
      6 C5          1.8454   -1.8155   -3.2259 C.ar      1 <0>        -0.1247
      7 C6          1.2794   -2.6096   -2.2211 C.ar      1 <0>        -0.1791
      8 C7          0.6601   -1.9967   -1.1261 C.ar      1 <0>         0.1536
      9 O2          0.1114   -2.7518   -0.1407 O.3       1 <0>        -0.3180
     10 C8         -1.2594   -3.1244   -0.2958 C.3       1 <0>         0.0409
     11 C9          1.4972   -4.0171   -2.5891 C.2       1 <0>         0.5225
     12 O3          1.1305   -4.9729   -1.9345 O.2       1 <0>        -0.4319
     13 O4          2.1603   -4.0912   -3.7554 O.3       1 <0>        -0.2966
     14 C10         2.4260   -2.7712   -4.2374 C.3       1 <0>         0.1367
     15 H1          1.9483   -2.6246   -5.2061 H         1 <0>         0.1313
     16 C11         3.9353   -2.5520   -4.3587 C.3       1 <0>        -0.1725
     17 C12         4.4831   -3.4254   -5.4578 C.2       1 <0>         0.3987
     18 O5          3.7394   -4.1518   -6.0827 O.2       1 <0>        -0.4307
     19 C13         5.9173   -3.3971   -5.7724 C.ar      1 <0>        -0.1638
     20 C14         6.7785   -2.5636   -5.0485 C.ar      1 <0>        -0.0651
     21 C15         8.1227   -2.5394   -5.3452 C.ar      1 <0>        -0.1428
     22 C16         8.6280   -3.3398   -6.3619 C.ar      1 <0>         0.1165
     23 C17         7.7766   -4.1729   -7.0877 C.ar      1 <0>         0.0700
     24 C18         6.4285   -4.2079   -6.7933 C.ar      1 <0>        -0.0694
     25 O6          8.2757   -4.9544   -8.0826 O.3       1 <0>        -0.4840
     26 O7          9.9542   -3.3109   -6.6503 O.3       1 <0>        -0.4860
     27 H2          1.0053    1.8021    0.0021 H         1 <0>         0.0607
     28 H3         -0.5445    1.7859   -0.8732 H         1 <0>         0.0597
     29 H4         -0.5275    1.7763    0.9067 H         1 <0>         0.1074
     30 H5          1.1304    1.2388   -1.9992 H         1 <0>         0.1495
     31 H6          2.2285    0.1597   -3.9216 H         1 <0>         0.1448
     32 H7         -1.5719   -3.7243    0.5590 H         1 <0>         0.1014
     33 H8         -1.8754   -2.2270   -0.3545 H         1 <0>         0.0496
     34 H9         -1.3766   -3.7060   -1.2102 H         1 <0>         0.0490
     35 H10         4.1328   -1.5060   -4.5933 H         1 <0>         0.1275
     36 H11         4.4169   -2.8100   -3.4155 H         1 <0>         0.1158
     37 H12         6.3885   -1.9397   -4.2579 H         1 <0>         0.1409
     38 H13         8.7861   -1.8961   -4.7861 H         1 <0>         0.1426
     39 H14         5.7689   -4.8555   -7.3518 H         1 <0>         0.1466
     40 H15         8.5606   -5.8306   -7.7890 H         1 <0>         0.3910
     41 H16        10.4791   -3.9524   -6.1524 H         1 <0>         0.3949
@<TRIPOS>BOND
     1    1    2 1
     2    1   27 1
     3    1   28 1
     4    1   29 1
     5    2    3 1
     6    3    8 ar
     7    3    4 ar
     8    4    5 ar
     9    4   30 1
    10    5    6 ar
    11    5   31 1
    12    6   14 1
    13    6    7 ar
    14    7    8 ar
    15    7   11 1
    16    8    9 1
    17    9   10 1
    18   10   32 1
    19   10   33 1
    20   10   34 1
    21   11   12 2
    22   11   13 1
    23   13   14 1
    24   14   15 1
    25   14   16 1
    26   16   17 1
    27   16   35 1
    28   16   36 1
    29   17   18 2
    30   17   19 1
    31   19   24 ar
    32   19   20 ar
    33   20   21 ar
    34   20   37 1
    35   21   22 ar
    36   21   38 1
    37   22   23 ar
    38   22   26 1
    39   23   24 ar
    40   23   25 1
    41   24   39 1
    42   25   40 1
    43   26   41 1
