@<TRIPOS>MOLECULE
ZINC01530357
   24    24     0     0     0
SMALL
USER_CHARGES

@<TRIPOS>ATOM
      1 C1         -0.0187    1.5258    0.0104 C.3       1 <0>         0.1264
      2 C2          1.4167    2.0553   -0.0004 C.3       1 <0>         0.0892
      3 C3          2.1328    1.5619   -1.2592 C.3       1 <0>         0.0885
      4 C4          2.1536    0.0321   -1.2676 C.3       1 <0>         0.0920
      5 C5          0.7182   -0.4975   -1.2568 C.3       1 <0>         0.0403
      6 C6          0.0021   -0.0041    0.0020 C.3       1 <0>         0.0910
      7 O1          0.6932   -0.4774    1.1597 O.3       1 <0>        -0.5379
      8 O2          0.7376   -1.9263   -1.2646 O.3       1 <0>        -0.5649
      9 O3          2.8447   -0.4413   -0.1099 O.3       1 <0>        -0.5346
     10 O4          3.4735    2.0566   -1.2694 O.3       1 <0>        -0.5545
     11 O5          1.3973    3.4842    0.0074 O.3       1 <0>        -0.5685
     12 O6         -0.7098    1.9991   -1.1473 O.3       1 <0>        -0.5623
     13 H1         -0.5289    1.8773    0.9072 H         1 <0>         0.0810
     14 H2          1.9439    1.6943    0.8826 H         1 <0>         0.0914
     15 H3          1.6057    1.9230   -2.1423 H         1 <0>         0.0813
     16 H4          2.6638   -0.3194   -2.1644 H         1 <0>         0.0636
     17 H5          0.1910   -0.1364   -2.1398 H         1 <0>         0.0824
     18 H6         -1.0205   -0.3814    0.0098 H         1 <0>         0.0717
     19 H7          0.7451   -1.4412    1.2202 H         1 <0>         0.3854
     20 H8         -0.1404   -2.3316   -1.2584 H         1 <0>         0.3865
     21 H9          2.8966   -1.4050   -0.0495 H         1 <0>         0.3793
     22 H10         3.9880    1.7824   -2.0409 H         1 <0>         0.3836
     23 H11         2.2753    3.8895    0.0012 H         1 <0>         0.3925
     24 H12        -0.7617    2.9629   -1.2077 H         1 <0>         0.3967
@<TRIPOS>BOND
     1    1    6 1
     2    1    2 1
     3    1   12 1
     4    1   13 1
     5    2    3 1
     6    2   11 1
     7    2   14 1
     8    3    4 1
     9    3   10 1
    10    3   15 1
    11    4    5 1
    12    4    9 1
    13    4   16 1
    14    5    6 1
    15    5    8 1
    16    5   17 1
    17    6    7 1
    18    6   18 1
    19    7   19 1
    20    8   20 1
    21    9   21 1
    22   10   22 1
    23   11   23 1
    24   12   24 1
@<TRIPOS>MOLECULE
ZINC18061856
   22    22     0     0     0
SMALL
USER_CHARGES

@<TRIPOS>ATOM
      1 C1         -0.0127    1.0858    0.0080 C.3       1 <0>         0.1288
      2 H1          0.0021   -0.0041    0.0020 H         1 <0>         0.0889
      3 C2         -0.7523    1.5937   -1.2342 C.3       1 <0>         0.0361
      4 H2         -1.7416    1.1387   -1.2828 H         1 <0>         0.0902
      5 C3          0.0454    1.2077   -2.4601 C.2       1 <0>         0.3098
      6 O1         -0.4783    0.6328   -3.3839 O.2       1 <0>        -0.4190
      7 C4          1.5158    1.5609   -2.4995 C.3       1 <0>         0.0361
      8 H3          1.9837    1.0847   -3.3611 H         1 <0>         0.0891
      9 C5          2.1731    1.0541   -1.2114 C.3       1 <0>         0.0823
     10 H4          3.2116    1.3836   -1.1793 H         1 <0>         0.0897
     11 C6          1.4222    1.6155   -0.0028 C.3       1 <0>         0.1257
     12 O2          2.0859    1.2138    1.1972 O.3       1 <0>        -0.5432
     13 O3          2.1249   -0.3737   -1.1816 O.3       1 <0>        -0.5444
     14 O4          1.6665    2.9787   -2.5940 O.3       1 <0>        -0.5273
     15 O5         -0.8807    3.0154   -1.1685 O.3       1 <0>        -0.5205
     16 O6         -0.6821    1.5469    1.1833 O.3       1 <0>        -0.5356
     17 H5          1.4062    2.7039   -0.0598 H         1 <0>         0.0987
     18 H6          3.0026    1.5152    1.2594 H         1 <0>         0.3801
     19 H7          2.5814   -0.7982   -1.9209 H         1 <0>         0.3843
     20 H8          1.2604    3.3658   -3.3816 H         1 <0>         0.3889
     21 H9         -1.3404    3.4042   -1.9252 H         1 <0>         0.3815
     22 H10        -1.5991    1.2488    1.2562 H         1 <0>         0.3797
@<TRIPOS>BOND
     1    1    2 1
     2    1   11 1
     3    1    3 1
     4    1   16 1
     5    3    4 1
     6    3    5 1
     7    3   15 1
     8    5    6 2
     9    5    7 1
    10    7    8 1
    11    7    9 1
    12    7   14 1
    13    9   10 1
    14    9   11 1
    15    9   13 1
    16   11   12 1
    17   11   17 1
    18   12   18 1
    19   13   19 1
    20   14   20 1
    21   15   21 1
    22   16   22 1
