@<TRIPOS>MOLECULE
ZINC08234358
   58    58     0     0     0
SMALL
USER_CHARGES
2-hydroxy-6-pentadec-8-enyl-benzoic acid
@<TRIPOS>ATOM
      1 C1         -3.1020    0.5440  -16.2448 C.3       1 <0>        -0.1536
      2 C2         -2.9152    1.1239  -14.8413 C.3       1 <0>        -0.1264
      3 C3         -3.8078    0.3687  -13.8545 C.3       1 <0>        -0.1206
      4 C4         -3.6211    0.9487  -12.4510 C.3       1 <0>        -0.1217
      5 C5         -4.5137    0.1935  -11.4642 C.3       1 <0>        -0.1129
      6 C6         -4.3269    0.7734  -10.0607 C.3       1 <0>        -0.1015
      7 C7         -5.2061    0.0296   -9.0887 C.2       1 <0>        -0.1680
      8 C8         -4.6866   -0.5012   -8.0096 C.2       1 <0>        -0.1516
      9 C9         -3.2488   -0.2262   -7.6517 C.3       1 <0>        -0.1025
     10 C10        -3.1694    0.2748   -6.2083 C.3       1 <0>        -0.1139
     11 C11        -1.7096    0.5540   -5.8449 C.3       1 <0>        -0.1186
     12 C12        -1.6302    1.0550   -4.4015 C.3       1 <0>        -0.1192
     13 C13        -0.1704    1.3342   -4.0381 C.3       1 <0>        -0.1140
     14 C14        -0.0910    1.8352   -2.5947 C.3       1 <0>        -0.1183
     15 C15         1.3688    2.1144   -2.2313 C.3       1 <0>        -0.0765
     16 C16         1.4470    2.6079   -0.8095 C.ar      1 <0>        -0.0543
     17 C17         1.4676    3.9610   -0.5489 C.ar      1 <0>        -0.1331
     18 C18         1.5403    4.4205    0.7558 C.ar      1 <0>        -0.1218
     19 C19         1.5929    3.5287    1.8089 C.ar      1 <0>        -0.1562
     20 C20         1.5669    2.1638    1.5660 C.ar      1 <0>         0.1146
     21 C21         1.4992    1.6943    0.2463 C.ar      1 <0>        -0.1087
     22 C22         1.4770    0.2456   -0.0250 C.2       1 <0>         0.5077
     23 O1          2.5186   -0.3570   -0.1935 O.co2     1 <0>        -0.6356
     24 O2          1.6129    1.2867    2.5997 O.3       1 <0>        -0.4913
     25 H1         -2.8283   -0.5111  -16.2413 H         1 <0>         0.0532
     26 H2         -4.1447    0.6479  -16.5451 H         1 <0>         0.0526
     27 H3         -2.4661    1.0820  -16.9478 H         1 <0>         0.0526
     28 H4         -3.1889    2.1790  -14.8448 H         1 <0>         0.0601
     29 H5         -1.8726    1.0200  -14.5411 H         1 <0>         0.0610
     30 H6         -3.5341   -0.6864  -13.8510 H         1 <0>         0.0607
     31 H7         -4.8505    0.4726  -14.1548 H         1 <0>         0.0598
     32 H8         -3.8947    2.0037  -12.4545 H         1 <0>         0.0608
     33 H9         -2.5784    0.8448  -12.1508 H         1 <0>         0.0618
     34 H10        -4.2400   -0.8616  -11.4607 H         1 <0>         0.0614
     35 H11        -5.5563    0.2974  -11.7645 H         1 <0>         0.0596
     36 H12        -4.6006    1.8285  -10.0642 H         1 <0>         0.0663
     37 H13        -3.2842    0.6695   -9.7605 H         1 <0>         0.0772
     38 H14        -6.2644   -0.0658   -9.2818 H         1 <0>         0.1053
     39 H15        -5.2888   -1.1360   -7.3765 H         1 <0>         0.1074
     40 H16        -2.8462    0.5328   -8.3225 H         1 <0>         0.0746
     41 H17        -2.6680   -1.1433   -7.7505 H         1 <0>         0.0688
     42 H18        -3.5720   -0.4843   -5.5376 H         1 <0>         0.0627
     43 H19        -3.7502    1.1919   -6.1095 H         1 <0>         0.0601
     44 H20        -1.3070    1.3130   -6.5157 H         1 <0>         0.0576
     45 H21        -1.1288   -0.3631   -5.9437 H         1 <0>         0.0615
     46 H22        -2.0328    0.2960   -3.7307 H         1 <0>         0.0652
     47 H23        -2.2110    1.9721   -4.3027 H         1 <0>         0.0573
     48 H24         0.2322    2.0932   -4.7088 H         1 <0>         0.0532
     49 H25         0.4104    0.4171   -4.1369 H         1 <0>         0.0617
     50 H26        -0.4936    1.0762   -1.9239 H         1 <0>         0.0875
     51 H27        -0.6718    2.7523   -2.4959 H         1 <0>         0.0528
     52 H28         1.7713    2.8734   -2.9020 H         1 <0>         0.0620
     53 H29         1.9495    1.1973   -2.3301 H         1 <0>         0.0765
     54 H30         1.4272    4.6664   -1.3657 H         1 <0>         0.1175
     55 H31         1.5563    5.4826    0.9506 H         1 <0>         0.1178
     56 H32         1.6499    3.8949    2.8234 H         1 <0>         0.1205
     57 H33         2.5086    1.0274    2.8559 H         1 <0>         0.3837
     58 O3          0.3016   -0.4105   -0.0862 O.co2     1 <0>        -0.7430
@<TRIPOS>BOND
     1    1    2 1
     2    1   25 1
     3    1   26 1
     4    1   27 1
     5    2    3 1
     6    2   28 1
     7    2   29 1
     8    3    4 1
     9    3   30 1
    10    3   31 1
    11    4    5 1
    12    4   32 1
    13    4   33 1
    14    5    6 1
    15    5   34 1
    16    5   35 1
    17    6    7 1
    18    6   36 1
    19    6   37 1
    20    7    8 2
    21    7   38 1
    22    8    9 1
    23    8   39 1
    24    9   10 1
    25    9   40 1
    26    9   41 1
    27   10   11 1
    28   10   42 1
    29   10   43 1
    30   11   12 1
    31   11   44 1
    32   11   45 1
    33   12   13 1
    34   12   46 1
    35   12   47 1
    36   13   14 1
    37   13   48 1
    38   13   49 1
    39   14   15 1
    40   14   50 1
    41   14   51 1
    42   15   16 1
    43   15   52 1
    44   15   53 1
    45   16   21 ar
    46   16   17 ar
    47   17   18 ar
    48   17   54 1
    49   18   19 ar
    50   18   55 1
    51   19   20 ar
    52   19   56 1
    53   20   21 ar
    54   20   24 1
    55   21   22 1
    56   22   23 2
    57   22   58 1
    58   24   57 1
@<TRIPOS>MOLECULE
ZINC42835776
   64    64     0     0     0
SMALL
USER_CHARGES

@<TRIPOS>ATOM
      1 C1          0.7346    1.4346    0.6675 C.3       1 <0>        -0.1537
      2 C2          0.7072   -0.0713    0.3983 C.3       1 <0>        -0.1264
      3 C3         -0.7318   -0.5812    0.4985 C.3       1 <0>        -0.1206
      4 C4         -0.7592   -2.0871    0.2294 C.3       1 <0>        -0.1217
      5 C5         -2.1983   -2.5970    0.3296 C.3       1 <0>        -0.1132
      6 C6         -2.2257   -4.1029    0.0604 C.3       1 <0>        -0.1017
      7 C7         -3.6431   -4.6051    0.1592 C.2       1 <0>        -0.1649
      8 C8         -4.1580   -5.3095   -0.8180 C.2       1 <0>        -0.1547
      9 C9         -3.2862   -5.7633   -1.9604 C.3       1 <0>        -0.1026
     10 C10        -3.4203   -7.2775   -2.1340 C.3       1 <0>        -0.1136
     11 C11        -2.5351   -7.7383   -3.2938 C.3       1 <0>        -0.1198
     12 C12        -2.6693   -9.2525   -3.4674 C.3       1 <0>        -0.1202
     13 C13        -1.7841   -9.7132   -4.6272 C.3       1 <0>        -0.1189
     14 C14        -1.9183  -11.2274   -4.8009 C.3       1 <0>        -0.1188
     15 C15        -1.0331  -11.6881   -5.9607 C.3       1 <0>        -0.1147
     16 C16        -1.1673  -13.2023   -6.1343 C.3       1 <0>        -0.1177
     17 C17        -0.2821  -13.6631   -7.2941 C.3       1 <0>        -0.0755
     18 C18        -0.4143  -15.1545   -7.4651 C.ar      1 <0>        -0.0566
     19 C19         0.5115  -15.9991   -6.8932 C.ar      1 <0>        -0.1342
     20 C20         0.3955  -17.3713   -7.0469 C.ar      1 <0>        -0.1254
     21 C21        -0.6481  -17.9077   -7.7747 C.ar      1 <0>        -0.1568
     22 C22        -1.5898  -17.0736   -8.3585 C.ar      1 <0>         0.1110
     23 C23        -1.4801  -15.6835   -8.1999 C.ar      1 <0>        -0.1285
     24 C24        -2.4765  -14.7878   -8.8088 C.2       1 <0>         0.5372
     25 O1         -2.3406  -14.4193   -9.9674 O.co2     1 <0>        -0.6818
     26 O2         -3.4406  -14.4118   -8.1563 O.co2     1 <0>        -0.6852
     27 O3         -2.6149  -17.5990   -9.0740 O.3       1 <0>        -0.4922
     28 H1          1.7598    1.7978    0.5961 H         1 <0>         0.0528
     29 H2          0.1156    1.9466   -0.0692 H         1 <0>         0.0532
     30 H3          0.3480    1.6320    1.6673 H         1 <0>         0.0527
     31 H4          1.0939   -0.2688   -0.6015 H         1 <0>         0.0609
     32 H5          1.3263   -0.5834    1.1350 H         1 <0>         0.0602
     33 H6         -1.1185   -0.3837    1.4984 H         1 <0>         0.0600
     34 H7         -1.3509   -0.0691   -0.2381 H         1 <0>         0.0607
     35 H8         -0.3726   -2.2846   -0.7704 H         1 <0>         0.0617
     36 H9         -0.1402   -2.5992    0.9660 H         1 <0>         0.0610
     37 H10        -2.5849   -2.3995    1.3294 H         1 <0>         0.0601
     38 H11        -2.8173   -2.0849   -0.4070 H         1 <0>         0.0614
     39 H12        -1.8391   -4.3004   -0.9394 H         1 <0>         0.0768
     40 H13        -1.6066   -4.6150    0.7971 H         1 <0>         0.0671
     41 H14        -4.2344   -4.3843    1.0355 H         1 <0>         0.1059
     42 H15        -5.2072   -5.5650   -0.8049 H         1 <0>         0.1072
     43 H16        -3.5990   -5.2634   -2.8770 H         1 <0>         0.0683
     44 H17        -2.2472   -5.5128   -1.7463 H         1 <0>         0.0751
     45 H18        -3.1074   -7.7775   -1.2173 H         1 <0>         0.0607
     46 H19        -4.4593   -7.5281   -2.3481 H         1 <0>         0.0617
     47 H20        -2.8480   -7.2383   -4.2105 H         1 <0>         0.0612
     48 H21        -1.4962   -7.4877   -3.0797 H         1 <0>         0.0592
     49 H22        -2.3564   -9.7524   -2.5508 H         1 <0>         0.0589
     50 H23        -3.7083   -9.5030   -3.6815 H         1 <0>         0.0617
     51 H24        -2.0970   -9.2133   -5.5439 H         1 <0>         0.0608
     52 H25        -0.7452   -9.4626   -4.4132 H         1 <0>         0.0573
     53 H26        -1.6054  -11.7273   -3.8842 H         1 <0>         0.0567
     54 H27        -2.9573  -11.4779   -5.0149 H         1 <0>         0.0644
     55 H28        -1.3460  -11.1882   -6.8773 H         1 <0>         0.0617
     56 H29         0.0058  -11.4376   -5.7466 H         1 <0>         0.0530
     57 H30        -0.8544  -13.7023   -5.2176 H         1 <0>         0.0516
     58 H31        -2.2063  -13.4529   -6.3484 H         1 <0>         0.0877
     59 H32        -0.5950  -13.1631   -8.2108 H         1 <0>         0.0762
     60 H33         0.7568  -13.4125   -7.0800 H         1 <0>         0.0605
     61 H34         1.3319  -15.5898   -6.3225 H         1 <0>         0.1154
     62 H35         1.1262  -18.0255   -6.5947 H         1 <0>         0.1160
     63 H36        -0.7309  -18.9783   -7.8899 H         1 <0>         0.1184
     64 H37        -3.4031  -17.7923   -8.5482 H         1 <0>         0.3829
@<TRIPOS>BOND
     1    1    2 1
     2    1   28 1
     3    1   29 1
     4    1   30 1
     5    2    3 1
     6    2   31 1
     7    2   32 1
     8    3    4 1
     9    3   33 1
    10    3   34 1
    11    4    5 1
    12    4   35 1
    13    4   36 1
    14    5    6 1
    15    5   37 1
    16    5   38 1
    17    6    7 1
    18    6   39 1
    19    6   40 1
    20    7    8 2
    21    7   41 1
    22    8    9 1
    23    8   42 1
    24    9   10 1
    25    9   43 1
    26    9   44 1
    27   10   11 1
    28   10   45 1
    29   10   46 1
    30   11   12 1
    31   11   47 1
    32   11   48 1
    33   12   13 1
    34   12   49 1
    35   12   50 1
    36   13   14 1
    37   13   51 1
    38   13   52 1
    39   14   15 1
    40   14   53 1
    41   14   54 1
    42   15   16 1
    43   15   55 1
    44   15   56 1
    45   16   17 1
    46   16   57 1
    47   16   58 1
    48   17   18 1
    49   17   59 1
    50   17   60 1
    51   18   23 ar
    52   18   19 ar
    53   19   20 ar
    54   19   61 1
    55   20   21 ar
    56   20   62 1
    57   21   22 ar
    58   21   63 1
    59   22   23 ar
    60   22   27 1
    61   23   24 1
    62   24   25 2
    63   24   26 1
    64   27   64 1
