@<TRIPOS>MOLECULE
ZINC06143134
   66    67     0     0     0
SMALL
USER_CHARGES
methyl 4-[benzyl-[2-(benzyl-(3-methoxycarbonylpropanoyl)amino)ethyl]amino]-4-oxo-butanoate
@<TRIPOS>ATOM
      1 C1          1.2391    7.4924   -1.9228 C.3       1 <0>         0.0348
      2 O1          1.5695    6.1062   -1.6445 O.3       1 <0>        -0.3573
      3 C2          0.6286    5.3653   -1.0382 C.2       1 <0>         0.4633
      4 O2         -0.4358    5.8588   -0.7495 O.2       1 <0>        -0.5106
      5 C3          0.8999    3.9180   -0.7175 C.3       1 <0>        -0.1010
      6 C4         -0.3258    3.3088   -0.0338 C.3       1 <0>        -0.1372
      7 C5         -0.0545    1.8615    0.2868 C.2       1 <0>         0.5170
      8 O3          1.0152    1.3670    0.0001 O.2       1 <0>        -0.5193
      9 N1         -1.0006    1.1166    0.8922 N.am      1 <0>        -0.6059
     10 C6         -0.7848   -0.3182    1.0950 C.3       1 <0>         0.1039
     11 C7         -0.1043   -0.5456    2.4463 C.3       1 <0>         0.1021
     12 N2          0.1115   -1.9804    2.6490 N.am      1 <0>        -0.6060
     13 C8         -0.9169   -2.7900    3.3071 C.3       1 <0>         0.1453
     14 C9         -0.7353   -2.7152    4.8012 C.ar      1 <0>        -0.1113
     15 C10         0.0816   -3.6260    5.4447 C.ar      1 <0>        -0.1093
     16 C11         0.2519   -3.5544    6.8147 C.ar      1 <0>        -0.1174
     17 C12        -0.4025   -2.5781    7.5424 C.ar      1 <0>        -0.1136
     18 C13        -1.2239   -1.6709    6.8996 C.ar      1 <0>        -0.1189
     19 C14        -1.3901   -1.7393    5.5290 C.ar      1 <0>        -0.1041
     20 C15         1.2562   -2.5554    2.2302 C.2       1 <0>         0.5168
     21 O4          2.1347   -1.8745    1.7448 O.2       1 <0>        -0.5191
     22 C16         1.4446   -4.0445    2.3649 C.3       1 <0>        -0.1367
     23 C17         2.8528   -4.4243    1.9025 C.3       1 <0>        -0.1009
     24 C18         3.0412   -5.9134    2.0373 C.2       1 <0>         0.4630
     25 O5          2.1415   -6.6004    2.4598 O.2       1 <0>        -0.5104
     26 O6          4.2085   -6.4766    1.6879 O.3       1 <0>        -0.3572
     27 C19         4.3189   -7.9159    1.8443 C.3       1 <0>         0.0347
     28 C20        -2.2474    1.7405    1.3421 C.3       1 <0>         0.1465
     29 C21        -3.2804    1.6440    0.2491 C.ar      1 <0>        -0.1126
     30 C22        -3.4860    2.7121   -0.6039 C.ar      1 <0>        -0.1105
     31 C23        -4.4301    2.6218   -1.6096 C.ar      1 <0>        -0.1174
     32 C24        -5.1757    1.4670   -1.7559 C.ar      1 <0>        -0.1138
     33 C25        -4.9741    0.4009   -0.8993 C.ar      1 <0>        -0.1193
     34 C26        -4.0263    0.4893    0.1031 C.ar      1 <0>        -0.1036
     35 H1          0.3675    7.5341   -2.5759 H         1 <0>         0.0639
     36 H2          1.0177    8.0078   -0.9882 H         1 <0>         0.0641
     37 H3          2.0840    7.9760   -2.4130 H         1 <0>         0.1031
     38 H4          1.7597    3.8485   -0.0512 H         1 <0>         0.1162
     39 H5          1.1094    3.3748   -1.6390 H         1 <0>         0.1153
     40 H6         -1.1856    3.3783   -0.7001 H         1 <0>         0.1081
     41 H7         -0.5353    3.8520    0.8877 H         1 <0>         0.1043
     42 H8         -1.7440   -0.8357    1.0795 H         1 <0>         0.0776
     43 H9         -0.1498   -0.7062    0.2985 H         1 <0>         0.0885
     44 H10         0.8549   -0.0281    2.4617 H         1 <0>         0.0924
     45 H11        -0.7393   -0.1576    3.2427 H         1 <0>         0.0773
     46 H12        -1.9034   -2.4102    3.0415 H         1 <0>         0.0900
     47 H13        -0.8268   -3.8264    2.9816 H         1 <0>         0.0951
     48 H14         0.5896   -4.3912    4.8766 H         1 <0>         0.1240
     49 H15         0.8933   -4.2634    7.3169 H         1 <0>         0.1236
     50 H16        -0.2724   -2.5245    8.6132 H         1 <0>         0.1229
     51 H17        -1.7355   -0.9084    7.4683 H         1 <0>         0.1233
     52 H18        -2.0318   -1.0304    5.0269 H         1 <0>         0.1206
     53 H19         1.3140   -4.3344    3.4075 H         1 <0>         0.1044
     54 H20         0.7083   -4.5611    1.7492 H         1 <0>         0.1063
     55 H21         2.9834   -4.1344    0.8599 H         1 <0>         0.1173
     56 H22         3.5891   -3.9078    2.5183 H         1 <0>         0.1148
     57 H23         5.3097   -8.2409    1.5269 H         1 <0>         0.1032
     58 H24         4.1678   -8.1803    2.8909 H         1 <0>         0.0640
     59 H25         3.5621   -8.4070    1.2326 H         1 <0>         0.0642
     60 H26        -2.6107    1.2262    2.2318 H         1 <0>         0.0914
     61 H27        -2.0647    2.7889    1.5777 H         1 <0>         0.0933
     62 H28        -2.9063    3.6159   -0.4871 H         1 <0>         0.1280
     63 H29        -4.5878    3.4548   -2.2786 H         1 <0>         0.1237
     64 H30        -5.9160    1.3978   -2.5393 H         1 <0>         0.1226
     65 H31        -5.5569   -0.5012   -1.0134 H         1 <0>         0.1229
     66 H32        -3.8688   -0.3435    0.7723 H         1 <0>         0.1196
@<TRIPOS>BOND
     1    1    2 1
     2    1   35 1
     3    1   36 1
     4    1   37 1
     5    2    3 1
     6    3    4 2
     7    3    5 1
     8    5    6 1
     9    5   38 1
    10    5   39 1
    11    6    7 1
    12    6   40 1
    13    6   41 1
    14    7    8 2
    15    7    9 am
    16    9   10 1
    17    9   28 1
    18   10   11 1
    19   10   42 1
    20   10   43 1
    21   11   12 1
    22   11   44 1
    23   11   45 1
    24   12   13 1
    25   12   20 am
    26   13   14 1
    27   13   46 1
    28   13   47 1
    29   14   19 ar
    30   14   15 ar
    31   15   16 ar
    32   15   48 1
    33   16   17 ar
    34   16   49 1
    35   17   18 ar
    36   17   50 1
    37   18   19 ar
    38   18   51 1
    39   19   52 1
    40   20   21 2
    41   20   22 1
    42   22   23 1
    43   22   53 1
    44   22   54 1
    45   23   24 1
    46   23   55 1
    47   23   56 1
    48   24   25 2
    49   24   26 1
    50   26   27 1
    51   27   57 1
    52   27   58 1
    53   27   59 1
    54   28   29 1
    55   28   60 1
    56   28   61 1
    57   29   34 ar
    58   29   30 ar
    59   30   31 ar
    60   30   62 1
    61   31   32 ar
    62   31   63 1
    63   32   33 ar
    64   32   64 1
    65   33   34 ar
    66   33   65 1
    67   34   66 1
@<TRIPOS>MOLECULE
ZINC08445939
   72    77     0     0     0
SMALL
USER_CHARGES
9-amino-2-(4-benzyloxy-3-methoxy-phenyl)-N-(5-chloro-2-methoxy-phenyl)-4-phenyl-7-thia-5-azabicyclo[4.3.0]nona-2,4,8,10-tetraene-8-carboxamide
@<TRIPOS>ATOM
      1 C1          4.1473   -5.8463    6.4477 C.3       1 <0>         0.0274
      2 O1          3.5561   -4.9363    5.5180 O.3       1 <0>        -0.3170
      3 C2          2.2008   -4.9602    5.4075 C.ar      1 <0>         0.1006
      4 C3          1.4566   -5.8359    6.1810 C.ar      1 <0>        -0.1743
      5 C4          0.0794   -5.8637    6.0635 C.ar      1 <0>        -0.0906
      6 C5         -0.5604   -5.0134    5.1789 C.ar      1 <0>        -0.0483
      7 C6          0.1752   -4.1324    4.4074 C.ar      1 <0>        -0.0945
      8 C7          1.5576   -4.0999    4.5203 C.ar      1 <0>         0.1411
      9 N1          2.3049   -3.2087    3.7404 N.am      1 <0>        -0.6564
     10 C8          1.7169   -2.1146    3.2172 C.2       1 <0>         0.6218
     11 O2          0.5639   -1.8466    3.5046 O.2       1 <0>        -0.5307
     12 C9          2.4395   -1.2767    2.3334 C.2       1 <0>        -0.3443
     13 C10         2.0121   -0.1257    1.7043 C.2       1 <0>         0.3127
     14 C11         2.9439    0.5733    0.8385 C.ar      1 <0>        -0.1847
     15 C12         2.7316    1.7678    0.0826 C.ar      1 <0>         0.0791
     16 C13         3.7684    2.2625   -0.6917 C.ar      1 <0>        -0.1713
     17 C14         4.9931    1.5962   -0.7299 C.ar      1 <0>         0.2354
     18 N2          5.1744    0.4846   -0.0268 N.ar      1 <0>        -0.4505
     19 C15         4.2199   -0.0226    0.7217 C.ar      1 <0>         0.1459
     20 S1          4.1192   -1.4557    1.7660 S.3       1 <0>         0.1180
     21 C16         6.0984    2.1318   -1.5604 C.ar      1 <0>        -0.0626
     22 C17         5.9131    3.2950   -2.3060 C.ar      1 <0>        -0.0916
     23 C18         6.9473    3.7921   -3.0727 C.ar      1 <0>        -0.1242
     24 C19         8.1624    3.1320   -3.1113 C.ar      1 <0>        -0.0986
     25 C20         8.3503    1.9741   -2.3780 C.ar      1 <0>        -0.1258
     26 C21         7.3251    1.4709   -1.6032 C.ar      1 <0>        -0.0704
     27 C22         1.4276    2.4678    0.1311 C.ar      1 <0>        -0.0834
     28 C23         0.8955    2.8699    1.3564 C.ar      1 <0>        -0.0852
     29 C24        -0.3214    3.5176    1.4009 C.ar      1 <0>        -0.1792
     30 C25        -1.0139    3.7802    0.2279 C.ar      1 <0>         0.1236
     31 C26        -0.4877    3.3812   -0.9987 C.ar      1 <0>         0.1030
     32 C27         0.7293    2.7269   -1.0486 C.ar      1 <0>        -0.1461
     33 O3         -1.1707    3.6356   -2.1469 O.3       1 <0>        -0.3000
     34 C28        -0.5717    3.1987   -3.3684 C.3       1 <0>         0.0228
     35 O4         -2.2106    4.4229    0.2760 O.3       1 <0>        -0.2913
     36 C29        -2.6910    4.8038    1.5668 C.3       1 <0>         0.0986
     37 C30        -4.0204    5.4988    1.4230 C.ar      1 <0>        -0.0989
     38 C31        -4.0692    6.8708    1.2611 C.ar      1 <0>        -0.0941
     39 C32        -5.2884    7.5077    1.1239 C.ar      1 <0>        -0.1230
     40 C33        -6.4593    6.7739    1.1595 C.ar      1 <0>        -0.1076
     41 C34        -6.4109    5.4026    1.3271 C.ar      1 <0>        -0.1227
     42 C35        -5.1914    4.7650    1.4586 C.ar      1 <0>        -0.0938
     43 N3          0.7239    0.3552    1.8990 N.pl3     1 <0>        -0.8290
     44 Cl1        -2.2902   -5.0532    5.0367 Cl        1 <0>        -0.0645
     45 H1          3.7682   -5.6405    7.4487 H         1 <0>         0.0584
     46 H2          3.8944   -6.8686    6.1665 H         1 <0>         0.0586
     47 H3          5.2304   -5.7240    6.4372 H         1 <0>         0.1040
     48 H4          1.9529   -6.5005    6.8726 H         1 <0>         0.1423
     49 H5         -0.4987   -6.5505    6.6639 H         1 <0>         0.1374
     50 H6         -0.3261   -3.4702    3.7171 H         1 <0>         0.1706
     51 H7          3.2458   -3.3788    3.5766 H         1 <0>         0.4167
     52 H8          3.6282    3.1660   -1.2666 H         1 <0>         0.1494
     53 H9          4.9633    3.8085   -2.2804 H         1 <0>         0.1280
     54 H10         6.8062    4.6954   -3.6475 H         1 <0>         0.1291
     55 H11         8.9676    3.5224   -3.7160 H         1 <0>         0.1269
     56 H12         9.3009    1.4628   -2.4122 H         1 <0>         0.1291
     57 H13         7.4731    0.5671   -1.0309 H         1 <0>         0.1376
     58 H14         1.4345    2.6699    2.2707 H         1 <0>         0.1358
     59 H15        -0.7341    3.8246    2.3506 H         1 <0>         0.1445
     60 H16         1.1386    2.4173   -1.9988 H         1 <0>         0.1427
     61 H17        -1.2181    3.4634   -4.2052 H         1 <0>         0.1047
     62 H18         0.3976    3.6820   -3.4910 H         1 <0>         0.0569
     63 H19        -0.4375    2.1173   -3.3409 H         1 <0>         0.0565
     64 H20        -2.8108    3.9152    2.1866 H         1 <0>         0.0742
     65 H21        -1.9763    5.4801    2.0355 H         1 <0>         0.0740
     66 H22        -3.1545    7.4446    1.2377 H         1 <0>         0.1240
     67 H23        -5.3262    8.5790    0.9926 H         1 <0>         0.1260
     68 H24        -7.4120    7.2719    1.0561 H         1 <0>         0.1252
     69 H25        -7.3258    4.8293    1.3550 H         1 <0>         0.1262
     70 H26        -5.1536    3.6936    1.5896 H         1 <0>         0.1244
     71 H27         0.2271    0.1036    2.6932 H         1 <0>         0.4176
     72 H28         0.3209    0.9428    1.2407 H         1 <0>         0.4039
@<TRIPOS>BOND
     1    1    2 1
     2    1   45 1
     3    1   46 1
     4    1   47 1
     5    2    3 1
     6    3    8 ar
     7    3    4 ar
     8    4    5 ar
     9    4   48 1
    10    5    6 ar
    11    5   49 1
    12    6    7 ar
    13    6   44 1
    14    7    8 ar
    15    7   50 1
    16    8    9 1
    17    9   10 am
    18    9   51 1
    19   10   11 2
    20   10   12 1
    21   12   20 1
    22   12   13 2
    23   13   14 1
    24   13   43 1
    25   14   19 ar
    26   14   15 ar
    27   15   16 ar
    28   15   27 1
    29   16   17 ar
    30   16   52 1
    31   17   18 ar
    32   17   21 1
    33   18   19 ar
    34   19   20 1
    35   21   26 ar
    36   21   22 ar
    37   22   23 ar
    38   22   53 1
    39   23   24 ar
    40   23   54 1
    41   24   25 ar
    42   24   55 1
    43   25   26 ar
    44   25   56 1
    45   26   57 1
    46   27   32 ar
    47   27   28 ar
    48   28   29 ar
    49   28   58 1
    50   29   30 ar
    51   29   59 1
    52   30   31 ar
    53   30   35 1
    54   31   32 ar
    55   31   33 1
    56   32   60 1
    57   33   34 1
    58   34   61 1
    59   34   62 1
    60   34   63 1
    61   35   36 1
    62   36   37 1
    63   36   64 1
    64   36   65 1
    65   37   42 ar
    66   37   38 ar
    67   38   39 ar
    68   38   66 1
    69   39   40 ar
    70   39   67 1
    71   40   41 ar
    72   40   68 1
    73   41   42 ar
    74   41   69 1
    75   42   70 1
    76   43   71 1
    77   43   72 1
@<TRIPOS>MOLECULE
ZINC08454710
   76    79     0     0     0
SMALL
USER_CHARGES
2-(3-butoxyphenyl)-N-[1-[3-(2,2-dimethylpropanoylamino)phenyl]ethylideneamino]quinoline-4-carboxamide
@<TRIPOS>ATOM
      1 C1          5.1356   -2.9296    0.0304 C.3       1 <0>        -0.1531
      2 C2          3.7132   -2.3661    0.0459 C.3       1 <0>        -0.1214
      3 C3          3.7703   -0.8372    0.0396 C.3       1 <0>        -0.1207
      4 C4          2.3479   -0.2737    0.0551 C.3       1 <0>         0.0581
      5 O1          2.4012    1.1543    0.0492 O.3       1 <0>        -0.3127
      6 C5          1.2143    1.8161    0.0614 C.ar      1 <0>         0.1291
      7 C6          0.0226    1.1038    0.0787 C.ar      1 <0>        -0.1952
      8 C7         -1.1870    1.7725    0.0854 C.ar      1 <0>        -0.0797
      9 C8         -1.2172    3.1527    0.0856 C.ar      1 <0>        -0.1392
     10 C9         -0.0255    3.8756    0.0682 C.ar      1 <0>        -0.0164
     11 C10         1.1936    3.2008    0.0561 C.ar      1 <0>        -0.1076
     12 C11        -0.0549    5.3582    0.0631 C.ar      1 <0>         0.1972
     13 C12        -1.2968    6.0106    0.0756 C.ar      1 <0>        -0.1209
     14 C13        -1.3377    7.3980    0.0710 C.ar      1 <0>        -0.0681
     15 C14        -0.0579    8.1074    0.0531 C.ar      1 <0>        -0.0613
     16 C15         0.0033    9.5051    0.0469 C.ar      1 <0>        -0.1017
     17 C16         1.2170   10.1260    0.0296 C.ar      1 <0>        -0.1070
     18 C17         2.3973    9.3859    0.0181 C.ar      1 <0>        -0.0959
     19 C18         2.3737    8.0253    0.0242 C.ar      1 <0>        -0.0918
     20 C19         1.1396    7.3489    0.0415 C.ar      1 <0>         0.1310
     21 N1          1.0851    6.0161    0.0524 N.ar      1 <0>        -0.4420
     22 C20        -2.6222    8.1295    0.0833 C.2       1 <0>         0.5822
     23 O2         -2.6305    9.3418    0.1755 O.2       1 <0>        -0.4802
     24 N2         -3.7840    7.4526   -0.0079 N.am      1 <0>        -0.5761
     25 N3         -5.0014    8.1458    0.0037 N.2       1 <0>        -0.2196
     26 C21        -6.1204    7.4939   -0.0841 C.2       1 <0>         0.1396
     27 C22        -6.1101    5.9913   -0.1984 C.3       1 <0>        -0.1593
     28 C23        -7.4018    8.2236   -0.0719 C.ar      1 <0>        -0.0312
     29 C24        -8.6079    7.5248   -0.1720 C.ar      1 <0>        -0.1079
     30 C25        -9.8051    8.2100   -0.1554 C.ar      1 <0>        -0.1016
     31 C26        -9.8169    9.5886   -0.0500 C.ar      1 <0>        -0.1294
     32 C27        -8.6230   10.2937    0.0448 C.ar      1 <0>         0.1437
     33 C28        -7.4144    9.6153    0.0340 C.ar      1 <0>        -0.0805
     34 N4         -8.6411   11.6890    0.1507 N.am      1 <0>        -0.6758
     35 C29        -7.6690   12.4215   -0.4281 C.2       1 <0>         0.5204
     36 O3         -6.8340   11.8808   -1.1220 O.2       1 <0>        -0.5062
     37 C30        -7.6195   13.9122   -0.2131 C.3       1 <0>        -0.0834
     38 C31        -6.4287   14.4981   -0.9745 C.3       1 <0>        -0.1307
     39 C32        -8.9145   14.5449   -0.7267 C.3       1 <0>        -0.1430
     40 C33        -7.4652   14.2073    1.2802 C.3       1 <0>        -0.1430
     41 H1          5.0949   -4.0189    0.0349 H         1 <0>         0.0577
     42 H2          5.6516   -2.5890   -0.8673 H         1 <0>         0.0564
     43 H3          5.6736   -2.5825    0.9125 H         1 <0>         0.0564
     44 H4          3.1972   -2.7067    0.9436 H         1 <0>         0.0649
     45 H5          3.1752   -2.7133   -0.8363 H         1 <0>         0.0649
     46 H6          4.2863   -0.4966   -0.8581 H         1 <0>         0.0749
     47 H7          4.3083   -0.4900    0.9217 H         1 <0>         0.0749
     48 H8          1.8319   -0.6143    0.9527 H         1 <0>         0.0630
     49 H9          1.8100   -0.6208   -0.8271 H         1 <0>         0.0630
     50 H10         0.0409    0.0240    0.0824 H         1 <0>         0.1308
     51 H11        -2.1112    1.2137    0.0947 H         1 <0>         0.1314
     52 H12        -2.1640    3.6723    0.0950 H         1 <0>         0.1258
     53 H13         2.1198    3.7562    0.0423 H         1 <0>         0.1453
     54 H14        -2.2128    5.4386    0.0890 H         1 <0>         0.1419
     55 H15        -0.9054   10.0887    0.0554 H         1 <0>         0.1641
     56 H16         1.2640   11.2050    0.0251 H         1 <0>         0.1329
     57 H17         3.3468    9.9005    0.0045 H         1 <0>         0.1345
     58 H18         3.2980    7.4668    0.0151 H         1 <0>         0.1408
     59 H19        -3.7774    6.4854   -0.0815 H         1 <0>         0.3853
     60 H20        -6.1423    5.5508    0.7981 H         1 <0>         0.0916
     61 H21        -6.9796    5.6643   -0.7685 H         1 <0>         0.0941
     62 H22        -5.2007    5.6719   -0.7076 H         1 <0>         0.0690
     63 H23        -8.6028    6.4483   -0.2589 H         1 <0>         0.1322
     64 H24       -10.7364    7.6680   -0.2287 H         1 <0>         0.1335
     65 H25       -10.7573   10.1195   -0.0418 H         1 <0>         0.1288
     66 H26        -6.4857   10.1617    0.1068 H         1 <0>         0.1478
     67 H27        -9.3534   12.1290    0.6406 H         1 <0>         0.4109
     68 H28        -6.5387   14.2879   -2.0383 H         1 <0>         0.0633
     69 H29        -6.3929   15.5763   -0.8189 H         1 <0>         0.0650
     70 H30        -5.5062   14.0474   -0.6085 H         1 <0>         0.0650
     71 H31        -9.7628   14.1275   -0.1843 H         1 <0>         0.0592
     72 H32        -8.8787   15.6231   -0.5712 H         1 <0>         0.0729
     73 H33        -9.0244   14.3347   -1.7906 H         1 <0>         0.0630
     74 H34        -6.5426   13.7566    1.6462 H         1 <0>         0.0637
     75 H35        -7.4294   15.2855    1.4358 H         1 <0>         0.0728
     76 H36        -8.3135   13.7899    1.8226 H         1 <0>         0.0598
@<TRIPOS>BOND
     1    1    2 1
     2    1   41 1
     3    1   42 1
     4    1   43 1
     5    2    3 1
     6    2   44 1
     7    2   45 1
     8    3    4 1
     9    3   46 1
    10    3   47 1
    11    4    5 1
    12    4   48 1
    13    4   49 1
    14    5    6 1
    15    6   11 ar
    16    6    7 ar
    17    7    8 ar
    18    7   50 1
    19    8    9 ar
    20    8   51 1
    21    9   10 ar
    22    9   52 1
    23   10   11 ar
    24   10   12 1
    25   11   53 1
    26   12   21 ar
    27   12   13 ar
    28   13   14 ar
    29   13   54 1
    30   14   15 ar
    31   14   22 1
    32   15   20 ar
    33   15   16 ar
    34   16   17 ar
    35   16   55 1
    36   17   18 ar
    37   17   56 1
    38   18   19 ar
    39   18   57 1
    40   19   20 ar
    41   19   58 1
    42   20   21 ar
    43   22   23 2
    44   22   24 am
    45   24   25 1
    46   24   59 1
    47   25   26 2
    48   26   27 1
    49   26   28 1
    50   27   60 1
    51   27   61 1
    52   27   62 1
    53   28   33 ar
    54   28   29 ar
    55   29   30 ar
    56   29   63 1
    57   30   31 ar
    58   30   64 1
    59   31   32 ar
    60   31   65 1
    61   32   33 ar
    62   32   34 1
    63   33   66 1
    64   34   35 am
    65   34   67 1
    66   35   36 2
    67   35   37 1
    68   37   38 1
    69   37   39 1
    70   37   40 1
    71   38   68 1
    72   38   69 1
    73   38   70 1
    74   39   71 1
    75   39   72 1
    76   39   73 1
    77   40   74 1
    78   40   75 1
    79   40   76 1
@<TRIPOS>MOLECULE
ZINC02084106
   66    69     0     0     0
SMALL
USER_CHARGES
methyl 5-(diethylcarbamoyl)-4-methyl-2-[[2-(m-tolyl)-4-quinolyl]carbonylamino]thiophene-3-carboxylate
@<TRIPOS>ATOM
      1 C1         -2.2710   -3.0045   -1.9938 C.3       1 <0>        -0.1697
      2 C2         -2.0182   -3.1223   -0.4894 C.3       1 <0>         0.1132
      3 N1         -0.9071   -2.2458   -0.1109 N.am      1 <0>        -0.6099
      4 C3          0.4669   -2.7537   -0.1332 C.3       1 <0>         0.0992
      5 C4          0.8735   -3.1867    1.2768 C.3       1 <0>        -0.1824
      6 C5         -1.1488   -0.9722    0.2579 C.2       1 <0>         0.6106
      7 O1         -2.2943   -0.5674    0.3335 O.2       1 <0>        -0.5201
      8 C6         -0.0334   -0.0754    0.5678 C.2       1 <0>        -0.2979
      9 C7         -0.0625    1.2697    0.8168 C.2       1 <0>         0.0268
     10 C8          1.1423    1.9011    1.0873 C.2       1 <0>        -0.2193
     11 C9          2.3019    1.1178    1.0864 C.2       1 <0>         0.0715
     12 S1          1.7003   -0.4643    0.7133 S.3       1 <0>         0.3171
     13 N2          3.6037    1.5087    1.3239 N.am      1 <0>        -0.6076
     14 C10         4.5989    0.6010    1.2783 C.2       1 <0>         0.5674
     15 O2          4.3497   -0.5619    1.0280 O.2       1 <0>        -0.4785
     16 C11         5.9937    1.0198    1.5329 C.ar      1 <0>        -0.0778
     17 C12         6.3264    2.3566    1.7042 C.ar      1 <0>        -0.1133
     18 C13         7.6629    2.7082    1.9441 C.ar      1 <0>         0.2010
     19 N3          8.6243    1.8118    2.0145 N.ar      1 <0>        -0.4407
     20 C14         8.3954    0.5068    1.8622 C.ar      1 <0>         0.1318
     21 C15         7.0780    0.0417    1.6204 C.ar      1 <0>        -0.0599
     22 C16         6.8409   -1.3288    1.4673 C.ar      1 <0>        -0.1046
     23 C17         7.8805   -2.2062    1.5569 C.ar      1 <0>        -0.1032
     24 C18         9.1765   -1.7554    1.7987 C.ar      1 <0>        -0.0960
     25 C19         9.4437   -0.4289    1.9431 C.ar      1 <0>        -0.0894
     26 C20         8.0047    4.1398    2.1253 C.ar      1 <0>        -0.0567
     27 C21         6.9956    5.1011    2.1606 C.ar      1 <0>        -0.1057
     28 C22         7.3195    6.4316    2.3299 C.ar      1 <0>        -0.1163
     29 C23         8.6428    6.8124    2.4651 C.ar      1 <0>        -0.1029
     30 C24         9.6481    5.8630    2.4314 C.ar      1 <0>        -0.0890
     31 C25         9.3356    4.5287    2.2669 C.ar      1 <0>        -0.0733
     32 C26        11.0869    6.2857    2.5798 C.3       1 <0>        -0.1170
     33 C27         1.1992    3.3406    1.3644 C.2       1 <0>         0.5279
     34 O3          1.0931    3.7446    2.5064 O.2       1 <0>        -0.4868
     35 O4          1.3691    4.2157    0.3527 O.3       1 <0>        -0.3503
     36 C28         1.4160    5.6246    0.7007 C.3       1 <0>         0.0299
     37 C29        -1.3578    2.0396    0.7918 C.3       1 <0>        -0.1124
     38 H1         -1.3736   -3.3001   -2.5373 H         1 <0>         0.0562
     39 H2         -3.0978   -3.6566   -2.2755 H         1 <0>         0.0692
     40 H3         -2.5218   -1.9728   -2.2404 H         1 <0>         0.0602
     41 H4         -1.7675   -4.1540   -0.2428 H         1 <0>         0.0807
     42 H5         -2.9156   -2.8266    0.0540 H         1 <0>         0.0890
     43 H6          0.5275   -3.6081   -0.8073 H         1 <0>         0.0992
     44 H7          1.1388   -1.9687   -0.4802 H         1 <0>         0.0767
     45 H8          0.8129   -2.3323    1.9509 H         1 <0>         0.0645
     46 H9          0.2016   -3.9716    1.6238 H         1 <0>         0.0685
     47 H10         1.8958   -3.5646    1.2602 H         1 <0>         0.0793
     48 H11         3.8026    2.4369    1.5237 H         1 <0>         0.4194
     49 H12         5.5631    3.1190    1.6529 H         1 <0>         0.1419
     50 H13         5.8403   -1.6893    1.2796 H         1 <0>         0.1627
     51 H14         7.6972   -3.2640    1.4387 H         1 <0>         0.1341
     52 H15         9.9837   -2.4700    1.8647 H         1 <0>         0.1356
     53 H16        10.4541   -0.0964    2.1304 H         1 <0>         0.1415
     54 H17         5.9623    4.8050    2.0552 H         1 <0>         0.1222
     55 H18         6.5387    7.1772    2.3574 H         1 <0>         0.1290
     56 H19         8.8917    7.8549    2.5978 H         1 <0>         0.1265
     57 H20        10.1211    3.7879    2.2444 H         1 <0>         0.1369
     58 H21        11.3618    6.2752    3.6345 H         1 <0>         0.0731
     59 H22        11.7270    5.5952    2.0306 H         1 <0>         0.0690
     60 H23        11.2128    7.2926    2.1816 H         1 <0>         0.0687
     61 H24         0.4809    5.9113    1.1820 H         1 <0>         0.0674
     62 H25         2.2460    5.8026    1.3845 H         1 <0>         0.0645
     63 H26         1.5562    6.2177   -0.2030 H         1 <0>         0.1063
     64 H27        -1.8011    2.0372    1.7876 H         1 <0>         0.0838
     65 H28        -1.1641    3.0667    0.4827 H         1 <0>         0.0615
     66 H29        -2.0450    1.5715    0.0870 H         1 <0>         0.0973
@<TRIPOS>BOND
     1    1    2 1
     2    1   38 1
     3    1   39 1
     4    1   40 1
     5    2    3 1
     6    2   41 1
     7    2   42 1
     8    3    4 1
     9    3    6 am
    10    4    5 1
    11    4   43 1
    12    4   44 1
    13    5   45 1
    14    5   46 1
    15    5   47 1
    16    6    7 2
    17    6    8 1
    18    8   12 1
    19    8    9 2
    20    9   10 1
    21    9   37 1
    22   10   11 2
    23   10   33 1
    24   11   12 1
    25   11   13 1
    26   13   14 am
    27   13   48 1
    28   14   15 2
    29   14   16 1
    30   16   21 ar
    31   16   17 ar
    32   17   18 ar
    33   17   49 1
    34   18   19 ar
    35   18   26 1
    36   19   20 ar
    37   20   25 ar
    38   20   21 ar
    39   21   22 ar
    40   22   23 ar
    41   22   50 1
    42   23   24 ar
    43   23   51 1
    44   24   25 ar
    45   24   52 1
    46   25   53 1
    47   26   31 ar
    48   26   27 ar
    49   27   28 ar
    50   27   54 1
    51   28   29 ar
    52   28   55 1
    53   29   30 ar
    54   29   56 1
    55   30   31 ar
    56   30   32 1
    57   31   57 1
    58   32   58 1
    59   32   59 1
    60   32   60 1
    61   33   34 2
    62   33   35 1
    63   35   36 1
    64   36   61 1
    65   36   62 1
    66   36   63 1
    67   37   64 1
    68   37   65 1
    69   37   66 1
@<TRIPOS>MOLECULE
ZINC09272541
   63    66     0     0     0
SMALL
USER_CHARGES
2-[1-[(4-chlorophenyl)methyl]benzimidazol-2-yl]sulfanyl-N-[(4-diethylaminophenyl)methyleneamino]acetamide
@<TRIPOS>ATOM
      1 C1         -4.2020   18.4024    1.5785 C.3       1 <0>        -0.1735
      2 C2         -3.7131   18.3179    0.1312 C.3       1 <0>         0.1148
      3 N1         -2.2720   18.0547    0.1171 N.pl3     1 <0>        -0.6220
      4 C3         -1.3235   19.1712    0.1142 C.3       1 <0>         0.1153
      5 C4         -1.0062   19.5670   -1.3293 C.3       1 <0>        -0.1735
      6 C5         -1.8031   16.7413    0.1064 C.ar      1 <0>         0.2400
      7 C6         -0.4345   16.4933    0.0930 C.ar      1 <0>        -0.2058
      8 C7          0.0323   15.1975    0.0824 C.ar      1 <0>        -0.0352
      9 C8         -0.8711   14.1310    0.0852 C.ar      1 <0>        -0.1273
     10 C9         -2.2457   14.3841    0.0933 C.ar      1 <0>        -0.0233
     11 C10        -2.7051   15.6825    0.1087 C.ar      1 <0>        -0.2061
     12 C11        -0.3756   12.7430    0.0733 C.2       1 <0>         0.1334
     13 N2         -1.2159   11.7538    0.0759 N.2       1 <0>        -0.2451
     14 N3         -0.7449   10.4344    0.0647 N.am      1 <0>        -0.5792
     15 C12        -1.6175    9.4072    0.0674 C.2       1 <0>         0.5514
     16 O1         -2.8109    9.6252    0.0795 O.2       1 <0>        -0.4894
     17 C13        -1.1108    7.9880    0.0553 C.3       1 <0>        -0.1417
     18 S1         -2.5150    6.8460    0.0623 S.3       1 <0>         0.0785
     19 C14        -1.6576    5.3067    0.0464 C.2       1 <0>         0.2481
     20 N4         -0.3542    5.1707    0.0332 N.2       1 <0>        -0.4953
     21 C15        -0.0333    3.8505    0.0231 C.ar      1 <0>         0.0569
     22 C16         1.1802    3.1580    0.0077 C.ar      1 <0>        -0.0659
     23 C17         1.1817    1.7811    0.0003 C.ar      1 <0>        -0.1247
     24 C18        -0.0126    1.0758    0.0080 C.ar      1 <0>        -0.0992
     25 C19        -1.2192    1.7448    0.0173 C.ar      1 <0>        -0.1096
     26 C20        -1.2397    3.1312    0.0307 C.ar      1 <0>         0.0599
     27 N5         -2.2522    4.0766    0.0455 N.pl3     1 <0>        -0.4679
     28 C21        -3.6923    3.8075    0.0582 C.3       1 <0>         0.1503
     29 C22        -4.2002    3.7236   -1.3582 C.ar      1 <0>        -0.1184
     30 C23        -4.6582    4.8612   -1.9964 C.ar      1 <0>        -0.0806
     31 C24        -5.1188    4.7859   -3.2973 C.ar      1 <0>        -0.1090
     32 C25        -5.1321    3.5699   -3.9569 C.ar      1 <0>        -0.0228
     33 C26        -4.6789    2.4307   -3.3157 C.ar      1 <0>        -0.1117
     34 C27        -4.2132    2.5082   -2.0167 C.ar      1 <0>        -0.0829
     35 Cl1        -5.7167    3.4734   -5.5887 Cl        1 <0>        -0.0633
     36 H1         -3.9999   17.4590    2.0859 H         1 <0>         0.0599
     37 H2         -3.6801   19.2100    2.0918 H         1 <0>         0.0562
     38 H3         -5.2742   18.5982    1.5891 H         1 <0>         0.0656
     39 H4         -3.9152   19.2612   -0.3762 H         1 <0>         0.0750
     40 H5         -4.2350   17.5102   -0.3820 H         1 <0>         0.0780
     41 H6         -1.7619   20.0218    0.6361 H         1 <0>         0.0749
     42 H7         -0.4055   18.8693    0.6183 H         1 <0>         0.0776
     43 H8         -0.5678   18.7165   -1.8513 H         1 <0>         0.0596
     44 H9         -1.9242   19.8689   -1.8335 H         1 <0>         0.0564
     45 H10        -0.3004   20.3977   -1.3315 H         1 <0>         0.0653
     46 H11         0.2630   17.3179    0.0905 H         1 <0>         0.1269
     47 H12         1.0951   15.0058    0.0716 H         1 <0>         0.1266
     48 H13        -2.9468   13.5625    0.0909 H         1 <0>         0.1333
     49 H14        -3.7671   15.8788    0.1188 H         1 <0>         0.1261
     50 H15         0.6868   12.5490    0.0626 H         1 <0>         0.1176
     51 H16         0.2093   10.2601    0.0550 H         1 <0>         0.3881
     52 H17        -0.4965    7.8140    0.9388 H         1 <0>         0.1318
     53 H18        -0.5129    7.8233   -0.8411 H         1 <0>         0.1315
     54 H19         2.1138    3.7009    0.0021 H         1 <0>         0.1295
     55 H20         2.1199    1.2463   -0.0118 H         1 <0>         0.1311
     56 H21         0.0021   -0.0041    0.0020 H         1 <0>         0.1316
     57 H22        -2.1457    1.1899    0.0187 H         1 <0>         0.1212
     58 H23        -3.8809    2.8628    0.5683 H         1 <0>         0.1070
     59 H24        -4.2077    4.6125    0.5820 H         1 <0>         0.1077
     60 H25        -4.6519    5.8096   -1.4799 H         1 <0>         0.1380
     61 H26        -5.4725    5.6755   -3.7974 H         1 <0>         0.1392
     62 H27        -4.6887    1.4812   -3.8302 H         1 <0>         0.1373
     63 H28        -3.8590    1.6192   -1.5162 H         1 <0>         0.1317
@<TRIPOS>BOND
     1    1    2 1
     2    1   36 1
     3    1   37 1
     4    1   38 1
     5    2    3 1
     6    2   39 1
     7    2   40 1
     8    3    4 1
     9    3    6 1
    10    4    5 1
    11    4   41 1
    12    4   42 1
    13    5   43 1
    14    5   44 1
    15    5   45 1
    16    6   11 ar
    17    6    7 ar
    18    7    8 ar
    19    7   46 1
    20    8    9 ar
    21    8   47 1
    22    9   10 ar
    23    9   12 1
    24   10   11 ar
    25   10   48 1
    26   11   49 1
    27   12   13 2
    28   12   50 1
    29   13   14 1
    30   14   15 am
    31   14   51 1
    32   15   16 2
    33   15   17 1
    34   17   18 1
    35   17   52 1
    36   17   53 1
    37   18   19 1
    38   19   27 1
    39   19   20 2
    40   20   21 1
    41   21   26 ar
    42   21   22 ar
    43   22   23 ar
    44   22   54 1
    45   23   24 ar
    46   23   55 1
    47   24   25 ar
    48   24   56 1
    49   25   26 ar
    50   25   57 1
    51   26   27 1
    52   27   28 1
    53   28   29 1
    54   28   58 1
    55   28   59 1
    56   29   34 ar
    57   29   30 ar
    58   30   31 ar
    59   30   60 1
    60   31   32 ar
    61   31   61 1
    62   32   33 ar
    63   32   35 1
    64   33   34 ar
    65   33   62 1
    66   34   63 1
@<TRIPOS>MOLECULE
ZINC08452867
   72    75     0     0     0
SMALL
USER_CHARGES
ethyl 4-[3-(4-ethoxycarbonylphenyl)-4-oxo-5-[(4-tert-butylphenyl)methylene]thiazolidin-2-ylidene]aminobenzoate
@<TRIPOS>ATOM
      1 C1          1.2070   -8.3229   -3.2738 C.3       1 <0>        -0.1536
      2 C2          0.2809   -8.0098   -2.0969 C.3       1 <0>         0.0630
      3 O1          0.2018   -6.5717   -1.9126 O.3       1 <0>        -0.3541
      4 C3         -0.5795   -6.1255   -0.9089 C.2       1 <0>         0.5105
      5 O2         -1.1782   -6.9168   -0.2069 O.2       1 <0>        -0.5043
      6 C4         -0.7076   -4.6797   -0.6628 C.ar      1 <0>        -0.1341
      7 C5         -1.5192   -4.2163    0.3798 C.ar      1 <0>        -0.0350
      8 C6         -1.6384   -2.8768    0.6076 C.ar      1 <0>        -0.1094
      9 C7         -0.9485   -1.9648   -0.2012 C.ar      1 <0>         0.1393
     10 C8         -0.1405   -2.4285   -1.2471 C.ar      1 <0>        -0.1645
     11 C9         -0.0182   -3.7682   -1.4718 C.ar      1 <0>        -0.0358
     12 N1         -1.0677   -0.6268    0.0259 N.2       1 <0>        -0.4574
     13 C10         0.0027    0.1390    0.0239 C.2       1 <0>         0.3947
     14 N2          0.0834    1.4998    0.2314 N.am      1 <0>        -0.5010
     15 C11         1.2515    2.1186    0.1953 C.2       1 <0>         0.5585
     16 O3          1.3417    3.3186    0.3757 O.2       1 <0>        -0.4637
     17 C12         2.4414    1.2868   -0.0744 C.2       1 <0>        -0.2239
     18 C13         3.7442    1.6528   -0.1670 C.2       1 <0>         0.0794
     19 C14         4.7900    0.6259   -0.2791 C.ar      1 <0>        -0.1036
     20 C15         4.5632   -0.6654    0.2102 C.ar      1 <0>        -0.0875
     21 C16         5.5477   -1.6239    0.0972 C.ar      1 <0>        -0.1199
     22 C17         6.7612   -1.3092   -0.4897 C.ar      1 <0>        -0.0411
     23 C18         6.9954   -0.0329   -0.9715 C.ar      1 <0>        -0.1193
     24 C19         6.0197    0.9359   -0.8706 C.ar      1 <0>        -0.0755
     25 C20         7.8335   -2.3619   -0.6042 C.3       1 <0>        -0.0348
     26 C21         9.0822   -1.9022    0.1512 C.3       1 <0>        -0.1403
     27 C22         7.3269   -3.6737   -0.0014 C.3       1 <0>        -0.1477
     28 C23         8.1802   -2.5784   -2.0785 C.3       1 <0>        -0.1402
     29 S1          1.7034   -0.3315   -0.2472 S.3       1 <0>        -0.0026
     30 C24        -1.0798    2.2322    0.4763 C.ar      1 <0>         0.1505
     31 C25        -1.2976    2.7892    1.7324 C.ar      1 <0>        -0.1057
     32 C26        -2.4406    3.5167    1.9758 C.ar      1 <0>        -0.0488
     33 C27        -3.3884    3.6862    0.9622 C.ar      1 <0>        -0.1136
     34 C28        -3.1688    3.1202   -0.2970 C.ar      1 <0>        -0.0412
     35 C29        -2.0209    2.3983   -0.5346 C.ar      1 <0>        -0.1022
     36 C30        -4.6171    4.4598    1.2209 C.2       1 <0>         0.5108
     37 O4         -5.4400    4.6058    0.3390 O.2       1 <0>        -0.5006
     38 O5         -4.8271    5.0047    2.4353 O.3       1 <0>        -0.3530
     39 C31        -6.0580    5.7528    2.6182 C.3       1 <0>         0.0629
     40 C32        -6.1196    6.2915    4.0489 C.3       1 <0>        -0.1539
     41 H1          1.2664   -9.4025   -3.4122 H         1 <0>         0.0818
     42 H2          0.8125   -7.8617   -4.1792 H         1 <0>         0.0675
     43 H3          2.2018   -7.9277   -3.0685 H         1 <0>         0.0674
     44 H4          0.6754   -8.4710   -1.1915 H         1 <0>         0.0719
     45 H5         -0.7139   -8.4051   -2.3022 H         1 <0>         0.0719
     46 H6         -2.0512   -4.9195    1.0034 H         1 <0>         0.1465
     47 H7         -2.2649   -2.5193    1.4114 H         1 <0>         0.1427
     48 H8          0.3880   -1.7253   -1.8737 H         1 <0>         0.1387
     49 H9          0.6072   -4.1258   -2.2764 H         1 <0>         0.1444
     50 H10         4.0132    2.6988   -0.1583 H         1 <0>         0.1619
     51 H11         3.6183   -0.9114    0.6717 H         1 <0>         0.1346
     52 H12         5.3731   -2.6219    0.4712 H         1 <0>         0.1348
     53 H13         7.9450    0.2046   -1.4280 H         1 <0>         0.1297
     54 H14         6.2041    1.9314   -1.2467 H         1 <0>         0.1328
     55 H15         8.8352   -1.7479    1.2016 H         1 <0>         0.0577
     56 H16         9.8578   -2.6636    0.0684 H         1 <0>         0.0619
     57 H17         9.4431   -0.9676   -0.2782 H         1 <0>         0.0584
     58 H18         6.4373   -4.0011   -0.5395 H         1 <0>         0.0606
     59 H19         8.1025   -4.4350   -0.0842 H         1 <0>         0.0616
     60 H20         7.0799   -3.5194    1.0490 H         1 <0>         0.0601
     61 H21         8.5412   -1.6438   -2.5080 H         1 <0>         0.0583
     62 H22         8.9558   -3.3398   -2.1614 H         1 <0>         0.0618
     63 H23         7.2907   -2.9059   -2.6167 H         1 <0>         0.0580
     64 H24        -0.5668    2.6545    2.5161 H         1 <0>         0.1358
     65 H25        -2.6068    3.9529    2.9498 H         1 <0>         0.1491
     66 H26        -3.8986    3.2493   -1.0825 H         1 <0>         0.1485
     67 H27        -1.8506    1.9608   -1.5072 H         1 <0>         0.1371
     68 H28        -6.0852    6.5852    1.9151 H         1 <0>         0.0726
     69 H29        -6.9110    5.0982    2.4395 H         1 <0>         0.0727
     70 H30        -7.0436    6.8531    4.1863 H         1 <0>         0.0824
     71 H31        -6.0924    5.4591    4.7521 H         1 <0>         0.0678
     72 H32        -5.2666    6.9461    4.2277 H         1 <0>         0.0679
@<TRIPOS>BOND
     1    1    2 1
     2    1   41 1
     3    1   42 1
     4    1   43 1
     5    2    3 1
     6    2   44 1
     7    2   45 1
     8    3    4 1
     9    4    5 2
    10    4    6 1
    11    6   11 ar
    12    6    7 ar
    13    7    8 ar
    14    7   46 1
    15    8    9 ar
    16    8   47 1
    17    9   10 ar
    18    9   12 1
    19   10   11 ar
    20   10   48 1
    21   11   49 1
    22   12   13 2
    23   13   29 1
    24   13   14 1
    25   14   15 am
    26   14   30 1
    27   15   16 2
    28   15   17 1
    29   17   18 2
    30   17   29 1
    31   18   19 1
    32   18   50 1
    33   19   24 ar
    34   19   20 ar
    35   20   21 ar
    36   20   51 1
    37   21   22 ar
    38   21   52 1
    39   22   23 ar
    40   22   25 1
    41   23   24 ar
    42   23   53 1
    43   24   54 1
    44   25   26 1
    45   25   27 1
    46   25   28 1
    47   26   55 1
    48   26   56 1
    49   26   57 1
    50   27   58 1
    51   27   59 1
    52   27   60 1
    53   28   61 1
    54   28   62 1
    55   28   63 1
    56   30   35 ar
    57   30   31 ar
    58   31   32 ar
    59   31   64 1
    60   32   33 ar
    61   32   65 1
    62   33   34 ar
    63   33   36 1
    64   34   35 ar
    65   34   66 1
    66   35   67 1
    67   36   37 2
    68   36   38 1
    69   38   39 1
    70   39   40 1
    71   39   68 1
    72   39   69 1
    73   40   70 1
    74   40   71 1
    75   40   72 1
@<TRIPOS>MOLECULE
ZINC00875118
   59    63     0     0     0
SMALL
USER_CHARGES
1-(1,3-benzodioxol-5-ylmethyl)-1-[(8-methyl-2-oxo-1H-quinolin-3-yl)methyl]-3-(p-tolyl)thiourea
@<TRIPOS>ATOM
      1 C1          6.4923   -8.8332    4.4088 C.3       1 <0>        -0.1165
      2 C2          5.6944   -7.5873    4.6956 C.ar      1 <0>        -0.0791
      3 C3          6.1864   -6.3510    4.3193 C.ar      1 <0>        -0.1158
      4 C4          5.4575   -5.2074    4.5807 C.ar      1 <0>        -0.1201
      5 C5          4.2292   -5.3000    5.2222 C.ar      1 <0>         0.1181
      6 C6          3.7406   -6.5427    5.6039 C.ar      1 <0>        -0.0633
      7 C7          4.4715   -7.6830    5.3341 C.ar      1 <0>        -0.1119
      8 N1          3.4885   -4.1435    5.4884 N.pl3     1 <0>        -0.6313
      9 C8          2.1543   -4.1391    5.2977 C.2       1 <0>         0.5611
     10 S1          1.3853   -5.4985    4.5965 S.2       1 <0>        -0.6222
     11 N2          1.4255   -3.0645    5.6589 N.pl3     1 <0>        -0.5494
     12 C9          2.0836   -1.9012    6.2589 C.3       1 <0>         0.1302
     13 C10         2.1227   -2.0632    7.7567 C.ar      1 <0>        -0.1082
     14 C11         1.0844   -1.5784    8.5302 C.ar      1 <0>        -0.0805
     15 C12         1.1130   -1.7296    9.9040 C.ar      1 <0>        -0.0976
     16 C13         2.1892   -2.3572   10.5102 C.ar      1 <0>         0.0442
     17 C14         3.2377   -2.8408    9.7314 C.ar      1 <0>         0.0360
     18 C15         3.1993   -2.6911    8.3546 C.ar      1 <0>        -0.0886
     19 O1          4.1658   -3.4105   10.5544 O.3       1 <0>        -0.3061
     20 C16         3.8709   -2.9091   11.8716 C.3       1 <0>         0.2126
     21 O2          2.4604   -2.6240   11.8211 O.3       1 <0>        -0.3059
     22 C17        -0.0248   -3.0597    5.4517 C.3       1 <0>         0.1750
     23 C18        -0.3355   -2.4971    4.0885 C.2       1 <0>        -0.2343
     24 C19        -0.5130   -3.3343    3.0367 C.2       1 <0>         0.0362
     25 C20        -0.8132   -2.7560    1.7256 C.ar      1 <0>        -0.1337
     26 C21        -1.0061   -3.5686    0.6033 C.ar      1 <0>        -0.0510
     27 C22        -1.2843   -2.9979   -0.6061 C.ar      1 <0>        -0.1463
     28 C23        -1.3840   -1.6186   -0.7303 C.ar      1 <0>        -0.0624
     29 C24        -1.1918   -0.7985    0.3604 C.ar      1 <0>        -0.1330
     30 C25        -0.9069   -1.3571    1.6023 C.ar      1 <0>         0.1856
     31 N3         -0.7151   -0.5607    2.7111 N.am      1 <0>        -0.6287
     32 H1         -0.7801    0.4032    2.6243 H         1 <0>         0.4145
     33 C26        -0.4403   -1.1009    3.9113 C.2       1 <0>         0.5472
     34 O3         -0.2770   -0.3663    4.8701 O.2       1 <0>        -0.5463
     35 C27        -1.2958    0.6973    0.2097 C.3       1 <0>        -0.1161
     36 H2          7.1532   -9.0430    5.2499 H         1 <0>         0.0710
     37 H3          5.8138   -9.6734    4.2616 H         1 <0>         0.0679
     38 H4          7.0872   -8.6842    3.5077 H         1 <0>         0.0663
     39 H5          7.1418   -6.2796    3.8209 H         1 <0>         0.1256
     40 H6          5.8422   -4.2421    4.2863 H         1 <0>         0.1211
     41 H7          2.7879   -6.6176    6.1072 H         1 <0>         0.1422
     42 H8          4.0898   -8.6501    5.6264 H         1 <0>         0.1266
     43 H9          3.9351   -3.3449    5.8102 H         1 <0>         0.4024
     44 H10         3.1007   -1.8213    5.8754 H         1 <0>         0.0826
     45 H11         1.5277   -0.9985    6.0055 H         1 <0>         0.1295
     46 H12         0.2471   -1.0844    8.0598 H         1 <0>         0.1457
     47 H13         0.2987   -1.3536   10.5055 H         1 <0>         0.1414
     48 H14         4.0111   -3.0649    7.7482 H         1 <0>         0.1260
     49 H15         4.4385   -2.0002   12.0713 H         1 <0>         0.0876
     50 H16         4.0817   -3.6670   12.6260 H         1 <0>         0.1351
     51 H17        -0.4989   -2.4436    6.2157 H         1 <0>         0.1032
     52 H18        -0.4049   -4.0790    5.5193 H         1 <0>         0.1256
     53 H19        -0.4350   -4.4040    3.1634 H         1 <0>         0.1686
     54 H20        -0.9349   -4.6425    0.6927 H         1 <0>         0.1385
     55 H21        -1.4332   -3.6254   -1.4724 H         1 <0>         0.1322
     56 H22        -1.6099   -1.1837   -1.6927 H         1 <0>         0.1328
     57 H23        -0.3158    1.1068   -0.0352 H         1 <0>         0.0751
     58 H24        -1.9985    0.9340   -0.5893 H         1 <0>         0.0785
     59 H25        -1.6484    1.1330    1.1445 H         1 <0>         0.0620
@<TRIPOS>BOND
     1    1    2 1
     2    1   36 1
     3    1   37 1
     4    1   38 1
     5    2    7 ar
     6    2    3 ar
     7    3    4 ar
     8    3   39 1
     9    4    5 ar
    10    4   40 1
    11    5    6 ar
    12    5    8 1
    13    6    7 ar
    14    6   41 1
    15    7   42 1
    16    8    9 1
    17    8   43 1
    18    9   10 2
    19    9   11 1
    20   11   12 1
    21   11   22 1
    22   12   13 1
    23   12   44 1
    24   12   45 1
    25   13   18 ar
    26   13   14 ar
    27   14   15 ar
    28   14   46 1
    29   15   16 ar
    30   15   47 1
    31   16   21 1
    32   16   17 ar
    33   17   18 ar
    34   17   19 1
    35   18   48 1
    36   19   20 1
    37   20   21 1
    38   20   49 1
    39   20   50 1
    40   22   23 1
    41   22   51 1
    42   22   52 1
    43   23   33 1
    44   23   24 2
    45   24   25 1
    46   24   53 1
    47   25   30 ar
    48   25   26 ar
    49   26   27 ar
    50   26   54 1
    51   27   28 ar
    52   27   55 1
    53   28   29 ar
    54   28   56 1
    55   29   30 ar
    56   29   35 1
    57   30   31 1
    58   31   32 1
    59   31   33 am
    60   33   34 2
    61   35   57 1
    62   35   58 1
    63   35   59 1
