@<TRIPOS>MOLECULE
ZINC00601247
   52    53     0     0     0
SMALL
USER_CHARGES

@<TRIPOS>ATOM
      1 C1          5.0455    0.2133   -1.6879 C.3       1 <0>         0.0890
      2 N1          4.6453   -1.1958   -1.7083 N.am      1 <0>        -0.6189
      3 C2          5.4053   -2.1617   -2.5056 C.3       1 <0>         0.0700
      4 C3          3.5779   -1.6036   -0.9936 C.2       1 <0>         0.5130
      5 O1          2.9487   -0.8040   -0.3336 O.2       1 <0>        -0.5118
      6 C4          3.1662   -3.0532   -1.0146 C.3       1 <0>         0.0503
      7 O2          2.0165   -3.2339   -0.1854 O.3       1 <0>        -0.3280
      8 C5          1.5199   -4.4776   -0.0949 C.2       1 <0>         0.4641
      9 O3          2.0439   -5.3829   -0.6996 O.2       1 <0>        -0.4958
     10 C6          0.3086   -4.7449    0.7610 C.3       1 <0>        -0.0748
     11 C7         -0.0428   -6.2086    0.6911 C.ar      1 <0>        -0.0674
     12 C8         -0.9109   -6.6642   -0.2839 C.ar      1 <0>        -0.0846
     13 C9         -1.2350   -8.0054   -0.3499 C.ar      1 <0>        -0.1157
     14 C10        -0.6883   -8.8957    0.5631 C.ar      1 <0>         0.0812
     15 C11         0.1828   -8.4361    1.5402 C.ar      1 <0>        -0.1103
     16 C12         0.5078   -7.0947    1.5987 C.ar      1 <0>        -0.0849
     17 O4         -1.0059  -10.2157    0.5006 O.3       1 <0>        -0.2888
     18 C13        -0.4043  -10.9672   -0.4426 C.2       1 <0>         0.4984
     19 O5          0.4318  -10.4719   -1.1722 O.2       1 <0>        -0.4682
     20 C14        -0.7606  -12.3903   -0.5891 C.ar      1 <0>        -0.1031
     21 C15        -1.7265  -12.9605    0.2457 C.ar      1 <0>        -0.0283
     22 C16        -2.0566  -14.2893    0.1061 C.ar      1 <0>        -0.1219
     23 C17        -1.4299  -15.0654   -0.8642 C.ar      1 <0>         0.1306
     24 C18        -0.4677  -14.5014   -1.6966 C.ar      1 <0>        -0.1626
     25 C19        -0.1375  -13.1716   -1.5671 C.ar      1 <0>        -0.0218
     26 N2         -1.7663  -16.4108   -1.0025 N.pl3     1 <0>        -0.6340
     27 C20        -1.8698  -16.9667   -2.2512 C.cat     1 <0>         0.7481
     28 N3         -2.0694  -18.2768   -2.3824 N.pl3     1 <0>        -0.7827
     29 N4         -1.7707  -16.1965   -3.3331 N.pl3     1 <0>        -0.7940
     30 H1          5.9225    0.3511   -2.3204 H         1 <0>         0.0807
     31 H2          4.2274    0.8288   -2.0620 H         1 <0>         0.0652
     32 H3          5.2844    0.5084   -0.6662 H         1 <0>         0.0653
     33 H4          6.2041   -2.5862   -1.8975 H         1 <0>         0.0636
     34 H5          4.7414   -2.9584   -2.8410 H         1 <0>         0.0726
     35 H6          5.8360   -1.6590   -3.3716 H         1 <0>         0.0810
     36 H7          2.9273   -3.3482   -2.0363 H         1 <0>         0.1002
     37 H8          3.9843   -3.6687   -0.6405 H         1 <0>         0.1004
     38 H9          0.5262   -4.4723    1.7938 H         1 <0>         0.1245
     39 H10        -0.5308   -4.1519    0.3979 H         1 <0>         0.1241
     40 H11        -1.3361   -5.9708   -0.9944 H         1 <0>         0.1349
     41 H12        -1.9136   -8.3607   -1.1113 H         1 <0>         0.1306
     42 H13         0.6097   -9.1271    2.2521 H         1 <0>         0.1351
     43 H14         1.1892   -6.7371    2.3564 H         1 <0>         0.1364
     44 H15        -2.2128  -12.3589    0.9995 H         1 <0>         0.1605
     45 H16        -2.8026  -14.7304    0.7506 H         1 <0>         0.1517
     46 H17         0.0171  -15.1069   -2.4481 H         1 <0>         0.1466
     47 H18         0.6056  -12.7333   -2.2168 H         1 <0>         0.1584
     48 H19        -1.9273  -16.9539   -0.2150 H         1 <0>         0.4462
     49 H20        -2.1416  -18.8377   -1.5943 H         1 <0>         0.4433
     50 H21        -1.8340  -15.2322   -3.2495 H         1 <0>         0.4436
     51 H22        -1.6352  -16.5999   -4.2048 H         1 <0>         0.4428
     52 H23        -2.1426  -18.6701   -3.2660 H         1 <0>         0.4452
@<TRIPOS>BOND
     1    1    2 1
     2    1   30 1
     3    1   31 1
     4    1   32 1
     5    2    3 1
     6    2    4 am
     7    3   33 1
     8    3   34 1
     9    3   35 1
    10    4    5 2
    11    4    6 1
    12    6    7 1
    13    6   36 1
    14    6   37 1
    15    7    8 1
    16    8    9 2
    17    8   10 1
    18   10   11 1
    19   10   38 1
    20   10   39 1
    21   11   16 ar
    22   11   12 ar
    23   12   13 ar
    24   12   40 1
    25   13   14 ar
    26   13   41 1
    27   14   15 ar
    28   14   17 1
    29   15   16 ar
    30   15   42 1
    31   16   43 1
    32   17   18 1
    33   18   19 2
    34   18   20 1
    35   20   25 ar
    36   20   21 ar
    37   21   22 ar
    38   21   44 1
    39   22   23 ar
    40   22   45 1
    41   23   24 ar
    42   23   26 1
    43   24   25 ar
    44   24   46 1
    45   25   47 1
    46   26   27 1
    47   26   48 1
    48   27   28 2
    49   27   29 1
    50   28   49 1
    51   28   52 1
    52   29   50 1
    53   29   51 1
