@<TRIPOS>MOLECULE
ZINC01430602
   31    33     0     0     0
SMALL
USER_CHARGES
8-(2,5-dimethylphenyl)-4-fluoro-7-thia-8-azabicyclo[4.3.0]nona-2,4,10-trien-9-one
@<TRIPOS>ATOM
      1 C1         -0.2008   -2.8266   -2.5042 C.3       1 <0>        -0.1154
      2 C2         -0.0856   -2.0760   -1.2026 C.ar      1 <0>        -0.0829
      3 C3          0.0386   -2.7709   -0.0131 C.ar      1 <0>        -0.0951
      4 C4          0.1451   -2.0862    1.1835 C.ar      1 <0>        -0.1096
      5 C5          0.1272   -0.7052    1.1947 C.ar      1 <0>        -0.0649
      6 C6          0.0021   -0.0041    0.0020 C.ar      1 <0>         0.1518
      7 C7         -0.1100   -0.6955   -1.1982 C.ar      1 <0>        -0.0892
      8 N1         -0.0169    1.3931    0.0097 N.am      1 <0>        -0.5630
      9 C8         -1.0927    2.1964    0.0184 C.2       1 <0>         0.5335
     10 O1         -2.2180    1.7278    0.0203 O.2       1 <0>        -0.4980
     11 C9         -0.8891    3.6393    0.0301 C.ar      1 <0>        -0.1901
     12 C10        -1.8366    4.6858    0.0441 C.ar      1 <0>         0.0163
     13 C11        -1.4333    5.9847    0.0470 C.ar      1 <0>        -0.1674
     14 C12        -0.0843    6.3259    0.0355 C.ar      1 <0>         0.1644
     15 C13         0.8730    5.3278    0.0224 C.ar      1 <0>        -0.1256
     16 C14         0.4747    4.0073    0.0191 C.ar      1 <0>        -0.0626
     17 S1          1.3230    2.4515    0.0026 S.3       1 <0>         0.2514
     18 F1          0.2881    7.6246    0.0385 F         1 <0>        -0.1201
     19 C15         0.2438    0.0401    2.4993 C.3       1 <0>        -0.1204
     20 H1         -1.2514   -3.0216   -2.7194 H         1 <0>         0.0746
     21 H2          0.2297   -2.2289   -3.3077 H         1 <0>         0.0688
     22 H3          0.3359   -3.7722   -2.4271 H         1 <0>         0.0719
     23 H4          0.0529   -3.8508   -0.0190 H         1 <0>         0.1325
     24 H5          0.2420   -2.6319    2.1104 H         1 <0>         0.1350
     25 H6         -0.2118   -0.1536   -2.1268 H         1 <0>         0.1291
     26 H7         -2.8912    4.4529    0.0528 H         1 <0>         0.1482
     27 H8         -2.1763    6.7684    0.0581 H         1 <0>         0.1519
     28 H9          1.9230    5.5801    0.0140 H         1 <0>         0.1551
     29 H10        -0.7509    0.2061    2.9131 H         1 <0>         0.0752
     30 H11         0.8360   -0.5467    3.2014 H         1 <0>         0.0759
     31 H12         0.7305    1.0001    2.3271 H         1 <0>         0.0688
@<TRIPOS>BOND
     1    1    2 1
     2    1   20 1
     3    1   21 1
     4    1   22 1
     5    2    7 ar
     6    2    3 ar
     7    3    4 ar
     8    3   23 1
     9    4    5 ar
    10    4   24 1
    11    5    6 ar
    12    5   19 1
    13    6    7 ar
    14    6    8 1
    15    7   25 1
    16    8   17 1
    17    8    9 am
    18    9   10 2
    19    9   11 1
    20   11   16 ar
    21   11   12 ar
    22   12   13 ar
    23   12   26 1
    24   13   14 ar
    25   13   27 1
    26   14   15 ar
    27   14   18 1
    28   15   16 ar
    29   15   28 1
    30   16   17 1
    31   19   29 1
    32   19   30 1
    33   19   31 1
