@<TRIPOS>MOLECULE
ZINC28363384
   54    57     0     0     0
SMALL
USER_CHARGES
2-[(5Z)-5-[(3,4-dibenzyloxyphenyl)methylene]-4-oxo-2-thioxo-thiazolidin-3-yl]acetic acid
@<TRIPOS>ATOM
      1 C1         -0.4368   -0.1960    1.0449 C.ar      1 <0>        -0.1104
      2 C2          0.5077    0.7164    0.6134 C.ar      1 <0>        -0.1236
      3 C3          1.8221    0.3231    0.4446 C.ar      1 <0>        -0.0935
      4 C4          2.1920   -0.9827    0.7073 C.ar      1 <0>        -0.0940
      5 C5          1.2476   -1.8950    1.1393 C.ar      1 <0>        -0.0940
      6 C6         -0.0668   -1.5017    1.3081 C.ar      1 <0>        -0.1241
      7 C7          3.6249   -1.4115    0.5233 C.3       1 <0>         0.0937
      8 O1          3.8142   -1.8795   -0.8136 O.3       1 <0>        -0.2913
      9 C8          5.0600   -2.3066   -1.1470 C.ar      1 <0>         0.1271
     10 C9          6.0781   -2.2746   -0.2034 C.ar      1 <0>        -0.1713
     11 C10         7.3434   -2.7067   -0.5350 C.ar      1 <0>        -0.0804
     12 C11         7.6049   -3.1798   -1.8267 C.ar      1 <0>        -0.0822
     13 C12         6.5772   -3.2115   -2.7772 C.ar      1 <0>        -0.1380
     14 C13         5.3107   -2.7812   -2.4339 C.ar      1 <0>         0.1006
     15 O2          4.3088   -2.8153   -3.3529 O.3       1 <0>        -0.2938
     16 C14         4.6364   -3.3135   -4.6515 C.3       1 <0>         0.0942
     17 C15         3.4109   -3.2763   -5.5277 C.ar      1 <0>        -0.0932
     18 C16         2.5660   -4.3691   -5.5811 C.ar      1 <0>        -0.0943
     19 C17         1.4395   -4.3333   -6.3814 C.ar      1 <0>        -0.1241
     20 C18         1.1627   -3.2082   -7.1354 C.ar      1 <0>        -0.1107
     21 C19         2.0104   -2.1174   -7.0860 C.ar      1 <0>        -0.1236
     22 C20         3.1346   -2.1515   -6.2823 C.ar      1 <0>        -0.0938
     23 C21         8.9524   -3.6415   -2.1832 C.2       1 <0>         0.0615
     24 C22         9.9858   -3.4473   -1.3246 C.2       1 <0>        -0.2171
     25 C23        11.3675   -3.9649   -1.3822 C.2       1 <0>         0.5473
     26 O3         11.7441   -4.6824   -2.2904 O.2       1 <0>        -0.4552
     27 N1         12.1748   -3.6098   -0.3969 N.am      1 <0>        -0.4885
     28 C24        11.7532   -2.8153    0.6079 C.2       1 <0>         0.2867
     29 S1         12.6385   -2.2512    1.9603 S.2       1 <0>        -0.3583
     30 S2         10.0502   -2.4881    0.1825 S.3       1 <0>         0.0476
     31 C25        13.5586   -4.0908   -0.3967 C.3       1 <0>         0.0319
     32 C26        14.4316   -3.1098   -1.1361 C.2       1 <0>         0.4677
     33 O4         13.9475   -2.1114   -1.6142 O.co2     1 <0>        -0.6246
     34 O5         15.7469   -3.3453   -1.2635 O.co2     1 <0>        -0.7466
     35 H1         -1.4647    0.1101    1.1721 H         1 <0>         0.1232
     36 H2          0.2186    1.7365    0.4078 H         1 <0>         0.1249
     37 H3          2.5600    1.0360    0.1074 H         1 <0>         0.1251
     38 H4          1.5366   -2.9152    1.3445 H         1 <0>         0.1244
     39 H5         -0.8048   -2.2145    1.6452 H         1 <0>         0.1245
     40 H6          4.2905   -0.5559    0.7099 H         1 <0>         0.0767
     41 H7          3.8596   -2.2199    1.2314 H         1 <0>         0.0759
     42 H8          5.8776   -1.9096    0.7930 H         1 <0>         0.1445
     43 H9          8.1335   -2.6803    0.2009 H         1 <0>         0.1387
     44 H10         6.7735   -3.5754   -3.7749 H         1 <0>         0.1457
     45 H11         5.4243   -2.6878   -5.0962 H         1 <0>         0.0751
     46 H12         4.9953   -4.3498   -4.5669 H         1 <0>         0.0746
     47 H13         2.7842   -5.2495   -4.9949 H         1 <0>         0.1243
     48 H14         0.7770   -5.1854   -6.4198 H         1 <0>         0.1244
     49 H15         0.2840   -3.1813   -7.7627 H         1 <0>         0.1231
     50 H16         1.7942   -1.2384   -7.6750 H         1 <0>         0.1247
     51 H17         3.7969   -1.2993   -6.2438 H         1 <0>         0.1249
     52 H18         9.1245   -4.1448   -3.1461 H         1 <0>         0.1657
     53 H19        13.9129   -4.1878    0.6402 H         1 <0>         0.1190
     54 H20        13.6062   -5.0710   -0.8937 H         1 <0>         0.1088
@<TRIPOS>BOND
     1    1    6 ar
     2    1    2 ar
     3    1   35 1
     4    2    3 ar
     5    2   36 1
     6    3    4 ar
     7    3   37 1
     8    4    5 ar
     9    4    7 1
    10    5    6 ar
    11    5   38 1
    12    6   39 1
    13    7    8 1
    14    7   40 1
    15    7   41 1
    16    8    9 1
    17    9   14 ar
    18    9   10 ar
    19   10   11 ar
    20   10   42 1
    21   11   12 ar
    22   11   43 1
    23   12   13 ar
    24   12   23 1
    25   13   14 ar
    26   13   44 1
    27   14   15 1
    28   15   16 1
    29   16   17 1
    30   16   45 1
    31   16   46 1
    32   17   22 ar
    33   17   18 ar
    34   18   19 ar
    35   18   47 1
    36   19   20 ar
    37   19   48 1
    38   20   21 ar
    39   20   49 1
    40   21   22 ar
    41   21   50 1
    42   22   51 1
    43   23   24 2
    44   23   52 1
    45   24   30 1
    46   24   25 1
    47   25   26 2
    48   25   27 am
    49   27   28 1
    50   27   31 1
    51   28   29 2
    52   28   30 1
    53   31   32 1
    54   31   53 1
    55   31   54 1
    56   32   33 2
    57   32   34 1
