@<TRIPOS>MOLECULE
ZINC13517759
   24    25     0     0     0
SMALL
USER_CHARGES
(3R)-7-bromo-3-(trifluoromethyl)-1,2,3,4-tetrahydroisoquinoline
@<TRIPOS>ATOM
      1 C1          1.2109   -0.6760   -0.0136 C.ar      1 <0>        -0.0872
      2 C2          2.3929    0.0374   -0.0195 C.ar      1 <0>        -0.1088
      3 C3          2.3747    1.4237   -0.0099 C.ar      1 <0>        -0.0523
      4 C4          1.1701    2.0945    0.0021 C.ar      1 <0>        -0.0779
      5 C5         -0.0167    1.3773    0.0096 C.ar      1 <0>        -0.0830
      6 C6          0.0021   -0.0041    0.0020 C.ar      1 <0>        -0.0896
      7 Br1        -1.6212   -0.9739    0.0136 Br        1 <0>        -0.0450
      8 C7          1.0985    3.5990    0.0019 C.3       1 <0>         0.0911
      9 N1          2.3845    4.1740    0.4091 N.3       1 <0>        -0.6595
     10 C8          3.4733    3.6181   -0.4100 C.3       1 <0>         0.0313
     11 H1          3.1767    3.6924   -1.4667 H         1 <0>         0.0916
     12 C9          3.6899    2.1598   -0.0063 C.3       1 <0>        -0.0783
     13 C10         4.7557    4.4178   -0.1714 C.3       1 <0>         0.4603
     14 F1          5.1070    4.3432    1.1807 F         1 <0>        -0.1691
     15 F2          5.7884    3.8867   -0.9515 F         1 <0>        -0.1778
     16 F3          4.5442    5.7547   -0.5253 F         1 <0>        -0.1818
     17 H2          1.2301   -1.7558   -0.0208 H         1 <0>         0.1363
     18 H3          3.3368   -0.4873   -0.0320 H         1 <0>         0.1356
     19 H4         -0.9609    1.9015    0.0169 H         1 <0>         0.1354
     20 H5          0.8524    3.9542   -1.0097 H         1 <0>         0.0589
     21 H6          0.3204    3.9292    0.7058 H         1 <0>         0.1062
     22 H7          2.3564    5.2656    0.2768 H         1 <0>         0.3616
     23 H8          4.1271    2.1245    1.0025 H         1 <0>         0.1043
     24 H9          4.3780    1.6846   -0.7210 H         1 <0>         0.0976
@<TRIPOS>BOND
     1    1    6 ar
     2    1    2 ar
     3    1   17 1
     4    2    3 ar
     5    2   18 1
     6    3   12 1
     7    3    4 ar
     8    4    5 ar
     9    4    8 1
    10    5    6 ar
    11    5   19 1
    12    6    7 1
    13    8    9 1
    14    8   20 1
    15    8   21 1
    16    9   10 1
    17    9   22 1
    18   10   11 1
    19   10   12 1
    20   10   13 1
    21   12   23 1
    22   12   24 1
    23   13   14 1
    24   13   15 1
    25   13   16 1
@<TRIPOS>MOLECULE
ZINC26985028
   24    25     0     0     0
SMALL
USER_CHARGES
(3S)-7-bromo-3-(trifluoromethyl)-1,2,3,4-tetrahydroisoquinoline
@<TRIPOS>ATOM
      1 C1         -2.0810    5.7258    3.9462 C.ar      1 <0>        -0.0872
      2 C2         -1.6393    5.2301    2.7358 C.ar      1 <0>        -0.1054
      3 C3         -1.2256    3.9112    2.6275 C.ar      1 <0>        -0.0640
      4 C4         -1.2578    3.0885    3.7336 C.ar      1 <0>        -0.1143
      5 C5         -1.7001    3.5876    4.9494 C.ar      1 <0>        -0.0799
      6 C6         -2.1108    4.9022    5.0570 C.ar      1 <0>        -0.0885
      7 Br1        -2.7117    5.5744    6.7192 Br        1 <0>        -0.0437
      8 C7         -0.8243    1.6476    3.6651 C.3       1 <0>         0.0910
      9 N1         -0.0187    1.4104    2.4631 N.3       1 <0>        -0.6526
     10 C8         -0.7330    1.8882    1.2685 C.3       1 <0>         0.0317
     11 H1         -1.7560    1.4854    1.3026 H         1 <0>         0.1290
     12 C9         -0.7473    3.4170    1.2855 C.3       1 <0>        -0.1181
     13 C10        -0.0169    1.3948    0.0097 C.3       1 <0>         0.4649
     14 F1          0.0021   -0.0041    0.0020 F         1 <0>        -0.1710
     15 F2          1.2956    1.8790   -0.0002 F         1 <0>        -0.1810
     16 F3         -0.6935    1.8582   -1.1237 F         1 <0>        -0.1808
     17 H2         -2.4027    6.7537    4.0255 H         1 <0>         0.1365
     18 H3         -1.6166    5.8729    1.8682 H         1 <0>         0.1352
     19 H4         -1.7240    2.9449    5.8170 H         1 <0>         0.1367
     20 H5         -0.2223    1.4032    4.5527 H         1 <0>         0.1047
     21 H6         -1.7120    0.9987    3.6341 H         1 <0>         0.0983
     22 H7          0.9367    1.9486    2.5500 H         1 <0>         0.3575
     23 H8         -1.4231    3.7822    0.4982 H         1 <0>         0.1015
     24 H9          0.2699    3.7913    1.0982 H         1 <0>         0.0996
@<TRIPOS>BOND
     1    1    6 ar
     2    1    2 ar
     3    1   17 1
     4    2    3 ar
     5    2   18 1
     6    3   12 1
     7    3    4 ar
     8    4    5 ar
     9    4    8 1
    10    5    6 ar
    11    5   19 1
    12    6    7 1
    13    8    9 1
    14    8   20 1
    15    8   21 1
    16    9   10 1
    17    9   22 1
    18   10   11 1
    19   10   12 1
    20   10   13 1
    21   12   23 1
    22   12   24 1
    23   13   14 1
    24   13   15 1
    25   13   16 1
@<TRIPOS>MOLECULE
ZINC13516868
   25    26     0     0     0
SMALL
USER_CHARGES

@<TRIPOS>ATOM
      1 C1         -0.0167    1.3792    0.0096 C.ar      1 <0>        -0.0818
      2 C2          1.1708    2.0872    0.0021 C.ar      1 <0>        -0.1172
      3 C3          2.3794    1.4152   -0.0127 C.ar      1 <0>        -0.0857
      4 C4          2.3928    0.0315   -0.0197 C.ar      1 <0>        -0.1627
      5 C5          1.2136   -0.6697   -0.0123 C.ar      1 <0>        -0.0654
      6 C6          0.0021   -0.0041    0.0020 C.ar      1 <0>        -0.1117
      7 C7          1.2423   -2.1846   -0.0199 C.3       1 <0>        -0.0989
      8 C8          1.7668   -2.6420   -1.3857 C.3       1 <0>        -0.1379
      9 C9          3.2804   -2.6391   -1.4083 C.3       1 <0>        -0.0154
     10 N1          3.8936   -1.3219   -1.3557 N.4       1 <0>        -0.5000
     11 C10         3.7173   -0.7034   -0.0347 C.3       1 <0>         0.0458
     12 H1         -0.9592    1.9062    0.0260 H         1 <0>         0.1365
     13 H2          1.1545    3.1671    0.0074 H         1 <0>         0.1363
     14 H3          3.3076    1.9673   -0.0190 H         1 <0>         0.1347
     15 H4         -0.9237   -0.5603    0.0076 H         1 <0>         0.1363
     16 H5          1.9038   -2.5445    0.7681 H         1 <0>         0.0873
     17 H6          0.2360   -2.5729    0.1371 H         1 <0>         0.0979
     18 H7          1.4070   -3.6506   -1.5888 H         1 <0>         0.1168
     19 H8          1.3952   -1.9673   -2.1570 H         1 <0>         0.0884
     20 H9          3.6378   -3.2187   -0.5572 H         1 <0>         0.1275
     21 H10         3.6114   -3.1359   -2.3203 H         1 <0>         0.1314
     22 H11         4.8798   -1.4085   -1.5508 H         1 <0>         0.4331
     23 H12         4.5285    0.0005    0.1514 H         1 <0>         0.1398
     24 H13         3.7159   -1.4760    0.7341 H         1 <0>         0.1368
     25 H14         3.4699   -0.7319   -2.0560 H         1 <0>         0.4281
@<TRIPOS>BOND
     1    1    6 ar
     2    1    2 ar
     3    1   12 1
     4    2    3 ar
     5    2   13 1
     6    3    4 ar
     7    3   14 1
     8    4   11 1
     9    4    5 ar
    10    5    6 ar
    11    5    7 1
    12    6   15 1
    13    7    8 1
    14    7   16 1
    15    7   17 1
    16    8    9 1
    17    8   18 1
    18    8   19 1
    19    9   10 1
    20    9   20 1
    21    9   21 1
    22   10   11 1
    23   10   22 1
    24   10   25 1
    25   11   23 1
    26   11   24 1
@<TRIPOS>MOLECULE
ZINC03847413
   24    25     0     0     0
SMALL
USER_CHARGES
1,2,3,4-tetrahydroisoquinoline-6,7-diol
@<TRIPOS>ATOM
      1 C1          0.2044    5.1161   -0.5829 C.ar      1 <0>        -0.1199
      2 C2          0.1902    3.7310   -0.5069 C.ar      1 <0>        -0.0833
      3 C3          1.3171    3.0521   -0.0950 C.ar      1 <0>        -0.1303
      4 C4          2.4622    3.7580    0.2467 C.ar      1 <0>        -0.1077
      5 C5          2.4812    5.1390    0.1743 C.ar      1 <0>         0.0984
      6 C6          1.3439    5.8237   -0.2446 C.ar      1 <0>         0.1126
      7 O1          1.3530    7.1814   -0.3211 O.3       1 <0>        -0.4816
      8 O2          3.6061    5.8251    0.5108 O.3       1 <0>        -0.4809
      9 C7          1.3499    1.5488   -0.0025 C.3       1 <0>         0.0519
     10 C8         -0.7777    1.5282   -1.1347 C.3       1 <0>        -0.0003
     11 C9         -1.0772    3.0058   -0.8815 C.3       1 <0>        -0.1069
     12 H1         -0.6793    5.6450   -0.9078 H         1 <0>         0.1461
     13 H2          3.3440    3.2254    0.5711 H         1 <0>         0.1461
     14 H3          1.0767    7.6232    0.4935 H         1 <0>         0.4008
     15 H4          3.6521    6.0713    1.4448 H         1 <0>         0.3994
     16 H5          1.8610    1.2560    0.9146 H         1 <0>         0.1426
     17 H6          1.8912    1.1475   -0.8592 H         1 <0>         0.1413
     18 H7         -0.1910    1.4247   -2.0475 H         1 <0>         0.1345
     19 H8         -1.7126    0.9764   -1.2324 H         1 <0>         0.1417
     20 H9         -1.7986    3.0948   -0.0693 H         1 <0>         0.1062
     21 H10        -1.4950    3.4503   -1.7849 H         1 <0>         0.1248
     22 N1         -0.0135    1.0013    0.0113 N.4       1 <0>        -0.5133
     23 H11        -0.4802    1.2719    0.8850 H         1 <0>         0.4360
     24 H12         0.0301   -0.0226   -0.0504 H         1 <0>         0.4417
@<TRIPOS>BOND
     1    1    6 ar
     2    1    2 ar
     3    1   12 1
     4    2   11 1
     5    2    3 ar
     6    3    4 ar
     7    3    9 1
     8    4    5 ar
     9    4   13 1
    10    5    6 ar
    11    5    8 1
    12    6    7 1
    13    7   14 1
    14    8   15 1
    15    9   16 1
    16    9   17 1
    17    9   22 1
    18   10   11 1
    19   10   18 1
    20   10   19 1
    21   10   22 1
    22   11   20 1
    23   11   21 1
    24   22   23 1
    25   22   24 1
@<TRIPOS>MOLECULE
ZINC03870795
   34    34     0     0     0
SMALL
USER_CHARGES

@<TRIPOS>ATOM
      1 C1         -0.0187    1.5256    0.0104 C.3       1 <0>        -0.1258
      2 C2          1.4163    2.0561   -0.0004 C.3       1 <0>        -0.1239
      3 C3          2.2446    1.2650   -1.0151 C.3       1 <0>        -0.1433
      4 C4          1.8925    1.7261   -2.4309 C.3       1 <0>        -0.1060
      5 C5          0.5389    1.1392   -2.8362 C.3       1 <0>        -0.1239
      6 C6          0.4780   -0.3339   -2.4279 C.3       1 <0>        -0.1317
      7 C7         -0.5658   -0.5146   -1.3239 C.3       1 <0>        -0.1210
      8 C8          0.0021   -0.0041    0.0020 C.3       1 <0>        -0.1342
      9 C9          0.3660    1.2558   -4.3519 C.3       1 <0>         0.0846
     10 H1          1.1643    0.7073   -4.8519 H         1 <0>         0.1230
     11 C10        -0.9876    0.6689   -4.7574 C.3       1 <0>        -0.0522
     12 N1         -1.1034    0.6713   -6.2218 N.4       1 <0>        -0.6336
     13 O1          0.4221    2.6318   -4.7334 O.3       1 <0>        -0.5522
     14 H2         -0.5291    1.8770    0.9072 H         1 <0>         0.0625
     15 H3         -0.5460    1.8866   -0.8726 H         1 <0>         0.0633
     16 H4          1.4119    3.1102   -0.2778 H         1 <0>         0.0631
     17 H5          1.8529    1.9433    0.9919 H         1 <0>         0.0648
     18 H6          3.3052    1.4360   -0.8305 H         1 <0>         0.0657
     19 H7          2.0248    0.2022   -0.9138 H         1 <0>         0.0867
     20 H8          1.8387    2.8145   -2.4558 H         1 <0>         0.0707
     21 H9          2.6595    1.3841   -3.1257 H         1 <0>         0.0644
     22 H10        -0.2593    1.6880   -2.3364 H         1 <0>         0.0972
     23 H11         0.2020   -0.9391   -3.2914 H         1 <0>         0.0579
     24 H12         1.4543   -0.6496   -2.0601 H         1 <0>         0.0883
     25 H13        -1.4633    0.0500   -1.5763 H         1 <0>         0.0611
     26 H14        -0.8156   -1.5714   -1.2294 H         1 <0>         0.0671
     27 H15         1.0279   -0.3542    0.1167 H         1 <0>         0.0770
     28 H16        -0.6044   -0.3802    0.8259 H         1 <0>         0.0642
     29 H17        -1.0654   -0.3538   -4.3884 H         1 <0>         0.1469
     30 H18        -1.7881    1.2717   -4.3286 H         1 <0>         0.1373
     31 H19        -1.9960    0.2842   -6.4892 H         1 <0>         0.4380
     32 H20        -1.0314    1.6179   -6.5634 H         1 <0>         0.4386
     33 H21        -0.2610    3.1812   -4.3252 H         1 <0>         0.3892
     34 H22        -0.3624    0.1132   -6.6187 H         1 <0>         0.4359
@<TRIPOS>BOND
     1    1    8 1
     2    1    2 1
     3    1   14 1
     4    1   15 1
     5    2    3 1
     6    2   16 1
     7    2   17 1
     8    3    4 1
     9    3   18 1
    10    3   19 1
    11    4    5 1
    12    4   20 1
    13    4   21 1
    14    5    6 1
    15    5    9 1
    16    5   22 1
    17    6    7 1
    18    6   23 1
    19    6   24 1
    20    7    8 1
    21    7   25 1
    22    7   26 1
    23    8   27 1
    24    8   28 1
    25    9   10 1
    26    9   11 1
    27    9   13 1
    28   11   12 1
    29   11   29 1
    30   11   30 1
    31   12   31 1
    32   12   32 1
    33   12   34 1
    34   13   33 1
@<TRIPOS>MOLECULE
ZINC03870796
   34    34     0     0     0
SMALL
USER_CHARGES

@<TRIPOS>ATOM
      1 C1         -0.0187    1.5257    0.0104 C.3       1 <0>        -0.1237
      2 C2          1.4170    2.0550   -0.0004 C.3       1 <0>        -0.1391
      3 C3          2.0034    1.9105   -1.4063 C.3       1 <0>        -0.1202
      4 C4          2.3703    0.4465   -1.6575 C.3       1 <0>        -0.1217
      5 C5          3.0768   -0.1217   -0.4253 C.3       1 <0>        -0.1228
      6 C6          2.1914   -1.1869    0.2248 C.3       1 <0>        -0.1211
      7 C7          1.0555   -0.5062    0.9912 C.3       1 <0>        -0.1293
      8 C8          0.0021   -0.0041    0.0020 C.3       1 <0>        -0.1311
      9 C9          4.4068   -0.7509   -0.8449 C.3       1 <0>         0.0833
     10 H1          4.2201   -1.5530   -1.5589 H         1 <0>         0.1242
     11 C10         5.1135   -1.3192    0.3873 C.3       1 <0>        -0.0520
     12 N1          6.3905   -1.9232   -0.0156 N.4       1 <0>        -0.6332
     13 O1          5.2339    0.2440   -1.4518 O.3       1 <0>        -0.5518
     14 H2         -0.5288    1.8773    0.9073 H         1 <0>         0.0624
     15 H3         -0.5458    1.8868   -0.8727 H         1 <0>         0.0653
     16 H4          1.4189    3.1062    0.2877 H         1 <0>         0.0617
     17 H5          2.0201    1.4838    0.7053 H         1 <0>         0.0776
     18 H6          1.2664    2.2318   -2.1422 H         1 <0>         0.0682
     19 H7          2.8968    2.5289   -1.4927 H         1 <0>         0.0607
     20 H8          1.4640   -0.1266   -1.8531 H         1 <0>         0.0799
     21 H9          3.0343    0.3812   -2.5193 H         1 <0>         0.0719
     22 H10         3.2636    0.6805    0.2886 H         1 <0>         0.0960
     23 H11         1.7731   -1.8325   -0.5474 H         1 <0>         0.0745
     24 H12         2.7881   -1.7843    0.9141 H         1 <0>         0.0586
     25 H13         0.5994   -1.2214    1.6758 H         1 <0>         0.0655
     26 H14         1.4529    0.3361    1.5575 H         1 <0>         0.0753
     27 H15        -0.9782   -0.3822    0.2922 H         1 <0>         0.0630
     28 H16         0.2461   -0.3585   -0.9995 H         1 <0>         0.0723
     29 H17         5.3002   -0.5171    1.1013 H         1 <0>         0.1372
     30 H18         4.4826   -2.0781    0.8502 H         1 <0>         0.1469
     31 H19         6.8565   -2.2981    0.7971 H         1 <0>         0.4380
     32 H20         6.2176   -2.6658   -0.6765 H         1 <0>         0.4362
     33 H21         5.4413    0.9899   -0.8724 H         1 <0>         0.3887
     34 H22         6.9745   -1.2208   -0.4441 H         1 <0>         0.4380
@<TRIPOS>BOND
     1    1    8 1
     2    1    2 1
     3    1   14 1
     4    1   15 1
     5    2    3 1
     6    2   16 1
     7    2   17 1
     8    3    4 1
     9    3   18 1
    10    3   19 1
    11    4    5 1
    12    4   20 1
    13    4   21 1
    14    5    6 1
    15    5    9 1
    16    5   22 1
    17    6    7 1
    18    6   23 1
    19    6   24 1
    20    7    8 1
    21    7   25 1
    22    7   26 1
    23    8   27 1
    24    8   28 1
    25    9   10 1
    26    9   11 1
    27    9   13 1
    28   11   12 1
    29   11   29 1
    30   11   30 1
    31   12   31 1
    32   12   32 1
    33   12   34 1
    34   13   33 1
@<TRIPOS>MOLECULE
ZINC01745892
   24    25     0     0     0
SMALL
USER_CHARGES
1-naphthylmethanamine
@<TRIPOS>ATOM
      1 C1          1.1545    1.7758    0.0006 C.ar      1 <0>        -0.1173
      2 C2          1.1555    3.1696    0.0071 C.ar      1 <0>        -0.0762
      3 C3         -0.0105    3.8711    0.0211 C.ar      1 <0>        -0.1560
      4 C4         -1.2360    3.1831    0.0296 C.ar      1 <0>        -0.0298
      5 C5         -1.2371    1.7657    0.0175 C.ar      1 <0>        -0.0609
      6 C6         -0.0126    1.0758    0.0080 C.ar      1 <0>        -0.0829
      7 C7         -2.4621    1.0777    0.0322 C.ar      1 <0>        -0.0548
      8 C8         -3.6285    1.7794    0.0471 C.ar      1 <0>        -0.1348
      9 C9         -3.6274    3.1727    0.0528 C.ar      1 <0>        -0.0535
     10 C10        -2.4600    3.8727    0.0446 C.ar      1 <0>        -0.1742
     11 C11        -2.4803    5.3796    0.0520 C.3       1 <0>         0.0520
     12 H1          2.0940    1.2432   -0.0109 H         1 <0>         0.1350
     13 H2          2.0958    3.7008    0.0006 H         1 <0>         0.1330
     14 H3          0.0058    4.9510    0.0253 H         1 <0>         0.1204
     15 H4          0.0021   -0.0041    0.0020 H         1 <0>         0.1384
     16 H5         -2.4783   -0.0022    0.0271 H         1 <0>         0.1406
     17 H6         -4.5687    1.2481    0.0542 H         1 <0>         0.1382
     18 H7         -4.5669    3.7052    0.0644 H         1 <0>         0.1347
     19 H8         -3.4474    5.7281    0.4144 H         1 <0>         0.1437
     20 H9         -1.6918    5.7504    0.7069 H         1 <0>         0.1379
     21 H10        -2.9404    5.4974   -1.9512 H         1 <0>         0.4377
     22 H11        -2.2687    6.8877   -1.3333 H         1 <0>         0.4395
     23 N1         -2.2364    5.8697   -1.3160 N.4       1 <0>        -0.6470
     24 H12        -1.3080    5.5587   -1.6254 H         1 <0>         0.4365
@<TRIPOS>BOND
     1    1    6 ar
     2    1    2 ar
     3    1   12 1
     4    2    3 ar
     5    2   13 1
     6    3    4 ar
     7    3   14 1
     8    4   10 ar
     9    4    5 ar
    10    5    6 ar
    11    5    7 ar
    12    6   15 1
    13    7    8 ar
    14    7   16 1
    15    8    9 ar
    16    8   17 1
    17    9   10 ar
    18    9   18 1
    19   10   11 1
    20   11   19 1
    21   11   20 1
    22   11   23 1
    23   21   23 1
    24   22   23 1
    25   23   24 1
@<TRIPOS>MOLECULE
ZINC13766764
   25    26     0     0     0
SMALL
USER_CHARGES
5-(aminomethyl)naphthalen-2-ol
@<TRIPOS>ATOM
      1 C1          3.5824    1.8760   -0.0216 C.ar      1 <0>        -0.1287
      2 C2          2.4350    1.1435   -0.0146 C.ar      1 <0>        -0.0577
      3 C3          1.1918    1.7986    0.0003 C.ar      1 <0>        -0.0429
      4 C4         -0.0126    1.0758    0.0080 C.ar      1 <0>        -0.1177
      5 C5         -1.2022    1.7464    0.0172 C.ar      1 <0>         0.1160
      6 C6         -1.2378    3.1445    0.0308 C.ar      1 <0>        -0.1031
      7 C7         -0.0897    3.8731    0.0238 C.ar      1 <0>        -0.1357
      8 C8          1.1531    3.2158    0.0084 C.ar      1 <0>        -0.0404
      9 C9          2.3584    3.9374    0.0012 C.ar      1 <0>        -0.1689
     10 C10         3.5442    3.2688   -0.0133 C.ar      1 <0>        -0.0558
     11 C11         2.3389    5.4443    0.0100 C.3       1 <0>         0.0511
     12 O1         -2.3667    1.0461    0.0189 O.3       1 <0>        -0.4942
     13 H1          4.5365    1.3701   -0.0335 H         1 <0>         0.1395
     14 H2          2.4799    0.0644   -0.0205 H         1 <0>         0.1417
     15 H3          0.0021   -0.0041    0.0020 H         1 <0>         0.1447
     16 H4         -2.1907    3.6527    0.0427 H         1 <0>         0.1399
     17 H5         -0.1323    4.9522    0.0296 H         1 <0>         0.1257
     18 H6          4.4691    3.8262   -0.0187 H         1 <0>         0.1358
     19 H7          3.2964    5.8222   -0.3483 H         1 <0>         0.1448
     20 H8          1.5408    5.8011   -0.6411 H         1 <0>         0.1385
     21 H9          2.7955    5.5527    2.0145 H         1 <0>         0.4380
     22 H10         2.0873    6.9313    1.4114 H         1 <0>         0.4400
     23 H11        -2.6996    0.8385    0.9027 H         1 <0>         0.4005
     24 N1          2.0819    5.9131    1.3832 N.4       1 <0>        -0.6471
     25 H12         1.1621    5.5743    1.6889 H         1 <0>         0.4362
@<TRIPOS>BOND
     1    1   10 ar
     2    1    2 ar
     3    1   13 1
     4    2    3 ar
     5    2   14 1
     6    3    8 ar
     7    3    4 ar
     8    4    5 ar
     9    4   15 1
    10    5    6 ar
    11    5   12 1
    12    6    7 ar
    13    6   16 1
    14    7    8 ar
    15    7   17 1
    16    8    9 ar
    17    9   10 ar
    18    9   11 1
    19   10   18 1
    20   11   19 1
    21   11   20 1
    22   11   24 1
    23   12   23 1
    24   21   24 1
    25   22   24 1
    26   24   25 1
@<TRIPOS>MOLECULE
ZINC19230109
   20    21     0     0     0
SMALL
USER_CHARGES

@<TRIPOS>ATOM
      1 C1         -0.0166    1.3749    0.0096 C.ar      1 <0>        -0.1507
      2 C2          1.1734    2.0789    0.0020 C.ar      1 <0>        -0.1416
      3 C3          2.3718    1.3959   -0.0189 C.ar      1 <0>        -0.1404
      4 C4          2.3918    0.0077   -0.0285 C.ar      1 <0>        -0.0683
      5 C5          1.2080   -0.6948   -0.0112 C.ar      1 <0>        -0.0565
      6 C6          0.0021   -0.0041    0.0020 C.ar      1 <0>        -0.1384
      7 C7          1.1511   -2.1995    0.0103 C.3       1 <0>        -0.0997
      8 C8          2.4654   -2.8008   -0.4851 C.3       1 <0>         0.1078
      9 N1          3.5680   -2.1086    0.2022 N.2       1 <0>        -0.9306
     10 C9          3.7354   -0.6763   -0.0660 C.3       1 <0>         0.1384
     11 H1         -0.9583    1.9035    0.0259 H         1 <0>         0.1053
     12 H2          1.1647    3.1588    0.0128 H         1 <0>         0.1053
     13 H3          3.3016    1.9453   -0.0281 H         1 <0>         0.1074
     14 H4         -0.9286   -0.5520    0.0067 H         1 <0>         0.1048
     15 H5          0.9645   -2.5367    1.0299 H         1 <0>         0.0535
     16 H6          0.3379   -2.5367   -0.6324 H         1 <0>         0.0266
     17 H7          2.4953   -3.8650   -0.2511 H         1 <0>         0.0223
     18 H8          2.5539   -2.6568   -1.5619 H         1 <0>        -0.0437
     19 H9          4.1837   -0.5415   -1.0504 H         1 <0>        -0.0302
     20 H10         4.3862   -0.2391    0.6912 H         1 <0>         0.0286
@<TRIPOS>BOND
     1    1    6 ar
     2    1    2 ar
     3    1   11 1
     4    2    3 ar
     5    2   12 1
     6    3    4 ar
     7    3   13 1
     8    4   10 1
     9    4    5 ar
    10    5    6 ar
    11    5    7 1
    12    6   14 1
    13    7    8 1
    14    7   15 1
    15    7   16 1
    16    8    9 1
    17    8   17 1
    18    8   18 1
    19    9   10 1
    20   10   19 1
    21   10   20 1
@<TRIPOS>MOLECULE
ZINC27549882
   26    27     0     0     0
SMALL
USER_CHARGES
(2R)-2-aminotetralin-6-ol
@<TRIPOS>ATOM
      1 C1         -1.9149    2.3695    3.6218 C.ar      1 <0>        -0.1568
      2 C2         -2.2055    3.0107    2.4364 C.ar      1 <0>        -0.0662
      3 C3         -1.6040    2.6112    1.2497 C.ar      1 <0>        -0.1421
      4 C4         -0.7071    1.5663    1.2555 C.ar      1 <0>        -0.0396
      5 C5         -0.4136    0.9174    2.4473 C.ar      1 <0>        -0.2171
      6 C6         -1.0140    1.3147    3.6301 C.ar      1 <0>         0.1771
      7 O1         -0.7219    0.6749    4.7929 O.3       1 <0>        -0.5045
      8 C7         -0.0127    1.0858    0.0080 C.3       1 <0>        -0.0817
      9 C8         -0.7407    1.5865   -1.2378 C.3       1 <0>        -0.1401
     10 C9         -0.9412    3.1007   -1.1045 C.3       1 <0>         0.0394
     11 H1          0.0068    3.6124   -0.8820 H         1 <0>         0.1368
     12 C10        -1.9730    3.3550   -0.0074 C.3       1 <0>        -0.0865
     13 N1         -1.4272    3.6495   -2.3775 N.4       1 <0>        -0.6880
     14 H2         -2.3868    2.6868    4.5400 H         1 <0>         0.1361
     15 H3         -2.9072    3.8317    2.4304 H         1 <0>         0.1316
     16 H4          0.2882    0.0965    2.4519 H         1 <0>         0.1311
     17 H5         -0.0071   -0.1612    4.7961 H         1 <0>         0.4423
     18 H6          1.0199    1.4646   -0.0058 H         1 <0>         0.0900
     19 H7          0.0000   -0.0141   -0.0041 H         1 <0>         0.0967
     20 H8         -0.1368    1.3637   -2.1298 H         1 <0>         0.0924
     21 H9         -1.7154    1.0834   -1.3200 H         1 <0>         0.0927
     22 H10        -2.9583    3.0148   -0.3589 H         1 <0>         0.0927
     23 H11        -2.0112    4.4340    0.2028 H         1 <0>         0.0953
     24 H12        -1.5698    4.7357   -2.2779 H         1 <0>         0.4579
     25 H13        -2.3852    3.1763   -2.6388 H         1 <0>         0.4522
     26 H14        -0.6905    3.4474   -3.1690 H         1 <0>         0.4581
@<TRIPOS>BOND
     1    1    6 ar
     2    1    2 ar
     3    1   14 1
     4    2    3 ar
     5    2   15 1
     6    3   12 1
     7    3    4 ar
     8    4    5 ar
     9    4    8 1
    10    5    6 ar
    11    5   16 1
    12    6    7 1
    13    7   17 1
    14    8    9 1
    15    8   18 1
    16    8   19 1
    17    9   10 1
    18    9   20 1
    19    9   21 1
    20   10   11 1
    21   10   12 1
    22   10   13 1
    23   12   22 1
    24   12   23 1
    25   13   24 1
    26   13   25 1
    27   13   26 1
@<TRIPOS>MOLECULE
ZINC27549885
   26    27     0     0     0
SMALL
USER_CHARGES
(2S)-2-aminotetralin-6-ol
@<TRIPOS>ATOM
      1 C1         -1.8824    2.4169    3.6216 C.ar      1 <0>        -0.1568
      2 C2         -2.5870    2.4580    2.4372 C.ar      1 <0>        -0.0662
      3 C3         -2.0017    2.0350    1.2505 C.ar      1 <0>        -0.1420
      4 C4         -0.7071    1.5663    1.2555 C.ar      1 <0>        -0.0396
      5 C5          0.0059    1.5251    2.4464 C.ar      1 <0>        -0.2171
      6 C6         -0.5766    1.9487    3.6290 C.ar      1 <0>         0.1771
      7 O1          0.1270    1.9057    4.7908 O.3       1 <0>        -0.5045
      8 C7         -0.0127    1.0858    0.0080 C.3       1 <0>        -0.0817
      9 C8         -0.7407    1.5865   -1.2378 C.3       1 <0>        -0.1401
     10 C9         -2.2275    1.2371   -1.1018 C.3       1 <0>         0.0394
     11 H1         -2.3696    0.1697   -0.8770 H         1 <0>         0.1368
     12 C10        -2.8297    2.1136   -0.0056 C.3       1 <0>        -0.0865
     13 N1         -2.9146    1.4943   -2.3744 N.4       1 <0>        -0.6879
     14 H2         -2.3453    2.7473    4.5397 H         1 <0>         0.1361
     15 H3         -3.6035    2.8228    2.4319 H         1 <0>         0.1316
     16 H4          1.0223    1.1602    2.4504 H         1 <0>         0.1311
     17 H5          1.1623    1.5339    4.7934 H         1 <0>         0.4423
     18 H6          1.0199    1.4646   -0.0058 H         1 <0>         0.0967
     19 H7          0.0000   -0.0141   -0.0041 H         1 <0>         0.0900
     20 H8         -0.6161    2.6762   -1.3222 H         1 <0>         0.0928
     21 H9         -0.3194    1.0992   -2.1294 H         1 <0>         0.0924
     22 H10        -3.8518    1.7669    0.2067 H         1 <0>         0.0953
     23 H11        -2.8617    3.1548   -0.3591 H         1 <0>         0.0927
     24 H12        -3.9806    1.2426   -2.2729 H         1 <0>         0.4578
     25 H13        -2.4654    0.8756   -3.1652 H         1 <0>         0.4581
     26 H14        -2.8123    2.5574   -2.6380 H         1 <0>         0.4522
@<TRIPOS>BOND
     1    1    6 ar
     2    1    2 ar
     3    1   14 1
     4    2    3 ar
     5    2   15 1
     6    3   12 1
     7    3    4 ar
     8    4    5 ar
     9    4    8 1
    10    5    6 ar
    11    5   16 1
    12    6    7 1
    13    7   17 1
    14    8    9 1
    15    8   18 1
    16    8   19 1
    17    9   10 1
    18    9   20 1
    19    9   21 1
    20   10   11 1
    21   10   12 1
    22   10   13 1
    23   12   22 1
    24   12   23 1
    25   13   24 1
    26   13   25 1
    27   13   26 1
@<TRIPOS>MOLECULE
ZINC05815118
   25    26     0     0     0
SMALL
USER_CHARGES
7-methyl-1,2,3,4-tetrahydroisoquinoline
@<TRIPOS>ATOM
      1 C1         -2.5124    0.9717    0.0181 C.3       1 <0>        -0.1271
      2 C2         -1.2193    1.7456    0.0173 C.ar      1 <0>        -0.0651
      3 C3         -1.2393    3.1280    0.0317 C.ar      1 <0>        -0.0956
      4 C4         -0.0521    3.8320    0.0234 C.ar      1 <0>        -0.1002
      5 C5          1.1609    3.1600    0.0065 C.ar      1 <0>        -0.1001
      6 C6          1.1816    1.7818    0.0003 C.ar      1 <0>        -0.1322
      7 C7         -0.0126    1.0758    0.0080 C.ar      1 <0>        -0.0985
      8 C8          2.4729    1.0064   -0.0109 C.3       1 <0>         0.0507
      9 C9          3.6166    3.0898    0.3900 C.3       1 <0>         0.0003
     10 C10         2.4316    3.9704   -0.0077 C.3       1 <0>        -0.1065
     11 H1         -2.8197    0.7788    1.0460 H         1 <0>         0.0812
     12 H2         -3.2834    1.5519   -0.4888 H         1 <0>         0.0762
     13 H3         -2.3693    0.0246   -0.5022 H         1 <0>         0.0738
     14 H4         -2.1816    3.6557    0.0448 H         1 <0>         0.1364
     15 H5         -0.0678    4.9119    0.0306 H         1 <0>         0.1349
     16 H6          0.0021   -0.0041    0.0020 H         1 <0>         0.1341
     17 H7          2.6706    0.6214    0.9896 H         1 <0>         0.1386
     18 H8          2.3861    0.1722   -0.7071 H         1 <0>         0.1400
     19 H9          3.5398    2.8271    1.4451 H         1 <0>         0.1327
     20 H10         4.5482    3.6264    0.2101 H         1 <0>         0.1395
     21 H11         2.3418    4.7965    0.6977 H         1 <0>         0.1216
     22 H12         2.5962    4.3678   -1.0092 H         1 <0>         0.1028
     23 N1          3.5882    1.8654   -0.4316 N.4       1 <0>        -0.5133
     24 H13         3.4677    2.1206   -1.4188 H         1 <0>         0.4357
     25 H14         4.4725    1.3567   -0.3151 H         1 <0>         0.4401
@<TRIPOS>BOND
     1    1    2 1
     2    1   11 1
     3    1   12 1
     4    1   13 1
     5    2    7 ar
     6    2    3 ar
     7    3    4 ar
     8    3   14 1
     9    4    5 ar
    10    4   15 1
    11    5   10 1
    12    5    6 ar
    13    6    7 ar
    14    6    8 1
    15    7   16 1
    16    8   17 1
    17    8   18 1
    18    8   23 1
    19    9   10 1
    20    9   19 1
    21    9   20 1
    22    9   23 1
    23   10   21 1
    24   10   22 1
    25   23   24 1
    26   23   25 1
@<TRIPOS>MOLECULE
ZINC20397736
   26    27     0     0     0
SMALL
USER_CHARGES

@<TRIPOS>ATOM
      1 C1         -0.0167    1.3780    0.0096 C.ar      1 <0>        -0.0228
      2 C2          1.1717    2.0810    0.0020 C.ar      1 <0>        -0.1409
      3 C3          2.3836    1.4079   -0.0116 C.ar      1 <0>        -0.0094
      4 C4          2.4030    0.0292   -0.0155 C.ar      1 <0>        -0.1018
      5 C5          1.2084   -0.6753   -0.0110 C.ar      1 <0>        -0.0109
      6 C6          0.0021   -0.0041    0.0020 C.ar      1 <0>        -0.6789
      7 S1         -1.5107   -0.9074    0.0084 S.o2      1 <0>         2.7033
      8 O1         -1.2169   -2.1878    0.5502 O.2       1 <0>        -0.9632
      9 O2         -2.4937   -0.0494    0.5712 O.2       1 <0>        -0.9605
     10 N1         -1.9429   -1.1499   -1.5717 N.pl3     1 <0>        -1.2478
     11 C7          3.6936   -0.7473   -0.0180 C.3       1 <0>         0.0930
     12 N2          4.8084    0.1107   -0.4315 N.3       1 <0>        -0.6857
     13 C8          4.8375    1.3366    0.3820 C.3       1 <0>         0.0504
     14 C9          3.6552    2.2168   -0.0245 C.3       1 <0>        -0.0881
     15 H1         -0.9583    1.9066    0.0260 H         1 <0>         0.1438
     16 H2          1.1571    3.1609    0.0064 H         1 <0>         0.1350
     17 H3          1.2219   -1.7552   -0.0177 H         1 <0>         0.1426
     18 H4         -2.4492   -1.9390   -1.8205 H         1 <0>         0.4221
     19 H5         -1.6897   -0.5028   -2.2486 H         1 <0>         0.4175
     20 H6          3.8859   -1.1287    0.9848 H         1 <0>         0.0510
     21 H7          3.6082   -1.5848   -0.7105 H         1 <0>         0.0936
     22 H8          5.6862   -0.3834   -0.3723 H         1 <0>         0.3521
     23 H9          4.7554    1.0776    1.4376 H         1 <0>         0.0400
     24 H10         5.7704    1.8717    0.2047 H         1 <0>         0.0856
     25 H11         3.8241    2.6095   -1.0272 H         1 <0>         0.0937
     26 H12         3.5636    3.0463    0.6767 H         1 <0>         0.0864
@<TRIPOS>BOND
     1    1    6 ar
     2    1    2 ar
     3    1   15 1
     4    2    3 ar
     5    2   16 1
     6    3   14 1
     7    3    4 ar
     8    4    5 ar
     9    4   11 1
    10    5    6 ar
    11    5   17 1
    12    6    7 1
    13    7    8 2
    14    7    9 2
    15    7   10 1
    16   10   18 1
    17   10   19 1
    18   11   12 1
    19   11   20 1
    20   11   21 1
    21   12   13 1
    22   12   22 1
    23   13   14 1
    24   13   23 1
    25   13   24 1
    26   14   25 1
    27   14   26 1
@<TRIPOS>MOLECULE
ZINC13518429
   27    28     0     0     0
SMALL
USER_CHARGES
methyl 1,2,3,4-tetrahydroisoquinoline-7-carboxylate
@<TRIPOS>ATOM
      1 C1         -2.6161    4.1098    0.0368 C.3       1 <0>         0.0327
      2 O1         -1.3161    3.4631    0.0271 O.3       1 <0>        -0.3549
      3 C2         -1.3032    2.1160    0.0197 C.2       1 <0>         0.5094
      4 O2         -2.3493    1.4986    0.0213 O.2       1 <0>        -0.5054
      5 C3         -0.0168    1.3897    0.0097 C.ar      1 <0>        -0.1308
      6 C4          1.1886    2.0948    0.0020 C.ar      1 <0>        -0.0609
      7 C5          2.3811    1.4062   -0.0145 C.ar      1 <0>        -0.1337
      8 C6          2.3946    0.0177   -0.0248 C.ar      1 <0>        -0.0318
      9 C7          1.2072   -0.6856   -0.0150 C.ar      1 <0>        -0.0931
     10 C8          0.0021   -0.0041    0.0020 C.ar      1 <0>        -0.0481
     11 C9          1.1756   -2.1918   -0.0187 C.3       1 <0>         0.0859
     12 N1          2.4699   -2.7316   -0.4467 N.3       1 <0>        -0.6703
     13 C10         3.5556   -2.1482    0.3574 C.3       1 <0>         0.0410
     14 C11         3.7284   -0.6848   -0.0497 C.3       1 <0>        -0.0853
     15 H1         -2.4824    5.2016    0.0421 H         1 <0>         0.1061
     16 H2         -3.1711    3.8039    0.9359 H         1 <0>         0.0657
     17 H3         -3.1796    3.8137   -0.8603 H         1 <0>         0.0660
     18 H4          1.1857    3.1748    0.0085 H         1 <0>         0.1397
     19 H5          3.3138    1.9507   -0.0203 H         1 <0>         0.1332
     20 H6         -0.9271   -0.5546    0.0090 H         1 <0>         0.1382
     21 H7          0.9541   -2.5564    0.9952 H         1 <0>         0.0503
     22 H8          0.3961   -2.5405   -0.7121 H         1 <0>         0.0942
     23 H9          2.4728   -3.8239   -0.3165 H         1 <0>         0.3511
     24 H10         3.2970   -2.2129    1.4246 H         1 <0>         0.0384
     25 H11         4.4877   -2.7020    0.1718 H         1 <0>         0.0854
     26 H12         4.1482   -0.6387   -1.0654 H         1 <0>         0.0920
     27 H13         4.4156   -0.1920    0.6538 H         1 <0>         0.0849
@<TRIPOS>BOND
     1    1    2 1
     2    1   15 1
     3    1   16 1
     4    1   17 1
     5    2    3 1
     6    3    4 2
     7    3    5 1
     8    5   10 ar
     9    5    6 ar
    10    6    7 ar
    11    6   18 1
    12    7    8 ar
    13    7   19 1
    14    8   14 1
    15    8    9 ar
    16    9   10 ar
    17    9   11 1
    18   10   20 1
    19   11   12 1
    20   11   21 1
    21   11   22 1
    22   12   13 1
    23   12   23 1
    24   13   14 1
    25   13   24 1
    26   13   25 1
    27   14   26 1
    28   14   27 1
@<TRIPOS>MOLECULE
ZINC12503940
   21    22     0     0     0
SMALL
USER_CHARGES
7-iodo-1,2,3,4-tetrahydroisoquinoline
@<TRIPOS>ATOM
      1 C1          1.3442    5.8187   -0.2394 C.ar      1 <0>        -0.0851
      2 C2          0.2066    5.1152   -0.5815 C.ar      1 <0>        -0.1161
      3 C3          0.1900    3.7309   -0.5072 C.ar      1 <0>        -0.0509
      4 C4          1.3167    3.0520   -0.0936 C.ar      1 <0>        -0.0770
      5 C5          2.4584    3.7597    0.2508 C.ar      1 <0>        -0.0806
      6 C6          2.4734    5.1389    0.1788 C.ar      1 <0>        -0.1013
      7 I1          4.2034    6.1987    0.7015 I         1 <0>        -0.0420
      8 C7          1.3500    1.5489   -0.0025 C.3       1 <0>         0.0855
      9 N1         -0.0116    1.0048    0.0076 N.3       1 <0>        -0.6699
     10 C8         -0.7779    1.5281   -1.1346 C.3       1 <0>         0.0417
     11 C9         -1.0773    3.0061   -0.8815 C.3       1 <0>        -0.0824
     12 H1          1.3523    6.8971   -0.2986 H         1 <0>         0.1300
     13 H2         -0.6754    5.6461   -0.9080 H         1 <0>         0.1314
     14 H3          3.3410    3.2294    0.5768 H         1 <0>         0.1290
     15 H4          1.8914    1.1410   -0.8688 H         1 <0>         0.0496
     16 H5          1.8615    1.2489    0.9240 H         1 <0>         0.0930
     17 H6          0.0314   -0.0922   -0.0607 H         1 <0>         0.3504
     18 H7         -0.1858    1.4172   -2.0550 H         1 <0>         0.0378
     19 H8         -1.7183    0.9661   -1.2336 H         1 <0>         0.0849
     20 H9         -1.8053    3.0930   -0.0614 H         1 <0>         0.0895
     21 H10        -1.4987    3.4519   -1.7946 H         1 <0>         0.0826
@<TRIPOS>BOND
     1    1    6 ar
     2    1    2 ar
     3    1   12 1
     4    2    3 ar
     5    2   13 1
     6    3   11 1
     7    3    4 ar
     8    4    5 ar
     9    4    8 1
    10    5    6 ar
    11    5   14 1
    12    6    7 1
    13    8    9 1
    14    8   15 1
    15    8   16 1
    16    9   10 1
    17    9   17 1
    18   10   11 1
    19   10   18 1
    20   10   19 1
    21   11   20 1
    22   11   21 1
@<TRIPOS>MOLECULE
ZINC13782656
   26    27     0     0     0
SMALL
USER_CHARGES
1-(1,2,3,4-tetrahydroisoquinolin-7-yl)ethanone
@<TRIPOS>ATOM
      1 C1         -0.0127    1.0858    0.0080 C.3       1 <0>        -0.2053
      2 C2         -0.7181    1.5718    1.2479 C.2       1 <0>         0.3959
      3 O1         -1.7143    2.2560    1.1498 O.2       1 <0>        -0.4599
      4 C3         -0.1978    1.2160    2.5777 C.ar      1 <0>        -0.1760
      5 C4          0.9477    0.4222    2.6970 C.ar      1 <0>        -0.0736
      6 C5          1.4256    0.0997    3.9470 C.ar      1 <0>        -0.1339
      7 C6          0.7741    0.5459    5.0897 C.ar      1 <0>        -0.0365
      8 C7         -0.3589    1.3272    4.9806 C.ar      1 <0>        -0.0938
      9 C8         -0.8471    1.6634    3.7299 C.ar      1 <0>        -0.0553
     10 C9         -1.0919    1.8378    6.1937 C.3       1 <0>         0.0851
     11 N1         -0.7077    1.0744    7.3850 N.3       1 <0>        -0.6703
     12 C10         0.7572    1.0523    7.5246 C.3       1 <0>         0.0413
     13 C11         1.3350    0.1519    6.4327 C.3       1 <0>        -0.0846
     14 H1          0.8626    0.4849    0.2958 H         1 <0>         0.0844
     15 H2          0.3156    1.9492   -0.5893 H         1 <0>         0.0966
     16 H3         -0.7014    0.4686   -0.5875 H         1 <0>         0.0969
     17 H4          1.4570    0.0676    1.8131 H         1 <0>         0.1360
     18 H5          2.3127   -0.5092    4.0401 H         1 <0>         0.1301
     19 H6         -1.7340    2.2738    3.6449 H         1 <0>         0.1334
     20 H7         -0.8436    2.8975    6.3530 H         1 <0>         0.0490
     21 H8         -2.1759    1.7347    6.0375 H         1 <0>         0.0930
     22 H9         -1.1472    1.5427    8.2781 H         1 <0>         0.3504
     23 H10         1.1513    2.0736    7.4165 H         1 <0>         0.0378
     24 H11         1.0252    0.6590    8.5163 H         1 <0>         0.0849
     25 H12         1.0703   -0.8938    6.6481 H         1 <0>         0.0906
     26 H13         2.4298    0.2575    6.4181 H         1 <0>         0.0836
@<TRIPOS>BOND
     1    1    2 1
     2    1   14 1
     3    1   15 1
     4    1   16 1
     5    2    3 2
     6    2    4 1
     7    4    9 ar
     8    4    5 ar
     9    5    6 ar
    10    5   17 1
    11    6    7 ar
    12    6   18 1
    13    7   13 1
    14    7    8 ar
    15    8    9 ar
    16    8   10 1
    17    9   19 1
    18   10   11 1
    19   10   20 1
    20   10   21 1
    21   11   12 1
    22   11   22 1
    23   12   13 1
    24   12   23 1
    25   12   24 1
    26   13   25 1
    27   13   26 1
@<TRIPOS>MOLECULE
ZINC12647762
   22    23     0     0     0
SMALL
USER_CHARGES
1,2,3,4-tetrahydroisoquinoline-7-carbonitrile
@<TRIPOS>ATOM
      1 C1         -1.2421    3.1498    0.0323 C.ar      1 <0>        -0.0694
      2 C2         -0.0505    3.8412    0.0244 C.ar      1 <0>        -0.1205
      3 C3          1.1597    3.1617    0.0070 C.ar      1 <0>        -0.0388
      4 C4          1.1783    1.7814    0.0004 C.ar      1 <0>        -0.0822
      5 C5         -0.0126    1.0758    0.0080 C.ar      1 <0>        -0.0651
      6 C6         -1.2311    1.7537    0.0174 C.ar      1 <0>        -0.0311
      7 C7         -2.4626    1.0230    0.0179 C.1       1 <0>         0.2524
      8 N1         -3.4396    0.4433    0.0183 N.1       1 <0>        -0.4138
      9 C8          2.4687    1.0041   -0.0116 C.3       1 <0>         0.0843
     10 N2          3.5816    1.8628   -0.4285 N.3       1 <0>        -0.6706
     11 C9          3.6158    3.0850    0.3905 C.3       1 <0>         0.0408
     12 C10         2.4333    3.9687   -0.0070 C.3       1 <0>        -0.0849
     13 H1         -2.1800    3.6850    0.0452 H         1 <0>         0.1343
     14 H2         -0.0582    4.9211    0.0322 H         1 <0>         0.1347
     15 H3          0.0021   -0.0041    0.0020 H         1 <0>         0.1333
     16 H4          2.6738    0.6184    0.9979 H         1 <0>         0.0510
     17 H5          2.3835    0.1629   -0.7152 H         1 <0>         0.0943
     18 H6          4.5301    1.3198   -0.3043 H         1 <0>         0.3512
     19 H7          3.5421    2.8156    1.4544 H         1 <0>         0.0387
     20 H8          4.5605    3.6196    0.2122 H         1 <0>         0.0851
     21 H9          2.6033    4.3680   -1.0178 H         1 <0>         0.0917
     22 H10         2.3476    4.8015    0.7065 H         1 <0>         0.0847
@<TRIPOS>BOND
     1    1    6 ar
     2    1    2 ar
     3    1   13 1
     4    2    3 ar
     5    2   14 1
     6    3   12 1
     7    3    4 ar
     8    4    5 ar
     9    4    9 1
    10    5    6 ar
    11    5   15 1
    12    6    7 1
    13    7    8 3
    14    9   10 1
    15    9   16 1
    16    9   17 1
    17   10   11 1
    18   10   18 1
    19   11   12 1
    20   11   19 1
    21   11   20 1
    22   12   21 1
    23   12   22 1
@<TRIPOS>MOLECULE
ZINC13518462
   24    25     0     0     0
SMALL
USER_CHARGES
7-(trifluoromethyl)-1,2,3,4-tetrahydroisoquinoline
@<TRIPOS>ATOM
      1 C1         -1.2397    3.1278    0.0311 C.ar      1 <0>        -0.0703
      2 C2         -0.0521    3.8320    0.0234 C.ar      1 <0>        -0.1209
      3 C3          1.1605    3.1602    0.0065 C.ar      1 <0>        -0.0371
      4 C4          1.1812    1.7816    0.0003 C.ar      1 <0>        -0.0825
      5 C5         -0.0126    1.0758    0.0080 C.ar      1 <0>        -0.0653
      6 C6         -1.2196    1.7458    0.0173 C.ar      1 <0>        -0.1853
      7 C7         -2.5128    0.9719    0.0177 C.3       1 <0>         0.5093
      8 F1         -2.9074    0.7239    1.3367 F         1 <0>        -0.1765
      9 F2         -3.5022    1.7169   -0.6329 F         1 <0>        -0.1762
     10 F3         -2.3290   -0.2434   -0.6505 F         1 <0>        -0.1767
     11 C8          2.4725    1.0062   -0.0109 C.3       1 <0>         0.0848
     12 N1          3.5843    1.8667   -0.4276 N.3       1 <0>        -0.6703
     13 C9          3.6162    3.0898    0.3900 C.3       1 <0>         0.0409
     14 C10         2.4313    3.9705   -0.0077 C.3       1 <0>        -0.0848
     15 H1         -2.1819    3.6555    0.0434 H         1 <0>         0.1372
     16 H2         -0.0678    4.9119    0.0311 H         1 <0>         0.1360
     17 H3          0.0021   -0.0041    0.0020 H         1 <0>         0.1362
     18 H4          2.6777    0.6210    0.9988 H         1 <0>         0.0516
     19 H5          2.3888    0.1647   -0.7143 H         1 <0>         0.0951
     20 H6          4.5337    1.3255   -0.3021 H         1 <0>         0.3520
     21 H7          3.5438    2.8214    1.4543 H         1 <0>         0.0388
     22 H8          4.5596    3.6263    0.2105 H         1 <0>         0.0863
     23 H9          2.6001    4.3701   -1.0186 H         1 <0>         0.0924
     24 H10         2.3433    4.8032    0.7057 H         1 <0>         0.0854
@<TRIPOS>BOND
     1    1    6 ar
     2    1    2 ar
     3    1   15 1
     4    2    3 ar
     5    2   16 1
     6    3   14 1
     7    3    4 ar
     8    4    5 ar
     9    4   11 1
    10    5    6 ar
    11    5   17 1
    12    6    7 1
    13    7    8 1
    14    7    9 1
    15    7   10 1
    16   11   12 1
    17   11   18 1
    18   11   19 1
    19   12   13 1
    20   12   20 1
    21   13   14 1
    22   13   21 1
    23   13   22 1
    24   14   23 1
    25   14   24 1
@<TRIPOS>MOLECULE
ZINC03847389
   23    24     0     0     0
SMALL
USER_CHARGES
1,2,3,4-tetrahydroisoquinolin-7-ol
@<TRIPOS>ATOM
      1 C1         -1.2404    3.1356    0.0320 C.ar      1 <0>        -0.1212
      2 C2         -0.0512    3.8352    0.0245 C.ar      1 <0>        -0.0864
      3 C3          1.1604    3.1607    0.0071 C.ar      1 <0>        -0.1034
      4 C4          1.1803    1.7816    0.0004 C.ar      1 <0>        -0.1185
      5 C5         -0.0126    1.0758    0.0080 C.ar      1 <0>        -0.1253
      6 C6         -1.2237    1.7486    0.0174 C.ar      1 <0>         0.1276
      7 O1         -2.3908    1.0524    0.0178 O.3       1 <0>        -0.4931
      8 C7          2.4712    1.0054   -0.0115 C.3       1 <0>         0.0503
      9 C8          3.6163    3.0878    0.3902 C.3       1 <0>        -0.0002
     10 C9          2.4322    3.9697   -0.0070 C.3       1 <0>        -0.1064
     11 H1         -2.1811    3.6661    0.0447 H         1 <0>         0.1435
     12 H2         -0.0639    4.9151    0.0326 H         1 <0>         0.1401
     13 H3          0.0021   -0.0041    0.0020 H         1 <0>         0.1412
     14 H4         -2.7249    0.8451    0.9012 H         1 <0>         0.4035
     15 H5          2.6691    0.6210    0.9891 H         1 <0>         0.1405
     16 H6          2.3826    0.1705   -0.7066 H         1 <0>         0.1421
     17 H7          3.5392    2.8245    1.4450 H         1 <0>         0.1334
     18 H8          4.5484    3.6237    0.2107 H         1 <0>         0.1405
     19 H9          2.3434    4.7957    0.6987 H         1 <0>         0.1231
     20 H10         2.5970    4.3674   -1.0084 H         1 <0>         0.1045
     21 N1          3.5869    1.8641   -0.4323 N.4       1 <0>        -0.5134
     22 H11         3.4660    2.1201   -1.4192 H         1 <0>         0.4364
     23 H12         4.4709    1.3548   -0.3166 H         1 <0>         0.4411
@<TRIPOS>BOND
     1    1    6 ar
     2    1    2 ar
     3    1   11 1
     4    2    3 ar
     5    2   12 1
     6    3   10 1
     7    3    4 ar
     8    4    5 ar
     9    4    8 1
    10    5    6 ar
    11    5   13 1
    12    6    7 1
    13    7   14 1
    14    8   15 1
    15    8   16 1
    16    8   21 1
    17    9   10 1
    18    9   17 1
    19    9   18 1
    20    9   21 1
    21   10   19 1
    22   10   20 1
    23   21   22 1
    24   21   23 1
@<TRIPOS>MOLECULE
ZINC05189121
   23    23     0     0     0
SMALL
USER_CHARGES
cycloheptanecarbaldehyde
@<TRIPOS>ATOM
      1 C1          1.5979   -0.1306   -1.9074 C.3       1 <0>        -0.1219
      2 C2          0.2308   -0.5485   -1.3282 C.3       1 <0>        -0.1203
      3 C3          0.0021   -0.0041    0.0020 C.3       1 <0>        -0.1184
      4 C4         -0.0188    1.5382    0.0105 C.3       1 <0>        -0.1087
      5 C5          1.4013    2.0355   -0.0004 C.3       1 <0>        -0.1471
      6 C6          1.9101    2.3352   -1.4234 C.3       1 <0>        -0.1095
      7 C7          1.4803    1.2685   -2.4486 C.3       1 <0>        -0.1170
      8 C8          1.4829    3.2956    0.8221 C.2       1 <0>         0.3454
      9 O1          2.2060    3.3402    1.7883 O.2       1 <0>        -0.4597
     10 H1          2.3522   -0.1568   -1.1209 H         1 <0>         0.0651
     11 H2          1.8788   -0.8116   -2.7108 H         1 <0>         0.0641
     12 H3          0.1869   -1.6364   -1.2767 H         1 <0>         0.0601
     13 H4         -0.5561   -0.1950   -1.9944 H         1 <0>         0.0618
     14 H5          0.7943   -0.3500    0.6660 H         1 <0>         0.0615
     15 H6         -0.9546   -0.3721    0.3728 H         1 <0>         0.0635
     16 H7         -0.5411    1.9022   -0.8743 H         1 <0>         0.0767
     17 H8         -0.5240    1.8926    0.9090 H         1 <0>         0.0662
     18 H9          2.0010    1.3401    0.3955 H         1 <0>         0.0832
     19 H10         2.9988    2.3858   -1.4041 H         1 <0>         0.0644
     20 H11         1.5194    3.3029   -1.7382 H         1 <0>         0.0670
     21 H12         2.1086    1.3578   -3.3348 H         1 <0>         0.0630
     22 H13         0.4441    1.4505   -2.7335 H         1 <0>         0.0648
     23 H14         0.8948    4.1588    0.5474 H         1 <0>         0.0957
@<TRIPOS>BOND
     1    1    7 1
     2    1    2 1
     3    1   10 1
     4    1   11 1
     5    2    3 1
     6    2   12 1
     7    2   13 1
     8    3    4 1
     9    3   14 1
    10    3   15 1
    11    4    5 1
    12    4   16 1
    13    4   17 1
    14    5    6 1
    15    5    8 1
    16    5   18 1
    17    6    7 1
    18    6   19 1
    19    6   20 1
    20    7   21 1
    21    7   22 1
    22    8    9 2
    23    8   23 1
@<TRIPOS>MOLECULE
ZINC28219877
   31    31     0     0     0
SMALL
USER_CHARGES
(1S)-2-amino-1-cycloheptyl-ethanol
@<TRIPOS>ATOM
      1 C1         -2.9849    0.8228   -0.4093 C.3       1 <0>        -0.1181
      2 C2         -1.9405    0.7979   -1.5441 C.3       1 <0>        -0.1249
      3 C3         -0.7665    1.6006   -1.2353 C.3       1 <0>        -0.1218
      4 C4         -0.0127    1.0858    0.0080 C.3       1 <0>        -0.1131
      5 C5         -0.7247    1.5749    1.2401 C.3       1 <0>        -0.0773
      6 C6         -1.7407    0.5466    1.7788 C.3       1 <0>        -0.1181
      7 C7         -2.5498   -0.1402    0.6620 C.3       1 <0>        -0.1242
      8 C8          0.3118    1.8734    2.3252 C.3       1 <0>         0.0999
      9 H1          1.0588    2.6006    1.9741 H         1 <0>         0.0774
     10 C9         -0.3982    2.3722    3.5853 C.3       1 <0>        -0.0431
     11 N1          0.6015    2.7719    4.5848 N.4       1 <0>        -0.6868
     12 O1          1.0402    0.6820    2.6288 O.3       1 <0>        -0.5732
     13 H2         -3.9683    0.5193   -0.7977 H         1 <0>         0.0676
     14 H3         -3.0546    1.8356    0.0143 H         1 <0>         0.0620
     15 H4         -1.6090   -0.2370   -1.7147 H         1 <0>         0.0646
     16 H5         -2.3908    1.1953   -2.4657 H         1 <0>         0.0644
     17 H6         -0.0716    1.5770   -2.0877 H         1 <0>         0.0657
     18 H7         -1.0731    2.6390   -1.0408 H         1 <0>         0.0590
     19 H8          0.0037   -0.0140   -0.0025 H         1 <0>         0.0742
     20 H9          1.0187    1.4680   -0.0042 H         1 <0>         0.0643
     21 H10        -1.2710    2.4839    0.9480 H         1 <0>         0.0948
     22 H11        -1.2079   -0.2376    2.3366 H         1 <0>         0.0726
     23 H12        -2.4541    1.0513    2.4468 H         1 <0>         0.0568
     24 H13        -3.4359   -0.6028    1.1211 H         1 <0>         0.0640
     25 H14        -1.9170   -0.9222    0.2171 H         1 <0>         0.0661
     26 H15        -1.0298    3.2365    3.3324 H         1 <0>         0.1382
     27 H16        -1.0255    1.5672    3.9957 H         1 <0>         0.1397
     28 H17         0.0911    3.1305    5.4908 H         1 <0>         0.4636
     29 H18         1.2288    3.5769    4.1744 H         1 <0>         0.4561
     30 H19         1.8334    0.7014    3.3907 H         1 <0>         0.3997
     31 H20         1.2331    1.9075    4.8376 H         1 <0>         0.4500
@<TRIPOS>BOND
     1    1    7 1
     2    1    2 1
     3    1   13 1
     4    1   14 1
     5    2    3 1
     6    2   15 1
     7    2   16 1
     8    3    4 1
     9    3   17 1
    10    3   18 1
    11    4    5 1
    12    4   19 1
    13    4   20 1
    14    5    6 1
    15    5    8 1
    16    5   21 1
    17    6    7 1
    18    6   22 1
    19    6   23 1
    20    7   24 1
    21    7   25 1
    22    8    9 1
    23    8   10 1
    24    8   12 1
    25   10   11 1
    26   10   26 1
    27   10   27 1
    28   11   28 1
    29   11   29 1
    30   11   31 1
    31   12   30 1
@<TRIPOS>MOLECULE
ZINC28219882
   31    31     0     0     0
SMALL
USER_CHARGES
(1R)-2-amino-1-cycloheptyl-ethanol
@<TRIPOS>ATOM
      1 C1          0.7250   -0.0782   -2.5353 C.3       1 <0>        -0.1227
      2 C2          1.8540    0.8991   -2.3494 C.3       1 <0>        -0.1234
      3 C3          2.3054    0.8518   -0.8753 C.3       1 <0>        -0.1238
      4 C4          1.4328    1.6237   -0.0029 C.3       1 <0>        -0.1041
      5 C5         -0.0127    1.0858    0.0080 C.3       1 <0>        -0.0781
      6 C6         -0.7190    1.5885   -1.2219 C.3       1 <0>        -0.1144
      7 C7         -0.6582    0.5842   -2.3886 C.3       1 <0>        -0.1223
      8 C8         -0.7367    1.5831    1.2608 C.3       1 <0>         0.0974
      9 H1         -0.1571    1.3642    2.1697 H         1 <0>         0.0785
     10 C9         -2.1306    0.9557    1.3272 C.3       1 <0>        -0.0444
     11 N1         -2.8257    1.4332    2.5300 N.4       1 <0>        -0.6861
     12 O1         -0.8568    3.0061    1.2083 O.3       1 <0>        -0.5723
     13 H2          0.8344   -0.8700   -1.7796 H         1 <0>         0.0608
     14 H3          0.8174   -0.5154   -3.5404 H         1 <0>         0.0651
     15 H4          2.6910    0.6219   -3.0072 H         1 <0>         0.0678
     16 H5          1.5079    1.9118   -2.6035 H         1 <0>         0.0670
     17 H6          2.3013   -0.1905   -0.5239 H         1 <0>         0.0621
     18 H7          3.3218    1.2636   -0.7897 H         1 <0>         0.0674
     19 H8          1.8172    1.5855    1.0270 H         1 <0>         0.0596
     20 H9          1.4037    2.6688   -0.3449 H         1 <0>         0.0718
     21 H10        -0.0236   -0.0141   -0.0006 H         1 <0>         0.0959
     22 H11        -1.7780    1.7717   -0.9874 H         1 <0>         0.0552
     23 H12        -0.2502    2.5256   -1.5568 H         1 <0>         0.0731
     24 H13        -0.9043    1.1278   -3.3127 H         1 <0>         0.0662
     25 H14        -1.4179   -0.1899   -2.2052 H         1 <0>         0.0576
     26 H15        -2.7047    1.2425    0.4338 H         1 <0>         0.1402
     27 H16        -2.0381   -0.1397    1.3677 H         1 <0>         0.1385
     28 H17        -3.8278    0.9821    2.5777 H         1 <0>         0.4642
     29 H18        -2.9182    2.5286    2.4895 H         1 <0>         0.4502
     30 H19        -1.3528    3.5468    2.0278 H         1 <0>         0.3971
     31 H20        -2.2516    1.1465    3.4234 H         1 <0>         0.4561
@<TRIPOS>BOND
     1    1    7 1
     2    1    2 1
     3    1   13 1
     4    1   14 1
     5    2    3 1
     6    2   15 1
     7    2   16 1
     8    3    4 1
     9    3   17 1
    10    3   18 1
    11    4    5 1
    12    4   19 1
    13    4   20 1
    14    5    6 1
    15    5    8 1
    16    5   21 1
    17    6    7 1
    18    6   22 1
    19    6   23 1
    20    7   24 1
    21    7   25 1
    22    8    9 1
    23    8   10 1
    24    8   12 1
    25   10   11 1
    26   10   26 1
    27   10   27 1
    28   11   28 1
    29   11   29 1
    30   11   31 1
    31   12   30 1
@<TRIPOS>MOLECULE
ZINC13686846
   23    24     0     0     0
SMALL
USER_CHARGES
7-nitro-1,2,3,4-tetrahydroisoquinoline
@<TRIPOS>ATOM
      1 C1         -1.2397    3.1278    0.0320 C.ar      1 <0>        -0.0552
      2 C2         -0.0520    3.8320    0.0244 C.ar      1 <0>        -0.1184
      3 C3          1.1605    3.1602    0.0069 C.ar      1 <0>        -0.0173
      4 C4          1.1813    1.7816    0.0003 C.ar      1 <0>        -0.0798
      5 C5         -0.0126    1.0758    0.0080 C.ar      1 <0>        -0.0498
      6 C6         -1.2196    1.7458    0.0173 C.ar      1 <0>        -0.0469
      7 N1         -2.4897    0.9857    0.0178 N.pl3     1 <0>         0.0282
      8 O1         -2.4706   -0.2321    0.0099 O.2       1 <0>        -0.1594
      9 O2         -3.5540    1.5780    0.0261 O.3       1 <0>        -0.1580
     10 C7          2.4725    1.0063   -0.0114 C.3       1 <0>         0.0846
     11 N2          3.5842    1.8668   -0.4281 N.3       1 <0>        -0.6705
     12 C8          3.6163    3.0897    0.3900 C.3       1 <0>         0.0393
     13 C9          2.4313    3.9705   -0.0072 C.3       1 <0>        -0.0882
     14 H1         -2.1819    3.6555    0.0451 H         1 <0>         0.1550
     15 H2         -0.0678    4.9119    0.0324 H         1 <0>         0.1487
     16 H3          0.0021   -0.0041    0.0020 H         1 <0>         0.1540
     17 H4          2.6779    0.6209    0.9982 H         1 <0>         0.0567
     18 H5          2.3887    0.1649   -0.7150 H         1 <0>         0.0998
     19 H6          4.5336    1.3255   -0.3030 H         1 <0>         0.3562
     20 H7          3.5441    2.8209    1.4542 H         1 <0>         0.0409
     21 H8          4.5596    3.6263    0.2105 H         1 <0>         0.0901
     22 H9          2.5999    4.3704   -1.0180 H         1 <0>         0.0988
     23 H10         2.3434    4.8029    0.7065 H         1 <0>         0.0912
@<TRIPOS>BOND
     1    1    6 ar
     2    1    2 ar
     3    1   14 1
     4    2    3 ar
     5    2   15 1
     6    3   13 1
     7    3    4 ar
     8    4    5 ar
     9    4   10 1
    10    5    6 ar
    11    5   16 1
    12    6    7 1
    13    7    8 2
    14    7    9 1
    15   10   11 1
    16   10   17 1
    17   10   18 1
    18   11   12 1
    19   11   19 1
    20   12   13 1
    21   12   20 1
    22   12   21 1
    23   13   22 1
    24   13   23 1
@<TRIPOS>MOLECULE
ZINC19795724
   21    22     0     0     0
SMALL
USER_CHARGES
7-bromo-1,2,3,4-tetrahydroisoquinoline
@<TRIPOS>ATOM
      1 C1          1.3438    5.8190   -0.2391 C.ar      1 <0>        -0.0904
      2 C2          0.2065    5.1152   -0.5815 C.ar      1 <0>        -0.1146
      3 C3          0.1902    3.7309   -0.5077 C.ar      1 <0>        -0.0541
      4 C4          1.3167    3.0520   -0.0936 C.ar      1 <0>        -0.0757
      5 C5          2.4584    3.7596    0.2508 C.ar      1 <0>        -0.0864
      6 C6          2.4733    5.1392    0.1793 C.ar      1 <0>        -0.0926
      7 Br1         4.0346    6.0958    0.6516 Br        1 <0>        -0.0493
      8 C7          1.3500    1.5489   -0.0025 C.3       1 <0>         0.0856
      9 N1         -0.0116    1.0048    0.0076 N.3       1 <0>        -0.6701
     10 C8         -0.7779    1.5281   -1.1346 C.3       1 <0>         0.0416
     11 C9         -1.0771    3.0061   -0.8821 C.3       1 <0>        -0.0821
     12 H1          1.3516    6.8973   -0.2980 H         1 <0>         0.1337
     13 H2         -0.6754    5.6460   -0.9084 H         1 <0>         0.1324
     14 H3          3.3409    3.2293    0.5771 H         1 <0>         0.1327
     15 H4          1.8914    1.1410   -0.8688 H         1 <0>         0.0501
     16 H5          1.8615    1.2489    0.9240 H         1 <0>         0.0936
     17 H6          0.0314   -0.0922   -0.0607 H         1 <0>         0.3506
     18 H7         -0.1860    1.4169   -2.0551 H         1 <0>         0.0379
     19 H8         -1.7184    0.9663   -1.2334 H         1 <0>         0.0850
     20 H9         -1.8053    3.0934   -0.0622 H         1 <0>         0.0895
     21 H10        -1.4982    3.4516   -1.7954 H         1 <0>         0.0827
@<TRIPOS>BOND
     1    1    6 ar
     2    1    2 ar
     3    1   12 1
     4    2    3 ar
     5    2   13 1
     6    3   11 1
     7    3    4 ar
     8    4    5 ar
     9    4    8 1
    10    5    6 ar
    11    5   14 1
    12    6    7 1
    13    8    9 1
    14    8   15 1
    15    8   16 1
    16    9   10 1
    17    9   17 1
    18   10   11 1
    19   10   18 1
    20   10   19 1
    21   11   20 1
    22   11   21 1
@<TRIPOS>MOLECULE
ZINC24714117
   21    22     0     0     0
SMALL
USER_CHARGES
7,8-dichloro-1,2,3,4-tetrahydroisoquinoline
@<TRIPOS>ATOM
      1 C1          1.9782    0.8269   -3.6396 C.ar      1 <0>        -0.1006
      2 C2          1.2840    0.9136   -4.8299 C.ar      1 <0>        -0.0988
      3 C3         -0.0705    1.1931   -4.8175 C.ar      1 <0>        -0.0327
      4 C4         -0.7221    1.3856   -3.6130 C.ar      1 <0>        -0.0276
      5 C5         -0.0238    1.3003   -2.4168 C.ar      1 <0>        -0.0973
      6 C6          1.3258    1.0188   -2.4314 C.ar      1 <0>        -0.0661
      7 C7          2.1249    0.9107   -1.1580 C.3       1 <0>        -0.1206
      8 C8          1.3549    1.5509   -0.0025 C.3       1 <0>         0.0413
      9 N1         -0.0116    1.0048    0.0076 N.3       1 <0>        -0.6595
     10 C9         -0.7747    1.5263   -1.1308 C.3       1 <0>         0.0824
     11 Cl1        -2.4223    1.7359   -3.5974 Cl        1 <0>        -0.0419
     12 Cl2        -0.9503    1.3024   -6.3101 Cl        1 <0>        -0.0457
     13 H1          3.0359    0.6087   -3.6498 H         1 <0>         0.1391
     14 H2          1.7973    0.7640   -5.7682 H         1 <0>         0.1442
     15 H3          2.3072   -0.1495   -0.9284 H         1 <0>         0.0873
     16 H4          3.0868    1.4293   -1.2836 H         1 <0>         0.0890
     17 H5          1.8590    1.3187    0.9472 H         1 <0>         0.0901
     18 H6          1.3223    2.6414   -0.1432 H         1 <0>         0.0778
     19 H7          0.0315   -0.0922   -0.0605 H         1 <0>         0.3460
     20 H8         -0.9393    2.6044   -0.9870 H         1 <0>         0.0954
     21 H9         -1.7450    1.0102   -1.1772 H         1 <0>         0.0980
@<TRIPOS>BOND
     1    1    6 ar
     2    1    2 ar
     3    1   13 1
     4    2    3 ar
     5    2   14 1
     6    3    4 ar
     7    3   12 1
     8    4    5 ar
     9    4   11 1
    10    5   10 1
    11    5    6 ar
    12    6    7 1
    13    7    8 1
    14    7   15 1
    15    7   16 1
    16    8    9 1
    17    8   17 1
    18    8   18 1
    19    9   10 1
    20    9   19 1
    21   10   20 1
    22   10   21 1
@<TRIPOS>MOLECULE
ZINC19928405
   24    25     0     0     0
SMALL
USER_CHARGES

@<TRIPOS>ATOM
      1 C1         -0.0187    1.5258    0.0104 C.3       1 <0>        -0.1499
      2 C2          0.0021   -0.0041    0.0020 C.3       1 <0>         0.0794
      3 H1          0.5118   -0.3584   -0.8939 H         1 <0>         0.0433
      4 C3         -1.4307   -0.5373    0.0227 C.3       1 <0>        -0.0729
      5 C4         -1.4221   -2.0260    0.2578 C.ar      1 <0>        -0.0698
      6 C5         -2.5674   -2.7492   -0.0396 C.ar      1 <0>        -0.1216
      7 C6         -2.6034   -4.1138    0.1651 C.ar      1 <0>        -0.1195
      8 C7         -1.4917   -4.7630    0.6694 C.ar      1 <0>        -0.1227
      9 C8         -0.3507   -4.0445    0.9637 C.ar      1 <0>        -0.1165
     10 C9         -0.3122   -2.6733    0.7567 C.ar      1 <0>        -0.0815
     11 C10         0.9590   -1.9343    1.0831 C.3       1 <0>         0.0966
     12 N1          0.7050   -0.4955    1.1978 N.3       1 <0>        -0.6822
     13 H2          1.0039    1.9031    0.0027 H         1 <0>         0.0566
     14 H3         -0.5459    1.8868   -0.8726 H         1 <0>         0.0644
     15 H4         -0.5289    1.8773    0.9072 H         1 <0>         0.0667
     16 H5         -1.9875   -0.0479    0.8218 H         1 <0>         0.0846
     17 H6         -1.9098   -0.3247   -0.9330 H         1 <0>         0.0771
     18 H7         -3.4359   -2.2420   -0.4331 H         1 <0>         0.1215
     19 H8         -3.4974   -4.6729   -0.0683 H         1 <0>         0.1224
     20 H9         -1.5163   -5.8303    0.8330 H         1 <0>         0.1227
     21 H10         0.5171   -4.5526    1.3577 H         1 <0>         0.1217
     22 H11         1.3600   -2.3063    2.0259 H         1 <0>         0.0885
     23 H12         1.6889   -2.1061    0.2920 H         1 <0>         0.0437
     24 H13         1.5626    0.0143    1.3482 H         1 <0>         0.3475
@<TRIPOS>BOND
     1    1    2 1
     2    1   13 1
     3    1   14 1
     4    1   15 1
     5    2    3 1
     6    2   12 1
     7    2    4 1
     8    4    5 1
     9    4   16 1
    10    4   17 1
    11    5   10 ar
    12    5    6 ar
    13    6    7 ar
    14    6   18 1
    15    7    8 ar
    16    7   19 1
    17    8    9 ar
    18    8   20 1
    19    9   10 ar
    20    9   21 1
    21   10   11 1
    22   11   12 1
    23   11   22 1
    24   11   23 1
    25   12   24 1
@<TRIPOS>MOLECULE
ZINC19928408
   24    25     0     0     0
SMALL
USER_CHARGES
(3S)-3-methyl-1,2,3,4-tetrahydroisoquinoline
@<TRIPOS>ATOM
      1 C1         -4.9857    1.0675    0.2175 C.3       1 <0>        -0.1425
      2 C2         -3.6726    1.8160    0.4550 C.3       1 <0>         0.0721
      3 H1         -3.5861    2.0968    1.5150 H         1 <0>         0.0822
      4 C3         -2.4966    0.9402    0.0218 C.3       1 <0>        -0.1130
      5 C4         -1.2249    1.7491    0.0174 C.ar      1 <0>        -0.0818
      6 C5         -0.0126    1.0758    0.0080 C.ar      1 <0>        -0.1186
      7 C6          1.1754    1.7786    0.0004 C.ar      1 <0>        -0.1193
      8 C7          1.1567    3.1610    0.0085 C.ar      1 <0>        -0.1217
      9 C8         -0.0492    3.8320    0.0262 C.ar      1 <0>        -0.1135
     10 C9         -1.2441    3.1272    0.0352 C.ar      1 <0>        -0.1185
     11 C10        -2.5344    3.9039    0.0609 C.3       1 <0>         0.0848
     12 N1         -3.6555    3.0506   -0.3455 N.3       1 <0>        -0.6610
     13 H2         -4.9957    0.1453    0.8170 H         1 <0>         0.0608
     14 H3         -5.0747    0.8126   -0.8489 H         1 <0>         0.0569
     15 H4         -5.8307    1.7065    0.5136 H         1 <0>         0.0656
     16 H5         -2.3880    0.0993    0.7226 H         1 <0>         0.0809
     17 H6         -2.6819    0.5521   -0.9906 H         1 <0>         0.0809
     18 H7          0.0021   -0.0041    0.0020 H         1 <0>         0.1211
     19 H8          2.1171    1.2499   -0.0122 H         1 <0>         0.1226
     20 H9          2.0840    3.7147    0.0013 H         1 <0>         0.1228
     21 H10        -0.0627    4.9119    0.0335 H         1 <0>         0.1229
     22 H11        -2.7188    4.2749    1.0799 H         1 <0>         0.0863
     23 H12        -2.4638    4.7552   -0.6321 H         1 <0>         0.0892
     24 H13        -3.5459    2.7959   -1.4100 H         1 <0>         0.3408
@<TRIPOS>BOND
     1    1    2 1
     2    1   13 1
     3    1   14 1
     4    1   15 1
     5    2    3 1
     6    2   12 1
     7    2    4 1
     8    4    5 1
     9    4   16 1
    10    4   17 1
    11    5   10 ar
    12    5    6 ar
    13    6    7 ar
    14    6   18 1
    15    7    8 ar
    16    7   19 1
    17    8    9 ar
    18    8   20 1
    19    9   10 ar
    20    9   21 1
    21   10   11 1
    22   11   12 1
    23   11   22 1
    24   11   23 1
    25   12   24 1
@<TRIPOS>MOLECULE
ZINC04721990
   25    26     0     0     0
SMALL
USER_CHARGES
(2R)-tetralin-2-amine
@<TRIPOS>ATOM
      1 C1         -0.1874    4.2686    0.0344 C.ar      1 <0>        -0.1038
      2 C2         -1.3424    3.5086    0.0376 C.ar      1 <0>        -0.1115
      3 C3         -1.2563    2.1320    0.0315 C.ar      1 <0>        -0.1108
      4 C4         -0.0184    1.5021    0.0103 C.ar      1 <0>        -0.0956
      5 C5          1.1315    2.2589    0.0034 C.ar      1 <0>        -0.0853
      6 C6          1.0428    3.6451    0.0178 C.ar      1 <0>        -0.1141
      7 C7          2.5066    1.6443   -0.0221 C.3       1 <0>        -0.0787
      8 C8          2.4464    0.1758    0.3934 C.3       1 <0>        -0.1405
      9 C9          1.3681   -0.5202   -0.4455 C.3       1 <0>         0.0306
     10 H1          1.5191   -0.2921   -1.5007 H         1 <0>         0.1477
     11 C10         0.0021   -0.0041    0.0020 C.3       1 <0>        -0.0951
     12 H2         -0.2483    5.3469    0.0453 H         1 <0>         0.1313
     13 H3         -2.3086    3.9911    0.0487 H         1 <0>         0.1310
     14 H4         -2.1589    1.5389    0.0381 H         1 <0>         0.1259
     15 H5          1.9445    4.2395    0.0155 H         1 <0>         0.1286
     16 H6          3.1554    2.1863    0.6659 H         1 <0>         0.0973
     17 H7          2.9128    1.7160   -1.0310 H         1 <0>         0.0891
     18 H8          2.1923    0.1036    1.4509 H         1 <0>         0.0929
     19 H9          3.4124   -0.2963    0.2144 H         1 <0>         0.0940
     20 H10        -0.2099   -0.3719    1.0059 H         1 <0>         0.0961
     21 H11        -0.7621   -0.3701   -0.6836 H         1 <0>         0.0990
     22 H12         0.7269   -2.4497   -0.7683 H         1 <0>         0.4390
     23 H13         2.3578   -2.3253   -0.4670 H         1 <0>         0.4397
     24 N1          1.4361   -1.9737   -0.2131 N.4       1 <0>        -0.6444
     25 H14         1.2669   -2.1647    0.7814 H         1 <0>         0.4377
@<TRIPOS>BOND
     1    1    6 ar
     2    1    2 ar
     3    1   12 1
     4    2    3 ar
     5    2   13 1
     6    3    4 ar
     7    3   14 1
     8    4   11 1
     9    4    5 ar
    10    5    6 ar
    11    5    7 1
    12    6   15 1
    13    7    8 1
    14    7   16 1
    15    7   17 1
    16    8    9 1
    17    8   18 1
    18    8   19 1
    19    9   10 1
    20    9   11 1
    21    9   24 1
    22   11   20 1
    23   11   21 1
    24   22   24 1
    25   23   24 1
    26   24   25 1
@<TRIPOS>MOLECULE
ZINC05934789
   25    26     0     0     0
SMALL
USER_CHARGES
(2S)-tetralin-2-amine
@<TRIPOS>ATOM
      1 C1         -1.2195    1.7435    0.0173 C.ar      1 <0>        -0.1038
      2 C2         -1.2393    3.1259    0.0305 C.ar      1 <0>        -0.1114
      3 C3         -0.0521    3.8279    0.0260 C.ar      1 <0>        -0.1107
      4 C4          1.1645    3.1574    0.0131 C.ar      1 <0>        -0.0953
      5 C5          1.1842    1.7810    0.0003 C.ar      1 <0>        -0.0854
      6 C6         -0.0126    1.0758    0.0080 C.ar      1 <0>        -0.1141
      7 C7          2.4650    0.9888   -0.0306 C.3       1 <0>        -0.0787
      8 C8          3.6459    1.8599    0.3927 C.3       1 <0>        -0.1403
      9 C9          3.6175    3.1497   -0.4359 C.3       1 <0>         0.0303
     10 H1          3.5154    2.9047   -1.4930 H         1 <0>         0.1443
     11 C10         2.4222    3.9863    0.0162 C.3       1 <0>        -0.0920
     12 H2         -2.1459    1.1882    0.0186 H         1 <0>         0.1313
     13 H3         -2.1812    3.6543    0.0403 H         1 <0>         0.1311
     14 H4         -0.0683    4.9078    0.0323 H         1 <0>         0.1260
     15 H5          0.0021   -0.0041    0.0020 H         1 <0>         0.1286
     16 H6          2.3805    0.1422    0.6506 H         1 <0>         0.0972
     17 H7          2.6350    0.6198   -1.0421 H         1 <0>         0.0891
     18 H8          4.5791    1.3270    0.2103 H         1 <0>         0.0937
     19 H9          3.5621    2.1023    1.4521 H         1 <0>         0.0932
     20 H10         2.2978    4.8309   -0.6615 H         1 <0>         0.0987
     21 H11         2.6052    4.3582    1.0243 H         1 <0>         0.0962
     22 H12         4.8537    4.7668   -0.7444 H         1 <0>         0.4389
     23 H13         5.0108    4.0789    0.7615 H         1 <0>         0.4358
     24 N1          4.8761    3.8879   -0.2300 N.4       1 <0>        -0.6445
     25 H14         5.6603    3.3198   -0.5713 H         1 <0>         0.4422
@<TRIPOS>BOND
     1    1    6 ar
     2    1    2 ar
     3    1   12 1
     4    2    3 ar
     5    2   13 1
     6    3    4 ar
     7    3   14 1
     8    4   11 1
     9    4    5 ar
    10    5    6 ar
    11    5    7 1
    12    6   15 1
    13    7    8 1
    14    7   16 1
    15    7   17 1
    16    8    9 1
    17    8   18 1
    18    8   19 1
    19    9   10 1
    20    9   11 1
    21    9   24 1
    22   11   20 1
    23   11   21 1
    24   22   24 1
    25   23   24 1
    26   24   25 1
@<TRIPOS>MOLECULE
ZINC03847388
   23    24     0     0     0
SMALL
USER_CHARGES
1,2,3,4-tetrahydroisoquinolin-6-ol
@<TRIPOS>ATOM
      1 C1          1.2161   -0.6750   -0.0136 C.ar      1 <0>        -0.1351
      2 C2          2.3954    0.0408   -0.0192 C.ar      1 <0>        -0.0740
      3 C3          2.3760    1.4280   -0.0091 C.ar      1 <0>        -0.1508
      4 C4          1.1698    2.0968    0.0022 C.ar      1 <0>        -0.0723
      5 C5         -0.0167    1.3815    0.0096 C.ar      1 <0>        -0.1371
      6 C6          0.0021   -0.0041    0.0020 C.ar      1 <0>         0.1412
      7 O1         -1.1637   -0.7025    0.0102 O.3       1 <0>        -0.4934
      8 C7          1.1003    3.6025    0.0015 C.3       1 <0>        -0.1085
      9 C8          2.4518    4.1874    0.4123 C.3       1 <0>         0.0005
     10 C9          3.6913    2.1624   -0.0046 C.3       1 <0>         0.0524
     11 H1          1.2380   -1.7548   -0.0209 H         1 <0>         0.1441
     12 H2          3.3402   -0.4822   -0.0320 H         1 <0>         0.1400
     13 H3         -0.9607    1.9062    0.0169 H         1 <0>         0.1412
     14 H4         -1.5101   -0.8999   -0.8707 H         1 <0>         0.4046
     15 H5          0.8433    3.9525   -0.9983 H         1 <0>         0.1057
     16 H6          0.3352    3.9297    0.7056 H         1 <0>         0.1239
     17 H7          2.4513    5.2643    0.2440 H         1 <0>         0.1407
     18 H8          2.6360    3.9787    1.4662 H         1 <0>         0.1339
     19 H9          4.1171    2.1314    0.9983 H         1 <0>         0.1391
     20 H10         4.3761    1.6779   -0.7007 H         1 <0>         0.1410
     21 N1          3.5038    3.5621   -0.4108 N.4       1 <0>        -0.5136
     22 H11         4.3846    4.0742   -0.2840 H         1 <0>         0.4409
     23 H12         3.2276    3.5956   -1.3991 H         1 <0>         0.4358
@<TRIPOS>BOND
     1    1    6 ar
     2    1    2 ar
     3    1   11 1
     4    2    3 ar
     5    2   12 1
     6    3   10 1
     7    3    4 ar
     8    4    5 ar
     9    4    8 1
    10    5    6 ar
    11    5   13 1
    12    6    7 1
    13    7   14 1
    14    8    9 1
    15    8   15 1
    16    8   16 1
    17    9   17 1
    18    9   18 1
    19    9   21 1
    20   10   19 1
    21   10   20 1
    22   10   21 1
    23   21   22 1
    24   21   23 1
@<TRIPOS>MOLECULE
ZINC13757904
   23    24     0     0     0
SMALL
USER_CHARGES
2,3,4,5-tetrahydro-1,4-benzothiazepine
@<TRIPOS>ATOM
      1 C1          0.0477   -2.7501   -0.0654 C.ar      1 <0>        -0.0931
      2 C2         -0.4449   -2.1010    1.0523 C.ar      1 <0>        -0.0859
      3 C3         -0.4709   -0.7181    1.0909 C.ar      1 <0>        -0.0650
      4 C4          0.0021   -0.0041    0.0020 C.ar      1 <0>        -0.0999
      5 C5          0.4996   -0.6452   -1.1124 C.ar      1 <0>        -0.1326
      6 C6          0.5199   -2.0296   -1.1472 C.ar      1 <0>        -0.0901
      7 C7          1.0396    0.1306   -2.2957 C.3       1 <0>         0.0431
      8 C8          2.2943    2.0269   -1.4116 C.3       1 <0>        -0.0116
      9 C9          1.7574    2.1698   -0.0031 C.3       1 <0>        -0.1302
     10 S1         -0.0220    1.7707    0.0118 S.3       1 <0>        -0.1093
     11 H1          0.0641   -3.8297   -0.0933 H         1 <0>         0.1421
     12 H2         -0.8090   -2.6726    1.8933 H         1 <0>         0.1448
     13 H3         -0.8551   -0.2021    1.9584 H         1 <0>         0.1481
     14 H4          0.9023   -2.5444   -2.0162 H         1 <0>         0.1411
     15 H5          1.1366   -0.5340   -3.1542 H         1 <0>         0.1440
     16 H6          0.3588    0.9464   -2.5387 H         1 <0>         0.1504
     17 H7          3.2999    2.4469   -1.4342 H         1 <0>         0.1380
     18 H8          1.6669    2.6232   -2.0740 H         1 <0>         0.1390
     19 H9          1.9029    3.1944    0.3391 H         1 <0>         0.1565
     20 H10         2.2887    1.4864    0.6594 H         1 <0>         0.1099
     21 N1          2.3804    0.6644   -1.9486 N.4       1 <0>        -0.5145
     22 H11         2.9642    0.6750   -2.7931 H         1 <0>         0.4441
     23 H12         2.8100    0.0544   -1.2431 H         1 <0>         0.4309
@<TRIPOS>BOND
     1    1    6 ar
     2    1    2 ar
     3    1   11 1
     4    2    3 ar
     5    2   12 1
     6    3    4 ar
     7    3   13 1
     8    4   10 1
     9    4    5 ar
    10    5    6 ar
    11    5    7 1
    12    6   14 1
    13    7   15 1
    14    7   16 1
    15    7   21 1
    16    8    9 1
    17    8   17 1
    18    8   18 1
    19    8   21 1
    20    9   10 1
    21    9   19 1
    22    9   20 1
    23   21   22 1
    24   21   23 1
@<TRIPOS>MOLECULE
ZINC13801446
   25    26     0     0     0
SMALL
USER_CHARGES
[(3R)-7-bromo-1,2,3,4-tetrahydroisoquinolin-3-yl]methanol
@<TRIPOS>ATOM
      1 C1         -0.0166    1.3764    0.0096 C.ar      1 <0>        -0.0908
      2 C2          0.0021   -0.0041    0.0020 C.ar      1 <0>        -0.1132
      3 C3          1.2077   -0.6885   -0.0150 C.ar      1 <0>        -0.0537
      4 C4          2.3951    0.0124   -0.0248 C.ar      1 <0>        -0.0731
      5 C5          2.3755    1.3989   -0.0145 C.ar      1 <0>        -0.0863
      6 C6          1.1739    2.0803    0.0020 C.ar      1 <0>        -0.0913
      7 Br1         1.1568    3.9712    0.0148 Br        1 <0>        -0.0490
      8 C7          3.7296   -0.6856   -0.0496 C.3       1 <0>         0.0863
      9 N1          3.5831   -2.0879    0.3530 N.3       1 <0>        -0.6659
     10 C8          2.5391   -2.7425   -0.4515 C.3       1 <0>         0.0767
     11 H1          2.7355   -2.5192   -1.5105 H         1 <0>         0.0513
     12 C9          1.1786   -2.1954   -0.0187 C.3       1 <0>        -0.0736
     13 C10         2.5830   -4.2541   -0.2189 C.3       1 <0>         0.0894
     14 O1          3.8093   -4.7794   -0.7310 O.3       1 <0>        -0.6063
     15 H2         -0.9583    1.9051    0.0169 H         1 <0>         0.1341
     16 H3         -0.9275   -0.5538    0.0090 H         1 <0>         0.1327
     17 H4          3.3048    1.9491   -0.0201 H         1 <0>         0.1332
     18 H5          4.1444   -0.6476   -1.0677 H         1 <0>         0.0501
     19 H6          4.4186   -0.1842    0.6460 H         1 <0>         0.0945
     20 H7          4.5369   -2.6144    0.2014 H         1 <0>         0.3593
     21 H8          0.9466   -2.5601    0.9928 H         1 <0>         0.0917
     22 H9          0.4074   -2.5455   -0.7206 H         1 <0>         0.0842
     23 H10         2.5173   -4.4612    0.8594 H         1 <0>         0.0550
     24 H11         1.7363   -4.7294   -0.7358 H         1 <0>         0.0492
     25 H12         4.0213   -5.8560   -0.6538 H         1 <0>         0.4153
@<TRIPOS>BOND
     1    1    6 ar
     2    1    2 ar
     3    1   15 1
     4    2    3 ar
     5    2   16 1
     6    3   12 1
     7    3    4 ar
     8    4    5 ar
     9    4    8 1
    10    5    6 ar
    11    5   17 1
    12    6    7 1
    13    8    9 1
    14    8   18 1
    15    8   19 1
    16    9   10 1
    17    9   20 1
    18   10   11 1
    19   10   12 1
    20   10   13 1
    21   12   21 1
    22   12   22 1
    23   13   14 1
    24   13   23 1
    25   13   24 1
    26   14   25 1
@<TRIPOS>MOLECULE
ZINC13801449
   25    26     0     0     0
SMALL
USER_CHARGES
[(3S)-7-bromo-1,2,3,4-tetrahydroisoquinolin-3-yl]methanol
@<TRIPOS>ATOM
      1 C1         -0.0166    1.3764    0.0096 C.ar      1 <0>        -0.0908
      2 C2          0.0021   -0.0041    0.0020 C.ar      1 <0>        -0.1099
      3 C3          1.2077   -0.6885   -0.0122 C.ar      1 <0>        -0.0654
      4 C4          2.3952    0.0123   -0.0175 C.ar      1 <0>        -0.1104
      5 C5          2.3755    1.3989   -0.0115 C.ar      1 <0>        -0.0833
      6 C6          1.1739    2.0803    0.0020 C.ar      1 <0>        -0.0902
      7 Br1         1.1568    3.9712    0.0102 Br        1 <0>        -0.0476
      8 C7          3.7299   -0.6857   -0.0268 C.3       1 <0>         0.0858
      9 N1          3.5754   -2.0834   -0.4424 N.3       1 <0>        -0.6477
     10 C8          2.5472   -2.7472    0.3748 C.3       1 <0>         0.0749
     11 H1          2.7643   -2.5360    1.4323 H         1 <0>         0.0910
     12 C9          1.1785   -2.1954   -0.0252 C.3       1 <0>        -0.1123
     13 C10         2.5863   -4.2560    0.1242 C.3       1 <0>         0.0989
     14 O1          3.8223   -4.7871    0.6062 O.3       1 <0>        -0.5890
     15 H2         -0.9583    1.9051    0.0170 H         1 <0>         0.1343
     16 H3         -0.9275   -0.5538    0.0068 H         1 <0>         0.1323
     17 H4          3.3048    1.9491   -0.0184 H         1 <0>         0.1344
     18 H5          4.4052   -0.1763   -0.7300 H         1 <0>         0.0937
     19 H6          4.1646   -0.6592    0.9833 H         1 <0>         0.0914
     20 H7          3.2737   -2.1204   -1.4996 H         1 <0>         0.3391
     21 H8          0.4210   -2.5536    0.6875 H         1 <0>         0.0880
     22 H9          0.9268   -2.5486   -1.0361 H         1 <0>         0.0872
     23 H10         1.7498   -4.7372    0.6521 H         1 <0>         0.0457
     24 H11         2.4995   -4.4508   -0.9549 H         1 <0>         0.0434
     25 H12         4.0325   -5.8628    0.5126 H         1 <0>         0.4065
@<TRIPOS>BOND
     1    1    6 ar
     2    1    2 ar
     3    1   15 1
     4    2    3 ar
     5    2   16 1
     6    3   12 1
     7    3    4 ar
     8    4    5 ar
     9    4    8 1
    10    5    6 ar
    11    5   17 1
    12    6    7 1
    13    8    9 1
    14    8   18 1
    15    8   19 1
    16    9   10 1
    17    9   20 1
    18   10   11 1
    19   10   12 1
    20   10   13 1
    21   12   21 1
    22   12   22 1
    23   13   14 1
    24   13   23 1
    25   13   24 1
    26   14   25 1
@<TRIPOS>MOLECULE
ZINC27526370
   25    26     0     0     0
SMALL
USER_CHARGES
[(3R)-7,8-dichloro-1,2,3,4-tetrahydroisoquinolin-3-yl]methanol
@<TRIPOS>ATOM
      1 C1          2.4897   -0.2879   -2.8040 C.ar      1 <0>        -0.0990
      2 C2          3.6572    0.3349   -3.1981 C.ar      1 <0>        -0.0989
      3 C3          4.0703    1.4900   -2.5594 C.ar      1 <0>        -0.0314
      4 C4          3.3125    2.0145   -1.5284 C.ar      1 <0>        -0.0274
      5 C5          2.1399    1.3874   -1.1311 C.ar      1 <0>        -0.0959
      6 C6          1.7286    0.2375   -1.7710 C.ar      1 <0>        -0.0657
      7 C7          0.4603   -0.4758   -1.3782 C.3       1 <0>        -0.1104
      8 C8          0.0021   -0.0041    0.0020 C.3       1 <0>         0.0736
      9 H1          0.6985   -0.3393    0.7847 H         1 <0>         0.0924
     10 N1         -0.0179    1.4674    0.0101 N.3       1 <0>        -0.6444
     11 C9          1.3509    1.9933   -0.0001 C.3       1 <0>         0.0838
     12 C10        -1.4027   -0.5387    0.2877 C.3       1 <0>         0.0994
     13 O1         -1.7901   -0.1750    1.6142 O.3       1 <0>        -0.5883
     14 Cl1         3.8308    3.4644   -0.7267 Cl        1 <0>        -0.0409
     15 Cl2         5.5365    2.2792   -3.0504 Cl        1 <0>        -0.0452
     16 H2          2.1677   -1.1899   -3.3030 H         1 <0>         0.1397
     17 H3          4.2464   -0.0788   -4.0032 H         1 <0>         0.1447
     18 H4         -0.3265   -0.2574   -2.1152 H         1 <0>         0.0901
     19 H5          0.6436   -1.5600   -1.3480 H         1 <0>         0.0915
     20 H6         -0.5499    1.8318   -0.8811 H         1 <0>         0.3402
     21 H7          1.8350    1.7487    0.9569 H         1 <0>         0.0961
     22 H8          1.3132    3.0857   -0.1233 H         1 <0>         0.0992
     23 H9         -2.1128   -0.1071   -0.4330 H         1 <0>         0.0437
     24 H10        -1.4043   -1.6346    0.1927 H         1 <0>         0.0463
     25 H11        -2.7756   -0.4738    2.0008 H         1 <0>         0.4069
@<TRIPOS>BOND
     1    1    6 ar
     2    1    2 ar
     3    1   16 1
     4    2    3 ar
     5    2   17 1
     6    3    4 ar
     7    3   15 1
     8    4    5 ar
     9    4   14 1
    10    5   11 1
    11    5    6 ar
    12    6    7 1
    13    7    8 1
    14    7   18 1
    15    7   19 1
    16    8    9 1
    17    8   10 1
    18    8   12 1
    19   10   11 1
    20   10   20 1
    21   11   21 1
    22   11   22 1
    23   12   13 1
    24   12   23 1
    25   12   24 1
    26   13   25 1
@<TRIPOS>MOLECULE
ZINC27549240
   25    26     0     0     0
SMALL
USER_CHARGES
[(3S)-7,8-dichloro-1,2,3,4-tetrahydroisoquinolin-3-yl]methanol
@<TRIPOS>ATOM
      1 C1         -0.4767    0.9719   -2.4330 C.ar      1 <0>        -0.1022
      2 C2         -1.1164    1.3977   -3.5801 C.ar      1 <0>        -0.0989
      3 C3         -2.0224    2.4407   -3.5157 C.ar      1 <0>        -0.0324
      4 C4         -2.2839    3.0508   -2.3026 C.ar      1 <0>        -0.0299
      5 C5         -1.6426    2.6212   -1.1493 C.ar      1 <0>        -0.0577
      6 C6         -0.7377    1.5831   -1.2162 C.ar      1 <0>        -0.0542
      7 C7         -0.0127    1.0858    0.0080 C.3       1 <0>        -0.0714
      8 C8         -0.7242    1.5768    1.2690 C.3       1 <0>         0.0750
      9 H1         -1.7083    1.0975    1.3777 H         1 <0>         0.0528
     10 N1         -0.9343    3.0283    1.1524 N.3       1 <0>        -0.6639
     11 C9         -1.9669    3.3103    0.1502 C.3       1 <0>         0.0836
     12 C10         0.1416    1.2821    2.4956 C.3       1 <0>         0.0900
     13 O1         -0.5748    1.6355    3.6804 O.3       1 <0>        -0.6061
     14 Cl1        -3.4208    4.3602   -2.2218 Cl        1 <0>        -0.0438
     15 Cl2        -2.8297    2.9822   -4.9541 Cl        1 <0>        -0.0463
     16 H2          0.2310    0.1576   -2.4839 H         1 <0>         0.1402
     17 H3         -0.9097    0.9177   -4.5252 H         1 <0>         0.1446
     18 H4          0.0014   -0.0141    0.0042 H         1 <0>         0.0876
     19 H5          1.0196    1.4658    0.0025 H         1 <0>         0.0947
     20 H6         -1.2554    3.4315    2.1242 H         1 <0>         0.3618
     21 H7         -2.0185    4.3968   -0.0138 H         1 <0>         0.1001
     22 H8         -2.9363    2.9496    0.5246 H         1 <0>         0.0555
     23 H9          0.3876    0.2103    2.5218 H         1 <0>         0.0496
     24 H10         1.0696    1.8700    2.4392 H         1 <0>         0.0556
     25 H11        -0.1099    1.4936    4.6672 H         1 <0>         0.4157
@<TRIPOS>BOND
     1    1    6 ar
     2    1    2 ar
     3    1   16 1
     4    2    3 ar
     5    2   17 1
     6    3    4 ar
     7    3   15 1
     8    4    5 ar
     9    4   14 1
    10    5   11 1
    11    5    6 ar
    12    6    7 1
    13    7    8 1
    14    7   18 1
    15    7   19 1
    16    8    9 1
    17    8   10 1
    18    8   12 1
    19   10   11 1
    20   10   20 1
    21   11   21 1
    22   11   22 1
    23   12   13 1
    24   12   23 1
    25   12   24 1
    26   13   25 1
@<TRIPOS>MOLECULE
ZINC13766752
   29    30     0     0     0
SMALL
USER_CHARGES

@<TRIPOS>ATOM
      1 C1         -0.0178    1.4608    0.0101 C.3       1 <0>         0.0823
      2 N1          0.0021   -0.0041    0.0020 N.pl3     1 <0>        -1.1206
      3 S1         -1.4206   -0.8515    0.0111 S.o2      1 <0>         2.6974
      4 O1         -1.0732   -2.2289   -0.0267 O.2       1 <0>        -0.9577
      5 O2         -2.2182   -0.2952    1.0472 O.2       1 <0>        -0.9542
      6 C2         -2.2468   -0.4988   -1.5048 C.ar      1 <0>        -0.6785
      7 C3         -3.1173    0.5723   -1.5862 C.ar      1 <0>        -0.0232
      8 C4         -3.7635    0.8428   -2.7756 C.ar      1 <0>        -0.1404
      9 C5         -3.5434    0.0466   -3.8895 C.ar      1 <0>        -0.0116
     10 C6         -2.6728   -1.0190   -3.8100 C.ar      1 <0>        -0.1014
     11 C7         -2.0218   -1.2877   -2.6147 C.ar      1 <0>        -0.0126
     12 C8         -2.3914   -1.9054   -4.9947 C.3       1 <0>         0.0936
     13 N2         -3.4310   -1.7432   -6.0160 N.3       1 <0>        -0.6856
     14 C9         -3.6022   -0.3199   -6.3479 C.3       1 <0>         0.0513
     15 C10        -4.2753    0.3767   -5.1650 C.3       1 <0>        -0.0879
     16 H1          1.0048    1.8381    0.0023 H         1 <0>         0.0846
     17 H2         -0.5450    1.8219   -0.8730 H         1 <0>         0.0594
     18 H3         -0.5280    1.8123    0.9069 H         1 <0>         0.0703
     19 H4          0.8486   -0.4776   -0.0086 H         1 <0>         0.4201
     20 H5         -3.2915    1.1954   -0.7215 H         1 <0>         0.1415
     21 H6         -4.4444    1.6788   -2.8389 H         1 <0>         0.1341
     22 H7         -1.3385   -2.1216   -2.5511 H         1 <0>         0.1405
     23 H8         -1.4239   -1.6399   -5.4209 H         1 <0>         0.0495
     24 H9         -2.3669   -2.9451   -4.6683 H         1 <0>         0.0938
     25 H10        -3.2152   -2.2834   -6.8405 H         1 <0>         0.3519
     26 H11        -2.6280    0.1327   -6.5333 H         1 <0>         0.0391
     27 H12        -4.2287   -0.2234   -7.2346 H         1 <0>         0.0852
     28 H13        -5.3089    0.0394   -5.0868 H         1 <0>         0.0934
     29 H14        -4.2590    1.4551   -5.3229 H         1 <0>         0.0857
@<TRIPOS>BOND
     1    1    2 1
     2    1   16 1
     3    1   17 1
     4    1   18 1
     5    2    3 1
     6    2   19 1
     7    3    4 2
     8    3    5 2
     9    3    6 1
    10    6   11 ar
    11    6    7 ar
    12    7    8 ar
    13    7   20 1
    14    8    9 ar
    15    8   21 1
    16    9   15 1
    17    9   10 ar
    18   10   11 ar
    19   10   12 1
    20   11   22 1
    21   12   13 1
    22   12   23 1
    23   12   24 1
    24   13   14 1
    25   13   25 1
    26   14   15 1
    27   14   26 1
    28   14   27 1
    29   15   28 1
    30   15   29 1
@<TRIPOS>MOLECULE
ZINC02516060
   21    21     0     0     0
SMALL
USER_CHARGES

@<TRIPOS>ATOM
      1 C1         -0.0187    1.5258    0.0104 C.3       1 <0>        -0.1819
      2 C2          0.0021   -0.0041    0.0020 C.3       1 <0>         0.0789
      3 H1         -1.0205   -0.3814    0.0098 H         1 <0>         0.1540
      4 C3          0.7309   -0.5033    1.2229 C.ar      1 <0>        -0.1235
      5 C4          2.0773   -0.8081    1.1477 C.ar      1 <0>        -0.1169
      6 C5          2.7466   -1.2661    2.2670 C.ar      1 <0>        -0.0810
      7 C6          2.0703   -1.4203    3.4629 C.ar      1 <0>        -0.0750
      8 C7          0.7234   -1.1159    3.5399 C.ar      1 <0>        -0.0209
      9 C8          0.0543   -0.6511    2.4200 C.ar      1 <0>        -0.0159
     10 Cl1        -1.6346   -0.2612    2.5169 Cl        1 <0>        -0.0206
     11 Cl2        -0.1263   -1.3094    5.0413 Cl        1 <0>        -0.0143
     12 N1          0.6897   -0.4778   -1.2066 N.4       1 <0>        -0.6346
     13 H2          1.0039    1.9031    0.0027 H         1 <0>         0.0876
     14 H3         -0.5459    1.8868   -0.8726 H         1 <0>         0.0934
     15 H4         -0.5289    1.8773    0.9072 H         1 <0>         0.1095
     16 H5          2.6064   -0.6886    0.2138 H         1 <0>         0.1346
     17 H6          3.7984   -1.5039    2.2072 H         1 <0>         0.1541
     18 H7          2.5937   -1.7789    4.3369 H         1 <0>         0.1575
     19 H8          1.6363   -0.1286   -1.2138 H         1 <0>         0.4326
     20 H9          0.7033   -1.4867   -1.2121 H         1 <0>         0.4397
     21 H10         0.2017   -0.1436   -2.0240 H         1 <0>         0.4426
@<TRIPOS>BOND
     1    1    2 1
     2    1   13 1
     3    1   14 1
     4    1   15 1
     5    2    3 1
     6    2    4 1
     7    2   12 1
     8    4    9 ar
     9    4    5 ar
    10    5    6 ar
    11    5   16 1
    12    6    7 ar
    13    6   17 1
    14    7    8 ar
    15    7   18 1
    16    8    9 ar
    17    8   11 1
    18    9   10 1
    19   12   19 1
    20   12   20 1
    21   12   21 1
@<TRIPOS>MOLECULE
ZINC03870307
   21    21     0     0     0
SMALL
USER_CHARGES

@<TRIPOS>ATOM
      1 C1         -0.0187    1.5258    0.0104 C.3       1 <0>        -0.1833
      2 C2          0.0021   -0.0041    0.0020 C.3       1 <0>         0.0799
      3 H1         -1.0205   -0.3814    0.0098 H         1 <0>         0.1546
      4 C3          0.7074   -0.4901   -1.2379 C.ar      1 <0>        -0.1218
      5 C4          2.0245   -0.9044   -1.1664 C.ar      1 <0>        -0.1196
      6 C5          2.6722   -1.3502   -2.3031 C.ar      1 <0>        -0.0800
      7 C6          2.0040   -1.3820   -3.5129 C.ar      1 <0>        -0.0759
      8 C7          0.6864   -0.9679   -3.5863 C.ar      1 <0>        -0.0200
      9 C8          0.0355   -0.5270   -2.4461 C.ar      1 <0>        -0.0166
     10 Cl1        -1.6206   -0.0141   -2.5350 Cl        1 <0>        -0.0205
     11 Cl2        -0.1531   -1.0075   -5.1052 Cl        1 <0>        -0.0141
     12 N1          0.7126   -0.4907    1.1921 N.4       1 <0>        -0.6348
     13 H2          1.0039    1.9031    0.0027 H         1 <0>         0.0878
     14 H3         -0.5459    1.8868   -0.8726 H         1 <0>         0.1097
     15 H4         -0.5289    1.8773    0.9072 H         1 <0>         0.0936
     16 H5          2.5476   -0.8793   -0.2219 H         1 <0>         0.1337
     17 H6          3.7011   -1.6737   -2.2462 H         1 <0>         0.1540
     18 H7          2.5109   -1.7298   -4.4009 H         1 <0>         0.1576
     19 H8          0.2403   -0.1653    2.0223 H         1 <0>         0.4428
     20 H9          0.7262   -1.4996    1.1866 H         1 <0>         0.4396
     21 H10         1.6592   -0.1415    1.1850 H         1 <0>         0.4333
@<TRIPOS>BOND
     1    1    2 1
     2    1   13 1
     3    1   14 1
     4    1   15 1
     5    2    3 1
     6    2    4 1
     7    2   12 1
     8    4    9 ar
     9    4    5 ar
    10    5    6 ar
    11    5   16 1
    12    6    7 ar
    13    6   17 1
    14    7    8 ar
    15    7   18 1
    16    8    9 ar
    17    8   11 1
    18    9   10 1
    19   12   19 1
    20   12   20 1
    21   12   21 1
@<TRIPOS>MOLECULE
ZINC08699423
   26    27     0     0     0
SMALL
USER_CHARGES
(1S,2S)-2-aminotetralin-1-ol
@<TRIPOS>ATOM
      1 C1          1.1739    1.7857    0.0004 C.ar      1 <0>        -0.0972
      2 C2         -0.0126    1.0758    0.0080 C.ar      1 <0>        -0.1100
      3 C3         -1.2150    1.7516    0.0173 C.ar      1 <0>        -0.1065
      4 C4         -1.2443    3.1403    0.0319 C.ar      1 <0>        -0.1328
      5 C5         -0.0630    3.8471    0.0211 C.ar      1 <0>        -0.0742
      6 C6          1.1469    3.1648    0.0060 C.ar      1 <0>        -0.1138
      7 C7         -0.0190    5.3528    0.0198 C.3       1 <0>        -0.0815
      8 C8         -1.3609    5.9297    0.4662 C.3       1 <0>        -0.1391
      9 C9         -2.4696    5.2756   -0.3668 C.3       1 <0>         0.0408
     10 H1         -2.2151    5.3315   -1.4252 H         1 <0>         0.1546
     11 C10        -2.5916    3.8133    0.0572 C.3       1 <0>         0.1376
     12 H2         -2.9988    3.7648    1.0671 H         1 <0>         0.0875
     13 O1         -3.4734    3.1347   -0.8394 O.3       1 <0>        -0.5654
     14 H3          2.1185    1.2623   -0.0101 H         1 <0>         0.1337
     15 H4          0.0021   -0.0041    0.0020 H         1 <0>         0.1334
     16 H5         -2.1414    1.1964    0.0175 H         1 <0>         0.1239
     17 H6          2.0740    3.7186   -0.0010 H         1 <0>         0.1314
     18 H7          0.7618    5.6902    0.7014 H         1 <0>         0.1011
     19 H8          0.2059    5.7050   -0.9869 H         1 <0>         0.0928
     20 H9         -1.5200    5.7142    1.5228 H         1 <0>         0.0957
     21 H10        -1.3687    7.0078    0.3057 H         1 <0>         0.1027
     22 H11        -3.6005    2.1986   -0.6328 H         1 <0>         0.4054
     23 H12        -3.6788    6.9417   -0.3843 H         1 <0>         0.4404
     24 H13        -4.4993    5.5138   -0.6160 H         1 <0>         0.4449
     25 N1         -3.7446    5.9652   -0.1019 N.4       1 <0>        -0.6417
     26 H14        -3.9502    5.9203    0.9031 H         1 <0>         0.4363
@<TRIPOS>BOND
     1    1    6 ar
     2    1    2 ar
     3    1   14 1
     4    2    3 ar
     5    2   15 1
     6    3    4 ar
     7    3   16 1
     8    4   11 1
     9    4    5 ar
    10    5    6 ar
    11    5    7 1
    12    6   17 1
    13    7    8 1
    14    7   18 1
    15    7   19 1
    16    8    9 1
    17    8   20 1
    18    8   21 1
    19    9   10 1
    20    9   11 1
    21    9   25 1
    22   11   12 1
    23   11   13 1
    24   13   22 1
    25   23   25 1
    26   24   25 1
    27   25   26 1
@<TRIPOS>MOLECULE
ZINC01604330
   24    24     0     0     0
SMALL
USER_CHARGES
1-(3,4-dichlorophenyl)propan-2-amine
@<TRIPOS>ATOM
      1 C1         -0.1755    1.0519   -2.4354 C.3       1 <0>        -0.1825
      2 C2         -0.7955    1.5269   -1.1198 C.3       1 <0>         0.0362
      3 H1         -0.7938    2.6165   -1.0898 H         1 <0>         0.1428
      4 C3         -2.2343    1.0162   -1.0204 C.3       1 <0>        -0.1017
      5 C4         -2.8848    1.5844    0.2145 C.ar      1 <0>        -0.1140
      6 C5         -3.5616    2.7882    0.1473 C.ar      1 <0>        -0.0876
      7 C6         -4.1587    3.3103    1.2791 C.ar      1 <0>        -0.0844
      8 C7         -4.0797    2.6282    2.4801 C.ar      1 <0>        -0.0237
      9 C8         -3.4024    1.4227    2.5473 C.ar      1 <0>        -0.0274
     10 C9         -2.8094    0.8991    1.4123 C.ar      1 <0>        -0.1249
     11 Cl1        -3.3023    0.5655    4.0536 Cl        1 <0>        -0.0252
     12 Cl2        -4.8299    3.2834    3.9020 Cl        1 <0>        -0.0215
     13 H2         -0.1772   -0.0377   -2.4654 H         1 <0>         0.0841
     14 H3         -0.7571    1.4393   -3.2719 H         1 <0>         0.1090
     15 H4          0.8496    1.4157   -2.5062 H         1 <0>         0.0856
     16 H5         -2.7929    1.3298   -1.9023 H         1 <0>         0.1270
     17 H6         -2.2303   -0.0722   -0.9609 H         1 <0>         0.1038
     18 H7         -3.6235    3.3209   -0.7901 H         1 <0>         0.1473
     19 H8         -4.6872    4.2507    1.2259 H         1 <0>         0.1537
     20 H9         -2.2841   -0.0432    1.4632 H         1 <0>         0.1426
     21 H10         0.0021   -0.0041    0.0020 H         1 <0>         0.4349
     22 H11         0.9253    1.3792    0.0006 H         1 <0>         0.4401
     23 N1         -0.0252    1.0139    0.0269 N.4       1 <0>        -0.6496
     24 H12        -0.4761    1.3157    0.8986 H         1 <0>         0.4356
@<TRIPOS>BOND
     1    1    2 1
     2    1   13 1
     3    1   14 1
     4    1   15 1
     5    2    3 1
     6    2    4 1
     7    2   23 1
     8    4    5 1
     9    4   16 1
    10    4   17 1
    11    5   10 ar
    12    5    6 ar
    13    6    7 ar
    14    6   18 1
    15    7    8 ar
    16    7   19 1
    17    8    9 ar
    18    8   12 1
    19    9   10 ar
    20    9   11 1
    21   10   20 1
    22   21   23 1
    23   22   23 1
    24   23   24 1
@<TRIPOS>MOLECULE
ZINC02035977
   24    24     0     0     0
SMALL
USER_CHARGES
no name
@<TRIPOS>ATOM
      1 C1          1.2583    5.6222    1.4634 C.3       1 <0>        -0.1825
      2 C2          1.1548    4.0957    1.4549 C.3       1 <0>         0.0359
      3 H1          2.0079    3.6707    1.9839 H         1 <0>         0.1422
      4 C3          1.1488    3.5930    0.0099 C.3       1 <0>        -0.1014
      5 C4          1.1707    2.0862    0.0021 C.ar      1 <0>        -0.1139
      6 C5         -0.0167    1.3778    0.0096 C.ar      1 <0>        -0.1274
      7 C6          0.0021   -0.0041    0.0020 C.ar      1 <0>        -0.0865
      8 C7          1.2094   -0.6794   -0.0131 C.ar      1 <0>        -0.0249
      9 C8          2.3983    0.0298   -0.0206 C.ar      1 <0>        -0.0248
     10 C9          2.3777    1.4131   -0.0130 C.ar      1 <0>        -0.0861
     11 Cl1         3.9142   -0.8161   -0.0402 Cl        1 <0>        -0.0222
     12 Cl2         1.2335   -2.4152   -0.0232 Cl        1 <0>        -0.0219
     13 H2          1.2626    5.9803    2.4929 H         1 <0>         0.0855
     14 H3          2.1808    5.9265    0.9690 H         1 <0>         0.1088
     15 H4          0.4053    6.0471    0.9345 H         1 <0>         0.0840
     16 H5          2.0285    3.9719   -0.5103 H         1 <0>         0.1255
     17 H6          0.2488    3.9459   -0.4938 H         1 <0>         0.1050
     18 H7         -0.9594    1.9047    0.0169 H         1 <0>         0.1392
     19 H8         -0.9258   -0.5567    0.0075 H         1 <0>         0.1526
     20 H9          3.3048    1.9671   -0.0192 H         1 <0>         0.1501
     21 H10        -0.1086    4.0058    3.0779 H         1 <0>         0.4398
     22 H11        -0.8962    4.0131    1.6131 H         1 <0>         0.4345
     23 N1         -0.0860    3.6603    2.1199 N.4       1 <0>        -0.6485
     24 H12        -0.1198    2.6342    2.1329 H         1 <0>         0.4366
@<TRIPOS>BOND
     1    1    2 1
     2    1   13 1
     3    1   14 1
     4    1   15 1
     5    2    3 1
     6    2    4 1
     7    2   23 1
     8    4    5 1
     9    4   16 1
    10    4   17 1
    11    5   10 ar
    12    5    6 ar
    13    6    7 ar
    14    6   18 1
    15    7    8 ar
    16    7   19 1
    17    8    9 ar
    18    8   12 1
    19    9   10 ar
    20    9   11 1
    21   10   20 1
    22   21   23 1
    23   22   23 1
    24   23   24 1
@<TRIPOS>MOLECULE
ZINC29340872
   22    24     0     0     0
SMALL
USER_CHARGES
6,7,8,9-tetrahydrothiadiazolo[5,4-h]isoquinoline
@<TRIPOS>ATOM
      1 C1          0.2226    5.1211   -0.6171 C.ar      1 <0>        -0.0704
      2 C2          1.3512    5.8389   -0.2846 C.ar      1 <0>        -0.0643
      3 C3          2.4698    5.1636    0.1403 C.ar      1 <0>        -0.1845
      4 C4          2.4953    3.7545    0.2444 C.ar      1 <0>         0.0368
      5 C5          1.3207    3.0513   -0.1069 C.ar      1 <0>        -0.0317
      6 C6          0.2180    3.7283   -0.5224 C.ar      1 <0>        -0.0705
      7 C7         -1.0571    3.0094   -0.8922 C.3       1 <0>        -0.1197
      8 C8         -0.7728    1.5284   -1.1384 C.3       1 <0>         0.0396
      9 N1         -0.0116    1.0048    0.0076 N.3       1 <0>        -0.6606
     10 C9          1.3496    1.5487   -0.0025 C.3       1 <0>         0.0833
     11 N2          3.6872    3.3214    0.6765 N.2       1 <0>        -0.2390
     12 N3          4.6483    4.1252    0.9477 N.2       1 <0>        -0.1970
     13 S1          4.1077    5.5848    0.6665 S.3       1 <0>         0.2969
     14 H1         -0.6636    5.6393   -0.9526 H         1 <0>         0.1448
     15 H2          1.3564    6.9164   -0.3574 H         1 <0>         0.1449
     16 H3         -1.7835    3.1059   -0.0719 H         1 <0>         0.0883
     17 H4         -1.4762    3.4534   -1.8072 H         1 <0>         0.0904
     18 H5         -1.7235    0.9843   -1.2389 H         1 <0>         0.0907
     19 H6         -0.1867    1.4162   -2.0624 H         1 <0>         0.0784
     20 H7         -0.5106    1.2968    0.9434 H         1 <0>         0.3459
     21 H8          1.8931    1.1318   -0.8632 H         1 <0>         0.0968
     22 H9          1.8569    1.2555    0.9284 H         1 <0>         0.1008
@<TRIPOS>BOND
     1    1    6 ar
     2    1    2 ar
     3    1   14 1
     4    2    3 ar
     5    2   15 1
     6    3   13 1
     7    3    4 ar
     8    4    5 ar
     9    4   11 1
    10    5   10 1
    11    5    6 ar
    12    6    7 1
    13    7    8 1
    14    7   16 1
    15    7   17 1
    16    8    9 1
    17    8   18 1
    18    8   19 1
    19    9   10 1
    20    9   20 1
    21   10   21 1
    22   10   22 1
    23   11   12 2
    24   12   13 1
@<TRIPOS>MOLECULE
ZINC08699421
   26    27     0     0     0
SMALL
USER_CHARGES
(1R,2S)-2-aminotetralin-1-ol
@<TRIPOS>ATOM
      1 C1          3.4870    0.1228    3.3715 C.ar      1 <0>        -0.0944
      2 C2          3.3119   -0.6677    2.2507 C.ar      1 <0>        -0.1135
      3 C3          2.5997   -0.1815    1.1742 C.ar      1 <0>        -0.1054
      4 C4          2.0567    1.0967    1.2062 C.ar      1 <0>        -0.1380
      5 C5          2.2346    1.8853    2.3204 C.ar      1 <0>        -0.0664
      6 C6          2.9504    1.3930    3.4044 C.ar      1 <0>        -0.1170
      7 C7          1.6813    3.2827    2.4216 C.3       1 <0>        -0.0814
      8 C8          0.5911    3.5059    1.3755 C.3       1 <0>        -0.1397
      9 C9          1.1394    3.0820    0.0077 C.3       1 <0>         0.0419
     10 H1          2.1117    3.5459   -0.1579 H         1 <0>         0.1556
     11 C10         1.2864    1.5618   -0.0018 C.3       1 <0>         0.1372
     12 H2          1.8163    1.2575   -0.9045 H         1 <0>         0.0899
     13 O1         -0.0110    0.9628    0.0073 O.3       1 <0>        -0.5715
     14 H3          4.0423   -0.2530    4.2182 H         1 <0>         0.1333
     15 H4          3.7316   -1.6623    2.2181 H         1 <0>         0.1328
     16 H5          2.4628   -0.7998    0.2993 H         1 <0>         0.1259
     17 H6          3.0878    2.0099    4.2801 H         1 <0>         0.1308
     18 H7          2.4858    4.0003    2.2611 H         1 <0>         0.0914
     19 H8          1.2609    3.4315    3.4162 H         1 <0>         0.0993
     20 H9          0.3169    4.5605    1.3503 H         1 <0>         0.0950
     21 H10        -0.2840    2.9049    1.6225 H         1 <0>         0.1013
     22 H11         0.0021   -0.0041    0.0020 H         1 <0>         0.4105
     23 H12         0.0948    4.4984   -1.0605 H         1 <0>         0.4385
     24 H13         0.5070    3.1550   -1.9501 H         1 <0>         0.4375
     25 N1          0.1856    3.4839   -1.0412 N.4       1 <0>        -0.6395
     26 H14        -0.7318    3.0692   -0.8400 H         1 <0>         0.4459
@<TRIPOS>BOND
     1    1    6 ar
     2    1    2 ar
     3    1   14 1
     4    2    3 ar
     5    2   15 1
     6    3    4 ar
     7    3   16 1
     8    4   11 1
     9    4    5 ar
    10    5    6 ar
    11    5    7 1
    12    6   17 1
    13    7    8 1
    14    7   18 1
    15    7   19 1
    16    8    9 1
    17    8   20 1
    18    8   21 1
    19    9   10 1
    20    9   11 1
    21    9   25 1
    22   11   12 1
    23   11   13 1
    24   13   22 1
    25   23   25 1
    26   24   25 1
    27   25   26 1
@<TRIPOS>MOLECULE
ZINC08699422
   26    27     0     0     0
SMALL
USER_CHARGES
(1R,2R)-2-aminotetralin-1-ol
@<TRIPOS>ATOM
      1 C1         -0.0126    1.0758    0.0080 C.ar      1 <0>        -0.0972
      2 C2          1.1739    1.7857    0.0004 C.ar      1 <0>        -0.1101
      3 C3          1.1469    3.1647    0.0103 C.ar      1 <0>        -0.1063
      4 C4         -0.0630    3.8471    0.0257 C.ar      1 <0>        -0.1324
      5 C5         -1.2443    3.1403    0.0299 C.ar      1 <0>        -0.0743
      6 C6         -1.2150    1.7516    0.0173 C.ar      1 <0>        -0.1139
      7 C7         -2.5918    3.8135    0.0376 C.3       1 <0>        -0.0815
      8 C8         -2.4616    5.2710    0.4750 C.3       1 <0>        -0.1357
      9 C9         -1.3690    5.9342   -0.3719 C.3       1 <0>         0.0404
     10 H1         -1.5482    5.7301   -1.4275 H         1 <0>         0.1516
     11 C10        -0.0188    5.3527    0.0425 C.3       1 <0>         0.1375
     12 H2          0.2260    5.6939    1.0483 H         1 <0>         0.0877
     13 O1          0.9876    5.8047   -0.8657 O.3       1 <0>        -0.5661
     14 H3          0.0021   -0.0041    0.0020 H         1 <0>         0.1337
     15 H4          2.1185    1.2623   -0.0127 H         1 <0>         0.1334
     16 H5          2.0741    3.7185    0.0062 H         1 <0>         0.1238
     17 H6         -2.1414    1.1963    0.0191 H         1 <0>         0.1314
     18 H7         -3.2518    3.2885    0.7283 H         1 <0>         0.1013
     19 H8         -3.0182    3.7757   -0.9648 H         1 <0>         0.0927
     20 H9         -2.1865    5.3149    1.5289 H         1 <0>         0.0955
     21 H10        -3.4092    5.7871    0.3212 H         1 <0>         0.1023
     22 H11         1.8772    5.4889   -0.6559 H         1 <0>         0.4057
     23 H12        -2.2596    7.7900   -0.4073 H         1 <0>         0.4402
     24 H13        -1.1558    7.5980    0.8218 H         1 <0>         0.4343
     25 N1         -1.3565    7.3917   -0.1554 N.4       1 <0>        -0.6417
     26 H14        -0.6283    7.8140   -0.7433 H         1 <0>         0.4476
@<TRIPOS>BOND
     1    1    6 ar
     2    1    2 ar
     3    1   14 1
     4    2    3 ar
     5    2   15 1
     6    3    4 ar
     7    3   16 1
     8    4   11 1
     9    4    5 ar
    10    5    6 ar
    11    5    7 1
    12    6   17 1
    13    7    8 1
    14    7   18 1
    15    7   19 1
    16    8    9 1
    17    8   20 1
    18    8   21 1
    19    9   10 1
    20    9   11 1
    21    9   25 1
    22   11   12 1
    23   11   13 1
    24   13   22 1
    25   23   25 1
    26   24   25 1
    27   25   26 1
@<TRIPOS>MOLECULE
ZINC08699424
   26    27     0     0     0
SMALL
USER_CHARGES
(1S,2R)-2-aminotetralin-1-ol
@<TRIPOS>ATOM
      1 C1         -0.3285    6.1929    1.7832 C.ar      1 <0>        -0.0944
      2 C2         -1.2940    5.4815    2.4712 C.ar      1 <0>        -0.1135
      3 C3         -1.4006    4.1185    2.2887 C.ar      1 <0>        -0.1055
      4 C4         -0.5451    3.4537    1.4194 C.ar      1 <0>        -0.1380
      5 C5          0.4132    4.1627    0.7308 C.ar      1 <0>        -0.0664
      6 C6          0.5199    5.5351    0.9172 C.ar      1 <0>        -0.1170
      7 C7          1.3682    3.5094   -0.2337 C.3       1 <0>        -0.0813
      8 C8          1.4186    2.0008   -0.0007 C.3       1 <0>        -0.1364
      9 C9         -0.0178    1.4648    0.0101 C.3       1 <0>         0.0417
     10 H1         -0.5524    1.8294   -0.8671 H         1 <0>         0.1525
     11 C10        -0.7083    1.9629    1.2781 C.3       1 <0>         0.1373
     12 H2         -1.7699    1.7206    1.2282 H         1 <0>         0.0895
     13 O1         -0.1311    1.3160    2.4141 O.3       1 <0>        -0.5707
     14 H3         -0.2387    7.2600    1.9236 H         1 <0>         0.1333
     15 H4         -1.9623    5.9913    3.1495 H         1 <0>         0.1329
     16 H5         -2.1552    3.5636    2.8263 H         1 <0>         0.1259
     17 H6          1.2737    6.0915    0.3799 H         1 <0>         0.1309
     18 H7          2.3644    3.9284   -0.0923 H         1 <0>         0.0996
     19 H8          1.0376    3.7047   -1.2538 H         1 <0>         0.0913
     20 H9          1.8952    1.7930    0.9573 H         1 <0>         0.1011
     21 H10         1.9823    1.5241   -0.8028 H         1 <0>         0.0947
     22 H11        -0.5199    1.5828    3.2584 H         1 <0>         0.4103
     23 H12         0.4701   -0.3548   -0.8202 H         1 <0>         0.4386
     24 H13         0.4286   -0.3645    0.8424 H         1 <0>         0.4439
     25 N1         -0.0228   -0.0087    0.0014 N.4       1 <0>        -0.6401
     26 H14        -0.9933   -0.3428   -0.0248 H         1 <0>         0.4397
@<TRIPOS>BOND
     1    1    6 ar
     2    1    2 ar
     3    1   14 1
     4    2    3 ar
     5    2   15 1
     6    3    4 ar
     7    3   16 1
     8    4   11 1
     9    4    5 ar
    10    5    6 ar
    11    5    7 1
    12    6   17 1
    13    7    8 1
    14    7   18 1
    15    7   19 1
    16    8    9 1
    17    8   20 1
    18    8   21 1
    19    9   10 1
    20    9   11 1
    21    9   25 1
    22   11   12 1
    23   11   13 1
    24   13   22 1
    25   23   25 1
    26   24   25 1
    27   25   26 1
@<TRIPOS>MOLECULE
ZINC19798351
   25    26     0     0     0
SMALL
USER_CHARGES
[(3S)-1,2,3,4-tetrahydroisoquinolin-3-yl]methanol
@<TRIPOS>ATOM
      1 C1          2.3738    1.4274   -0.0139 C.ar      1 <0>        -0.1199
      2 C2          1.1643    2.0972    0.0022 C.ar      1 <0>        -0.1213
      3 C3         -0.0167    1.3831    0.0096 C.ar      1 <0>        -0.1163
      4 C4          0.0021   -0.0041    0.0020 C.ar      1 <0>        -0.0800
      5 C5          1.2081   -0.6712   -0.0120 C.ar      1 <0>        -0.0702
      6 C6          2.3943    0.0473   -0.0217 C.ar      1 <0>        -0.1201
      7 C7          1.2794   -2.1767   -0.0145 C.3       1 <0>        -0.0711
      8 C8         -0.0739   -2.7626   -0.4179 C.3       1 <0>         0.0782
      9 H1         -0.2985   -2.5472   -1.4730 H         1 <0>         0.0495
     10 N1         -1.1189   -2.1358    0.4072 N.3       1 <0>        -0.6660
     11 C9         -1.3127   -0.7389    0.0058 C.3       1 <0>         0.0855
     12 C10        -0.0705   -4.2743   -0.1820 C.3       1 <0>         0.0895
     13 O1         -1.3015   -4.8317   -0.6466 O.3       1 <0>        -0.6061
     14 H2          3.3001    1.9827   -0.0207 H         1 <0>         0.1229
     15 H3          1.1438    3.1769    0.0090 H         1 <0>         0.1231
     16 H4         -0.9610    1.9072    0.0169 H         1 <0>         0.1222
     17 H5          3.3390   -0.4759   -0.0351 H         1 <0>         0.1220
     18 H6          2.0452   -2.5063   -0.7320 H         1 <0>         0.0800
     19 H7          1.5428   -2.5330    0.9923 H         1 <0>         0.0872
     20 H8         -2.0650   -2.6817    0.2776 H         1 <0>         0.3565
     21 H9         -2.0008   -0.2555    0.7149 H         1 <0>         0.0912
     22 H10        -1.7494   -0.7144   -1.0035 H         1 <0>         0.0460
     23 H11         0.7679   -4.7290   -0.7301 H         1 <0>         0.0485
     24 H12         0.0412   -4.4774    0.8933 H         1 <0>         0.0543
     25 H13        -1.4829   -5.9132   -0.5601 H         1 <0>         0.4143
@<TRIPOS>BOND
     1    1    6 ar
     2    1    2 ar
     3    1   14 1
     4    2    3 ar
     5    2   15 1
     6    3    4 ar
     7    3   16 1
     8    4   11 1
     9    4    5 ar
    10    5    6 ar
    11    5    7 1
    12    6   17 1
    13    7    8 1
    14    7   18 1
    15    7   19 1
    16    8    9 1
    17    8   10 1
    18    8   12 1
    19   10   11 1
    20   10   20 1
    21   11   21 1
    22   11   22 1
    23   12   13 1
    24   12   23 1
    25   12   24 1
    26   13   25 1
@<TRIPOS>MOLECULE
ZINC19802513
   25    26     0     0     0
SMALL
USER_CHARGES
[(3R)-1,2,3,4-tetrahydroisoquinolin-3-yl]methanol
@<TRIPOS>ATOM
      1 C1         -0.0126    1.0758    0.0080 C.ar      1 <0>        -0.1195
      2 C2          1.1742    1.7851    0.0004 C.ar      1 <0>        -0.1201
      3 C3          1.1503    3.1650    0.0091 C.ar      1 <0>        -0.1130
      4 C4         -0.0586    3.8456    0.0244 C.ar      1 <0>        -0.1170
      5 C5         -1.2413    3.1380    0.0296 C.ar      1 <0>        -0.0814
      6 C6         -1.2162    1.7515    0.0173 C.ar      1 <0>        -0.1170
      7 C7         -2.5788    3.8327    0.0397 C.3       1 <0>        -0.1099
      8 C8         -2.4056    5.2923    0.4607 C.3       1 <0>         0.0762
      9 H1         -2.1069    5.3657    1.5168 H         1 <0>         0.0894
     10 N1         -1.3383    5.8907   -0.3568 N.3       1 <0>        -0.6489
     11 C9         -0.0333    5.3516    0.0387 C.3       1 <0>         0.0846
     12 C10        -3.7143    6.0516    0.2333 C.3       1 <0>         0.0987
     13 O1         -3.5779    7.3904    0.7141 O.3       1 <0>        -0.5886
     14 H2          0.0021   -0.0041    0.0020 H         1 <0>         0.1232
     15 H3          2.1181    1.2604   -0.0118 H         1 <0>         0.1233
     16 H4          2.0778    3.7182    0.0043 H         1 <0>         0.1235
     17 H5         -2.1433    1.1974    0.0193 H         1 <0>         0.1217
     18 H6         -3.0186    3.7960   -0.9679 H         1 <0>         0.0827
     19 H7         -3.2490    3.3276    0.7509 H         1 <0>         0.0838
     20 H8         -1.5161    5.6602   -1.4176 H         1 <0>         0.3375
     21 H9          0.2069    5.7047    1.0524 H         1 <0>         0.0873
     22 H10         0.7307    5.7122   -0.6657 H         1 <0>         0.0903
     23 H11        -3.9455    6.0699   -0.8420 H         1 <0>         0.0427
     24 H12        -4.5289    5.5486    0.7750 H         1 <0>         0.0451
     25 H13        -4.4218    8.0916    0.6357 H         1 <0>         0.4054
@<TRIPOS>BOND
     1    1    6 ar
     2    1    2 ar
     3    1   14 1
     4    2    3 ar
     5    2   15 1
     6    3    4 ar
     7    3   16 1
     8    4   11 1
     9    4    5 ar
    10    5    6 ar
    11    5    7 1
    12    6   17 1
    13    7    8 1
    14    7   18 1
    15    7   19 1
    16    8    9 1
    17    8   10 1
    18    8   12 1
    19   10   11 1
    20   10   20 1
    21   11   21 1
    22   11   22 1
    23   12   13 1
    24   12   23 1
    25   12   24 1
    26   13   25 1
@<TRIPOS>MOLECULE
ZINC14724200
   25    26     0     0     0
SMALL
USER_CHARGES

@<TRIPOS>ATOM
      1 C1         -0.0173    1.4248    0.0099 C.3       1 <0>         0.0271
      2 O1          0.0021   -0.0041    0.0020 O.3       1 <0>        -0.3163
      3 C2         -1.2003   -0.6375    0.0101 C.ar      1 <0>         0.1305
      4 C3         -2.3708    0.1039    0.0195 C.ar      1 <0>        -0.2130
      5 C4         -3.5921   -0.5411    0.0282 C.ar      1 <0>        -0.0792
      6 C5         -3.6414   -1.9213    0.0297 C.ar      1 <0>        -0.1585
      7 C6         -2.4721   -2.6667    0.0210 C.ar      1 <0>        -0.0332
      8 C7         -1.2511   -2.0283    0.0031 C.ar      1 <0>        -0.1114
      9 C8          0.0460   -2.7933   -0.0246 C.3       1 <0>         0.1065
     10 N1         -0.1702   -4.1858    0.3807 N.3       1 <0>        -0.6862
     11 C9         -1.2493   -4.7877   -0.4186 C.3       1 <0>         0.0511
     12 C10        -2.5783   -4.1702    0.0283 C.3       1 <0>        -0.0776
     13 H1          1.0053    1.8021    0.0021 H         1 <0>         0.1012
     14 H2         -0.5445    1.7859   -0.8732 H         1 <0>         0.0556
     15 H3         -0.5275    1.7763    0.9067 H         1 <0>         0.0562
     16 H4         -2.3283    1.1831    0.0203 H         1 <0>         0.1287
     17 H5         -4.5069    0.0328    0.0342 H         1 <0>         0.1257
     18 H6         -4.5974   -2.4237    0.0381 H         1 <0>         0.1241
     19 H7          0.4547   -2.7720   -1.0348 H         1 <0>         0.0430
     20 H8          0.7542   -2.3255    0.6593 H         1 <0>         0.0900
     21 H9          0.6809   -4.7219    0.3010 H         1 <0>         0.3481
     22 H10        -1.0797   -4.5832   -1.4757 H         1 <0>         0.0382
     23 H11        -1.2730   -5.8643   -0.2501 H         1 <0>         0.0815
     24 H12        -2.8273   -4.5105    1.0334 H         1 <0>         0.0881
     25 H13        -3.3626   -4.4809   -0.6620 H         1 <0>         0.0800
@<TRIPOS>BOND
     1    1    2 1
     2    1   13 1
     3    1   14 1
     4    1   15 1
     5    2    3 1
     6    3    8 ar
     7    3    4 ar
     8    4    5 ar
     9    4   16 1
    10    5    6 ar
    11    5   17 1
    12    6    7 ar
    13    6   18 1
    14    7   12 1
    15    7    8 ar
    16    8    9 1
    17    9   10 1
    18    9   19 1
    19    9   20 1
    20   10   11 1
    21   10   21 1
    22   11   12 1
    23   11   22 1
    24   11   23 1
    25   12   24 1
    26   12   25 1
@<TRIPOS>MOLECULE
ZINC01433196
   25    26     0     0     0
SMALL
USER_CHARGES
(4R)-4-fluoro-2,3,4,5-tetrahydro-1H-2-benzazepine
@<TRIPOS>ATOM
      1 C1         -0.0126    1.0758    0.0080 C.ar      1 <0>        -0.0802
      2 C2          1.1755    1.7828    0.0004 C.ar      1 <0>        -0.1116
      3 C3          1.1597    3.1657    0.0100 C.ar      1 <0>        -0.0834
      4 C4         -0.0504    3.8358    0.0257 C.ar      1 <0>        -0.1610
      5 C5         -1.2297    3.1332    0.0305 C.ar      1 <0>        -0.0698
      6 C6         -1.2200    1.7506    0.0174 C.ar      1 <0>        -0.1055
      7 C7         -2.5481    3.8778    0.0433 C.3       1 <0>        -0.1239
      8 C8         -2.7176    4.5713   -1.3129 C.3       1 <0>         0.0925
      9 H1         -2.3008    3.9368   -2.0950 H         1 <0>         0.1052
     10 C9         -2.0065    5.9091   -1.3239 C.3       1 <0>        -0.0414
     11 C10        -0.0694    5.3502    0.0401 C.3       1 <0>         0.0474
     12 F1         -4.0798    4.7716   -1.5607 F         1 <0>        -0.1752
     13 H2          0.0021   -0.0041    0.0020 H         1 <0>         0.1390
     14 H3          2.1173    1.2545   -0.0127 H         1 <0>         0.1386
     15 H4          2.0869    3.7194    0.0057 H         1 <0>         0.1374
     16 H5         -2.1496    1.2008    0.0185 H         1 <0>         0.1388
     17 H6         -2.5423    4.6226    0.8392 H         1 <0>         0.0992
     18 H7         -3.3665    3.1757    0.2024 H         1 <0>         0.1130
     19 H8         -2.3543    6.4918   -0.4710 H         1 <0>         0.1411
     20 H9         -2.2832    6.4394   -2.2351 H         1 <0>         0.1427
     21 H10        -0.7355    5.7005    0.8285 H         1 <0>         0.1401
     22 H11         0.9384    5.7272    0.2144 H         1 <0>         0.1432
     23 N1         -0.5415    5.8297   -1.2801 N.4       1 <0>        -0.5069
     24 H12        -0.1503    6.7623   -1.4571 H         1 <0>         0.4447
     25 H13        -0.2196    5.1799   -2.0071 H         1 <0>         0.4357
@<TRIPOS>BOND
     1    1    6 ar
     2    1    2 ar
     3    1   13 1
     4    2    3 ar
     5    2   14 1
     6    3    4 ar
     7    3   15 1
     8    4   11 1
     9    4    5 ar
    10    5    6 ar
    11    5    7 1
    12    6   16 1
    13    7    8 1
    14    7   17 1
    15    7   18 1
    16    8    9 1
    17    8   10 1
    18    8   12 1
    19   10   19 1
    20   10   20 1
    21   10   23 1
    22   11   21 1
    23   11   22 1
    24   11   23 1
    25   23   24 1
    26   23   25 1
@<TRIPOS>MOLECULE
ZINC01433197
   25    26     0     0     0
SMALL
USER_CHARGES
(4S)-4-fluoro-2,3,4,5-tetrahydro-1H-2-benzazepine
@<TRIPOS>ATOM
      1 C1          2.3794    1.3987   -0.0128 C.ar      1 <0>        -0.0802
      2 C2          1.1760    2.0792    0.0020 C.ar      1 <0>        -0.1116
      3 C3         -0.0167    1.3791    0.0096 C.ar      1 <0>        -0.0835
      4 C4          0.0021   -0.0041    0.0020 C.ar      1 <0>        -0.1610
      5 C5          1.1974   -0.6791   -0.0106 C.ar      1 <0>        -0.0699
      6 C6          2.3928    0.0155   -0.0189 C.ar      1 <0>        -0.1053
      7 C7          1.2048   -2.1934   -0.0148 C.3       1 <0>        -0.1239
      8 C8          0.6990   -2.6772    1.3486 C.3       1 <0>         0.0925
      9 H1          1.0500   -1.9961    2.1239 H         1 <0>         0.1052
     10 C9         -0.8151   -2.7237    1.3736 C.3       1 <0>        -0.0414
     11 C10        -1.3034   -0.7720    0.0035 C.3       1 <0>         0.0474
     12 F1          1.2034   -3.9578    1.5990 F         1 <0>        -0.1752
     13 H2          3.3096    1.9474   -0.0195 H         1 <0>         0.1390
     14 H3          1.1673    3.1592    0.0077 H         1 <0>         0.1386
     15 H4         -0.9575    1.9093    0.0170 H         1 <0>         0.1374
     16 H5          3.3314   -0.5186   -0.0298 H         1 <0>         0.1389
     17 H6          0.5483   -2.5623   -0.8028 H         1 <0>         0.0993
     18 H7          2.2193   -2.5558   -0.1807 H         1 <0>         0.1130
     19 H8         -1.1561   -3.3194    0.5268 H         1 <0>         0.1411
     20 H9         -1.1299   -3.2222    2.2903 H         1 <0>         0.1427
     21 H10        -2.1323   -0.0850   -0.1672 H         1 <0>         0.1433
     22 H11        -1.2840   -1.5284   -0.7811 H         1 <0>         0.1401
     23 N1         -1.4736   -1.4127    1.3287 N.4       1 <0>        -0.5068
     24 H12        -1.0628   -0.8069    2.0488 H         1 <0>         0.4357
     25 H13        -2.4758   -1.5349    1.5153 H         1 <0>         0.4447
@<TRIPOS>BOND
     1    1    6 ar
     2    1    2 ar
     3    1   13 1
     4    2    3 ar
     5    2   14 1
     6    3    4 ar
     7    3   15 1
     8    4   11 1
     9    4    5 ar
    10    5    6 ar
    11    5    7 1
    12    6   16 1
    13    7    8 1
    14    7   17 1
    15    7   18 1
    16    8    9 1
    17    8   10 1
    18    8   12 1
    19   10   19 1
    20   10   20 1
    21   10   23 1
    22   11   21 1
    23   11   22 1
    24   11   23 1
    25   23   24 1
    26   23   25 1
