@<TRIPOS>MOLECULE
ZINC13517759
   24    25     0     0     0
SMALL
USER_CHARGES
(3R)-7-bromo-3-(trifluoromethyl)-1,2,3,4-tetrahydroisoquinoline
@<TRIPOS>ATOM
      1 C1          1.2109   -0.6760   -0.0136 C.ar      1 <0>        -0.0872
      2 C2          2.3929    0.0374   -0.0195 C.ar      1 <0>        -0.1088
      3 C3          2.3747    1.4237   -0.0099 C.ar      1 <0>        -0.0523
      4 C4          1.1701    2.0945    0.0021 C.ar      1 <0>        -0.0779
      5 C5         -0.0167    1.3773    0.0096 C.ar      1 <0>        -0.0830
      6 C6          0.0021   -0.0041    0.0020 C.ar      1 <0>        -0.0896
      7 Br1        -1.6212   -0.9739    0.0136 Br        1 <0>        -0.0450
      8 C7          1.0985    3.5990    0.0019 C.3       1 <0>         0.0911
      9 N1          2.3845    4.1740    0.4091 N.3       1 <0>        -0.6595
     10 C8          3.4733    3.6181   -0.4100 C.3       1 <0>         0.0313
     11 H1          3.1767    3.6924   -1.4667 H         1 <0>         0.0916
     12 C9          3.6899    2.1598   -0.0063 C.3       1 <0>        -0.0783
     13 C10         4.7557    4.4178   -0.1714 C.3       1 <0>         0.4603
     14 F1          5.1070    4.3432    1.1807 F         1 <0>        -0.1691
     15 F2          5.7884    3.8867   -0.9515 F         1 <0>        -0.1778
     16 F3          4.5442    5.7547   -0.5253 F         1 <0>        -0.1818
     17 H2          1.2301   -1.7558   -0.0208 H         1 <0>         0.1363
     18 H3          3.3368   -0.4873   -0.0320 H         1 <0>         0.1356
     19 H4         -0.9609    1.9015    0.0169 H         1 <0>         0.1354
     20 H5          0.8524    3.9542   -1.0097 H         1 <0>         0.0589
     21 H6          0.3204    3.9292    0.7058 H         1 <0>         0.1062
     22 H7          2.3564    5.2656    0.2768 H         1 <0>         0.3616
     23 H8          4.1271    2.1245    1.0025 H         1 <0>         0.1043
     24 H9          4.3780    1.6846   -0.7210 H         1 <0>         0.0976
@<TRIPOS>BOND
     1    1    6 ar
     2    1    2 ar
     3    1   17 1
     4    2    3 ar
     5    2   18 1
     6    3   12 1
     7    3    4 ar
     8    4    5 ar
     9    4    8 1
    10    5    6 ar
    11    5   19 1
    12    6    7 1
    13    8    9 1
    14    8   20 1
    15    8   21 1
    16    9   10 1
    17    9   22 1
    18   10   11 1
    19   10   12 1
    20   10   13 1
    21   12   23 1
    22   12   24 1
    23   13   14 1
    24   13   15 1
    25   13   16 1
@<TRIPOS>MOLECULE
ZINC26985028
   24    25     0     0     0
SMALL
USER_CHARGES
(3S)-7-bromo-3-(trifluoromethyl)-1,2,3,4-tetrahydroisoquinoline
@<TRIPOS>ATOM
      1 C1         -2.0810    5.7258    3.9462 C.ar      1 <0>        -0.0872
      2 C2         -1.6393    5.2301    2.7358 C.ar      1 <0>        -0.1054
      3 C3         -1.2256    3.9112    2.6275 C.ar      1 <0>        -0.0640
      4 C4         -1.2578    3.0885    3.7336 C.ar      1 <0>        -0.1143
      5 C5         -1.7001    3.5876    4.9494 C.ar      1 <0>        -0.0799
      6 C6         -2.1108    4.9022    5.0570 C.ar      1 <0>        -0.0885
      7 Br1        -2.7117    5.5744    6.7192 Br        1 <0>        -0.0437
      8 C7         -0.8243    1.6476    3.6651 C.3       1 <0>         0.0910
      9 N1         -0.0187    1.4104    2.4631 N.3       1 <0>        -0.6526
     10 C8         -0.7330    1.8882    1.2685 C.3       1 <0>         0.0317
     11 H1         -1.7560    1.4854    1.3026 H         1 <0>         0.1290
     12 C9         -0.7473    3.4170    1.2855 C.3       1 <0>        -0.1181
     13 C10        -0.0169    1.3948    0.0097 C.3       1 <0>         0.4649
     14 F1          0.0021   -0.0041    0.0020 F         1 <0>        -0.1710
     15 F2          1.2956    1.8790   -0.0002 F         1 <0>        -0.1810
     16 F3         -0.6935    1.8582   -1.1237 F         1 <0>        -0.1808
     17 H2         -2.4027    6.7537    4.0255 H         1 <0>         0.1365
     18 H3         -1.6166    5.8729    1.8682 H         1 <0>         0.1352
     19 H4         -1.7240    2.9449    5.8170 H         1 <0>         0.1367
     20 H5         -0.2223    1.4032    4.5527 H         1 <0>         0.1047
     21 H6         -1.7120    0.9987    3.6341 H         1 <0>         0.0983
     22 H7          0.9367    1.9486    2.5500 H         1 <0>         0.3575
     23 H8         -1.4231    3.7822    0.4982 H         1 <0>         0.1015
     24 H9          0.2699    3.7913    1.0982 H         1 <0>         0.0996
@<TRIPOS>BOND
     1    1    6 ar
     2    1    2 ar
     3    1   17 1
     4    2    3 ar
     5    2   18 1
     6    3   12 1
     7    3    4 ar
     8    4    5 ar
     9    4    8 1
    10    5    6 ar
    11    5   19 1
    12    6    7 1
    13    8    9 1
    14    8   20 1
    15    8   21 1
    16    9   10 1
    17    9   22 1
    18   10   11 1
    19   10   12 1
    20   10   13 1
    21   12   23 1
    22   12   24 1
    23   13   14 1
    24   13   15 1
    25   13   16 1
@<TRIPOS>MOLECULE
ZINC00164422
   18    18     0     0     0
SMALL
USER_CHARGES
(3-chlorophenyl)methanamine
@<TRIPOS>ATOM
      1 C1          1.1746    1.7831    0.0004 C.ar      1 <0>        -0.0998
      2 C2          1.1560    3.1656    0.0081 C.ar      1 <0>        -0.0901
      3 C3         -0.0498    3.8410    0.0228 C.ar      1 <0>        -0.1609
      4 C4         -1.2380    3.1346    0.0299 C.ar      1 <0>        -0.0873
      5 C5         -1.2201    1.7515    0.0174 C.ar      1 <0>        -0.0366
      6 C6         -0.0126    1.0758    0.0080 C.ar      1 <0>        -0.0747
      7 Cl1        -2.7119    0.8636    0.0190 Cl        1 <0>        -0.0390
      8 C7         -0.0692    5.3479    0.0306 C.3       1 <0>         0.0533
      9 H1          2.1171    1.2559   -0.0118 H         1 <0>         0.1472
     10 H2          2.0841    3.7180    0.0022 H         1 <0>         0.1396
     11 H3         -2.1802    3.6625    0.0414 H         1 <0>         0.1432
     12 H4          0.0021   -0.0041    0.0020 H         1 <0>         0.1476
     13 H5         -0.9589    5.6971    0.5546 H         1 <0>         0.1434
     14 H6          0.8208    5.7201    0.5380 H         1 <0>         0.1419
     15 H7         -0.8698    5.4616   -1.8627 H         1 <0>         0.4373
     16 H8         -0.1017    6.8532   -1.3734 H         1 <0>         0.4414
     17 N1         -0.0664    5.8353   -1.3600 N.4       1 <0>        -0.6461
     18 H9          0.7943    5.5237   -1.8251 H         1 <0>         0.4393
@<TRIPOS>BOND
     1    1    6 ar
     2    1    2 ar
     3    1    9 1
     4    2    3 ar
     5    2   10 1
     6    3    4 ar
     7    3    8 1
     8    4    5 ar
     9    4   11 1
    10    5    6 ar
    11    5    7 1
    12    6   12 1
    13    8   13 1
    14    8   14 1
    15    8   17 1
    16   15   17 1
    17   16   17 1
    18   17   18 1
@<TRIPOS>MOLECULE
ZINC00404005
   18    18     0     0     0
SMALL
USER_CHARGES
(2,3-dichlorophenyl)methanamine
@<TRIPOS>ATOM
      1 C1         -0.0125    5.1301   -1.9323 C.ar      1 <0>        -0.0924
      2 C2         -0.0149    3.7479   -1.9693 C.ar      1 <0>        -0.0702
      3 C3         -0.7931    3.0333   -1.0784 C.ar      1 <0>        -0.1499
      4 C4         -1.5744    3.7011   -0.1523 C.ar      1 <0>        -0.0285
      5 C5         -1.5680    5.0849   -0.1118 C.ar      1 <0>        -0.0292
      6 C6         -0.7884    5.7986   -1.0044 C.ar      1 <0>        -0.0643
      7 Cl1        -2.5428    5.9242    1.0540 Cl        1 <0>        -0.0161
      8 Cl2        -2.5576    2.8041    0.9624 Cl        1 <0>        -0.0334
      9 C7         -0.7955    1.5269   -1.1198 C.3       1 <0>         0.0489
     10 H1          0.5963    5.6875   -2.6287 H         1 <0>         0.1556
     11 H2          0.5920    3.2264   -2.6946 H         1 <0>         0.1526
     12 H3         -0.7858    6.8782   -0.9758 H         1 <0>         0.1578
     13 H4         -0.3538    1.1885   -2.0571 H         1 <0>         0.1546
     14 H5         -1.8205    1.1631   -1.0490 H         1 <0>         0.1435
     15 H6          0.0021   -0.0041    0.0020 H         1 <0>         0.4445
     16 H7          0.9253    1.3792    0.0006 H         1 <0>         0.4398
     17 N1         -0.0252    1.0139    0.0269 N.4       1 <0>        -0.6466
     18 H8         -0.4761    1.3157    0.8986 H         1 <0>         0.4333
@<TRIPOS>BOND
     1    1    6 ar
     2    1    2 ar
     3    1   10 1
     4    2    3 ar
     5    2   11 1
     6    3    4 ar
     7    3    9 1
     8    4    5 ar
     9    4    8 1
    10    5    6 ar
    11    5    7 1
    12    6   12 1
    13    9   13 1
    14    9   14 1
    15    9   17 1
    16   15   17 1
    17   16   17 1
    18   17   18 1
@<TRIPOS>MOLECULE
ZINC19230109
   20    21     0     0     0
SMALL
USER_CHARGES

@<TRIPOS>ATOM
      1 C1         -0.0166    1.3749    0.0096 C.ar      1 <0>        -0.1507
      2 C2          1.1734    2.0789    0.0020 C.ar      1 <0>        -0.1416
      3 C3          2.3718    1.3959   -0.0189 C.ar      1 <0>        -0.1404
      4 C4          2.3918    0.0077   -0.0285 C.ar      1 <0>        -0.0683
      5 C5          1.2080   -0.6948   -0.0112 C.ar      1 <0>        -0.0565
      6 C6          0.0021   -0.0041    0.0020 C.ar      1 <0>        -0.1384
      7 C7          1.1511   -2.1995    0.0103 C.3       1 <0>        -0.0997
      8 C8          2.4654   -2.8008   -0.4851 C.3       1 <0>         0.1078
      9 N1          3.5680   -2.1086    0.2022 N.2       1 <0>        -0.9306
     10 C9          3.7354   -0.6763   -0.0660 C.3       1 <0>         0.1384
     11 H1         -0.9583    1.9035    0.0259 H         1 <0>         0.1053
     12 H2          1.1647    3.1588    0.0128 H         1 <0>         0.1053
     13 H3          3.3016    1.9453   -0.0281 H         1 <0>         0.1074
     14 H4         -0.9286   -0.5520    0.0067 H         1 <0>         0.1048
     15 H5          0.9645   -2.5367    1.0299 H         1 <0>         0.0535
     16 H6          0.3379   -2.5367   -0.6324 H         1 <0>         0.0266
     17 H7          2.4953   -3.8650   -0.2511 H         1 <0>         0.0223
     18 H8          2.5539   -2.6568   -1.5619 H         1 <0>        -0.0437
     19 H9          4.1837   -0.5415   -1.0504 H         1 <0>        -0.0302
     20 H10         4.3862   -0.2391    0.6912 H         1 <0>         0.0286
@<TRIPOS>BOND
     1    1    6 ar
     2    1    2 ar
     3    1   11 1
     4    2    3 ar
     5    2   12 1
     6    3    4 ar
     7    3   13 1
     8    4   10 1
     9    4    5 ar
    10    5    6 ar
    11    5    7 1
    12    6   14 1
    13    7    8 1
    14    7   15 1
    15    7   16 1
    16    8    9 1
    17    8   17 1
    18    8   18 1
    19    9   10 1
    20   10   19 1
    21   10   20 1
@<TRIPOS>MOLECULE
ZINC27556078
   21    22     0     0     0
SMALL
USER_CHARGES
8-chloro-1,2,3,4-tetrahydroisoquinoline
@<TRIPOS>ATOM
      1 C1          1.1760    1.7786    0.0004 C.ar      1 <0>        -0.1067
      2 C2         -0.0126    1.0758    0.0080 C.ar      1 <0>        -0.1163
      3 C3         -1.2247    1.7487    0.0174 C.ar      1 <0>        -0.0587
      4 C4         -1.2444    3.1270    0.0338 C.ar      1 <0>        -0.0723
      5 C5         -0.0491    3.8325    0.0254 C.ar      1 <0>        -0.0327
      6 C6          1.1581    3.1604    0.0081 C.ar      1 <0>        -0.1133
      7 Cl1        -0.0708    5.5683    0.0360 Cl        1 <0>        -0.0669
      8 C7         -2.5350    3.9033    0.0582 C.3       1 <0>         0.0833
      9 N1         -3.6554    3.0494   -0.3489 N.3       1 <0>        -0.6690
     10 C8         -3.6729    1.8152    0.4522 C.3       1 <0>         0.0407
     11 C9         -2.4963    0.9395    0.0204 C.3       1 <0>        -0.0792
     12 H1          2.1175    1.2495   -0.0112 H         1 <0>         0.1336
     13 H2          0.0021   -0.0041    0.0020 H         1 <0>         0.1295
     14 H3          2.0855    3.7137    0.0003 H         1 <0>         0.1347
     15 H4         -2.7204    4.2745    1.0769 H         1 <0>         0.0514
     16 H5         -2.4641    4.7545   -0.6350 H         1 <0>         0.0965
     17 H6         -4.6017    3.5894   -0.1978 H         1 <0>         0.3507
     18 H7         -3.5805    2.0689    1.5185 H         1 <0>         0.0376
     19 H8         -4.6198    1.2816    0.2830 H         1 <0>         0.0854
     20 H9         -2.6863    0.5514   -0.9912 H         1 <0>         0.0890
     21 H10        -2.3943    0.0988    0.7224 H         1 <0>         0.0828
@<TRIPOS>BOND
     1    1    6 ar
     2    1    2 ar
     3    1   12 1
     4    2    3 ar
     5    2   13 1
     6    3   11 1
     7    3    4 ar
     8    4    5 ar
     9    4    8 1
    10    5    6 ar
    11    5    7 1
    12    6   14 1
    13    8    9 1
    14    8   15 1
    15    8   16 1
    16    9   10 1
    17    9   17 1
    18   10   11 1
    19   10   18 1
    20   10   19 1
    21   11   20 1
    22   11   21 1
@<TRIPOS>MOLECULE
ZINC16082963
   21    22     0     0     0
SMALL
USER_CHARGES
7-chloro-1,2,3,4-tetrahydroisoquinoline
@<TRIPOS>ATOM
      1 C1          1.3437    5.8192   -0.2396 C.ar      1 <0>        -0.1098
      2 C2          0.2064    5.1153   -0.5816 C.ar      1 <0>        -0.1079
      3 C3          0.1902    3.7309   -0.5077 C.ar      1 <0>        -0.0654
      4 C4          1.3167    3.0520   -0.0936 C.ar      1 <0>        -0.0689
      5 C5          2.4585    3.7595    0.2508 C.ar      1 <0>        -0.1069
      6 C6          2.4735    5.1393    0.1788 C.ar      1 <0>        -0.0364
      7 Cl1         3.9069    6.0176    0.6119 Cl        1 <0>        -0.0689
      8 C7          1.3500    1.5489   -0.0025 C.3       1 <0>         0.0854
      9 N1         -0.0116    1.0048    0.0076 N.3       1 <0>        -0.6701
     10 C8         -0.7779    1.5281   -1.1346 C.3       1 <0>         0.0416
     11 C9         -1.0771    3.0061   -0.8821 C.3       1 <0>        -0.0806
     12 H1          1.3515    6.8975   -0.2989 H         1 <0>         0.1344
     13 H2         -0.6757    5.6460   -0.9082 H         1 <0>         0.1327
     14 H3          3.3407    3.2292    0.5775 H         1 <0>         0.1334
     15 H4          1.8914    1.1410   -0.8688 H         1 <0>         0.0503
     16 H5          1.8615    1.2489    0.9240 H         1 <0>         0.0937
     17 H6          0.0314   -0.0922   -0.0607 H         1 <0>         0.3505
     18 H7         -0.1860    1.4169   -2.0551 H         1 <0>         0.0377
     19 H8         -1.7184    0.9663   -1.2334 H         1 <0>         0.0848
     20 H9         -1.8053    3.0934   -0.0622 H         1 <0>         0.0885
     21 H10        -1.4982    3.4516   -1.7954 H         1 <0>         0.0819
@<TRIPOS>BOND
     1    1    6 ar
     2    1    2 ar
     3    1   12 1
     4    2    3 ar
     5    2   13 1
     6    3   11 1
     7    3    4 ar
     8    4    5 ar
     9    4    8 1
    10    5    6 ar
    11    5   14 1
    12    6    7 1
    13    8    9 1
    14    8   15 1
    15    8   16 1
    16    9   10 1
    17    9   17 1
    18   10   11 1
    19   10   18 1
    20   10   19 1
    21   11   20 1
    22   11   21 1
@<TRIPOS>MOLECULE
ZINC13686917
   26    27     0     0     0
SMALL
USER_CHARGES
(3S)-3-(difluoromethyl)-7-nitro-1,2,3,4-tetrahydroisoquinoline
@<TRIPOS>ATOM
      1 C1         -0.0166    1.3766    0.0096 C.ar      1 <0>        -0.0530
      2 C2          0.0021   -0.0041    0.0020 C.ar      1 <0>        -0.1118
      3 C3          1.2078   -0.6881   -0.0118 C.ar      1 <0>        -0.0260
      4 C4          2.3948    0.0132   -0.0171 C.ar      1 <0>        -0.1196
      5 C5          2.3742    1.4000   -0.0118 C.ar      1 <0>        -0.0443
      6 C6          1.1730    2.0803    0.0020 C.ar      1 <0>        -0.0435
      7 N1          1.1590    3.5604    0.0087 N.pl3     1 <0>         0.0263
      8 O1          0.0986    4.1594    0.0209 O.2       1 <0>        -0.1556
      9 O2          2.2080    4.1793    0.0020 O.3       1 <0>        -0.1560
     10 C7          3.7299   -0.6841   -0.0259 C.3       1 <0>         0.0899
     11 N2          3.5762   -2.0820   -0.4410 N.3       1 <0>        -0.6541
     12 C8          2.5481   -2.7460    0.3762 C.3       1 <0>         0.0323
     13 H1          2.7648   -2.5342    1.4337 H         1 <0>         0.1184
     14 C9          1.1793   -2.1950   -0.0242 C.3       1 <0>        -0.1258
     15 C10         2.5881   -4.2549    0.1261 C.3       1 <0>         0.2735
     16 F1          1.5948   -4.8803    0.8873 F         1 <0>        -0.2050
     17 F2          2.3642   -4.5086   -1.2314 F         1 <0>        -0.2049
     18 H2         -0.9584    1.9052    0.0170 H         1 <0>         0.1567
     19 H3         -0.9275   -0.5539    0.0065 H         1 <0>         0.1499
     20 H4          3.3032    1.9508   -0.0186 H         1 <0>         0.1567
     21 H5          4.4050   -0.1746   -0.7292 H         1 <0>         0.1066
     22 H6          4.1644   -0.6570    0.9843 H         1 <0>         0.1017
     23 H7          3.2748   -2.1195   -1.4982 H         1 <0>         0.3572
     24 H8          0.4219   -2.5533    0.6885 H         1 <0>         0.1039
     25 H9          0.9279   -2.5487   -1.0350 H         1 <0>         0.1040
     26 H10         3.5431   -4.7333    0.3891 H         1 <0>         0.1227
@<TRIPOS>BOND
     1    1    6 ar
     2    1    2 ar
     3    1   18 1
     4    2    3 ar
     5    2   19 1
     6    3   14 1
     7    3    4 ar
     8    4    5 ar
     9    4   10 1
    10    5    6 ar
    11    5   20 1
    12    6    7 1
    13    7    8 2
    14    7    9 1
    15   10   11 1
    16   10   21 1
    17   10   22 1
    18   11   12 1
    19   11   23 1
    20   12   13 1
    21   12   14 1
    22   12   15 1
    23   14   24 1
    24   14   25 1
    25   15   16 1
    26   15   17 1
    27   15   26 1
@<TRIPOS>MOLECULE
ZINC13686921
   26    27     0     0     0
SMALL
USER_CHARGES
(3R)-3-(difluoromethyl)-7-nitro-1,2,3,4-tetrahydroisoquinoline
@<TRIPOS>ATOM
      1 C1          1.1724    2.0810    0.0020 C.ar      1 <0>        -0.0526
      2 C2          2.3738    1.4007   -0.0150 C.ar      1 <0>        -0.1152
      3 C3          2.3937    0.0146   -0.0245 C.ar      1 <0>        -0.0143
      4 C4          1.2080   -0.6890   -0.0128 C.ar      1 <0>        -0.0827
      5 C5          0.0021   -0.0041    0.0020 C.ar      1 <0>        -0.0474
      6 C6         -0.0166    1.3764    0.0096 C.ar      1 <0>        -0.0450
      7 N1         -1.3076    2.1004    0.0197 N.pl3     1 <0>         0.0275
      8 O1         -2.3548    1.4783    0.0213 O.2       1 <0>        -0.1581
      9 O2         -1.3228    3.3183    0.0264 O.3       1 <0>        -0.1562
     10 C7          1.1775   -2.1949   -0.0094 C.3       1 <0>         0.0901
     11 N2          2.4714   -2.7356   -0.4378 N.3       1 <0>        -0.6593
     12 C8          3.5592   -2.1476    0.3600 C.3       1 <0>         0.0297
     13 H1          3.2843   -2.2286    1.4220 H         1 <0>         0.0808
     14 C9          3.7282   -0.6852   -0.0528 C.3       1 <0>        -0.0854
     15 C10         4.8596   -2.9096    0.0965 C.3       1 <0>         0.2698
     16 F1          5.2308   -2.7493   -1.2428 F         1 <0>        -0.1954
     17 F2          5.8700   -2.4078    0.9238 F         1 <0>        -0.2032
     18 H2          1.1618    3.1610    0.0091 H         1 <0>         0.1566
     19 H3          3.3029    1.9513   -0.0210 H         1 <0>         0.1503
     20 H4         -0.9276   -0.5537    0.0073 H         1 <0>         0.1555
     21 H5          0.9585   -2.5549    1.0067 H         1 <0>         0.0620
     22 H6          0.3968   -2.5474   -0.6995 H         1 <0>         0.1080
     23 H7          2.4757   -3.8272   -0.3020 H         1 <0>         0.3593
     24 H8          4.1435   -0.6416   -1.0704 H         1 <0>         0.1098
     25 H9          4.4175   -0.1888    0.6461 H         1 <0>         0.0997
     26 H10         4.7979   -3.9915    0.2853 H         1 <0>         0.1157
@<TRIPOS>BOND
     1    1    6 ar
     2    1    2 ar
     3    1   18 1
     4    2    3 ar
     5    2   19 1
     6    3   14 1
     7    3    4 ar
     8    4    5 ar
     9    4   10 1
    10    5    6 ar
    11    5   20 1
    12    6    7 1
    13    7    8 2
    14    7    9 1
    15   10   11 1
    16   10   21 1
    17   10   22 1
    18   11   12 1
    19   11   23 1
    20   12   13 1
    21   12   14 1
    22   12   15 1
    23   14   24 1
    24   14   25 1
    25   15   16 1
    26   15   17 1
    27   15   26 1
@<TRIPOS>MOLECULE
ZINC28529465
   24    25     0     0     0
SMALL
USER_CHARGES
(3S)-7-chloro-3-(trifluoromethyl)-1,2,3,4-tetrahydroisoquinoline
@<TRIPOS>ATOM
      1 C1         -2.0806    5.7261    3.9461 C.ar      1 <0>        -0.1066
      2 C2         -1.6393    5.2301    2.7357 C.ar      1 <0>        -0.0987
      3 C3         -1.2256    3.9112    2.6275 C.ar      1 <0>        -0.0753
      4 C4         -1.2578    3.0885    3.7336 C.ar      1 <0>        -0.1075
      5 C5         -1.7001    3.5875    4.9494 C.ar      1 <0>        -0.1004
      6 C6         -2.1105    4.9025    5.0571 C.ar      1 <0>        -0.0321
      7 Cl1        -2.6617    5.5198    6.5832 Cl        1 <0>        -0.0635
      8 C7         -0.8243    1.6476    3.6651 C.3       1 <0>         0.0908
      9 N1         -0.0187    1.4104    2.4631 N.3       1 <0>        -0.6527
     10 C8         -0.7330    1.8882    1.2685 C.3       1 <0>         0.0316
     11 H1         -1.7560    1.4854    1.3026 H         1 <0>         0.1289
     12 C9         -0.7473    3.4170    1.2855 C.3       1 <0>        -0.1165
     13 C10        -0.0169    1.3948    0.0097 C.3       1 <0>         0.4649
     14 F1          0.0021   -0.0041    0.0020 F         1 <0>        -0.1711
     15 F2          1.2956    1.8790   -0.0002 F         1 <0>        -0.1811
     16 F3         -0.6935    1.8582   -1.1237 F         1 <0>        -0.1808
     17 H2         -2.4020    6.7541    4.0253 H         1 <0>         0.1372
     18 H3         -1.6162    5.8730    1.8682 H         1 <0>         0.1354
     19 H4         -1.7237    2.9448    5.8171 H         1 <0>         0.1374
     20 H5         -0.2223    1.4032    4.5527 H         1 <0>         0.1048
     21 H6         -1.7120    0.9987    3.6341 H         1 <0>         0.0985
     22 H7          0.9367    1.9486    2.5500 H         1 <0>         0.3575
     23 H8         -1.4231    3.7822    0.4982 H         1 <0>         0.1007
     24 H9          0.2699    3.7913    1.0982 H         1 <0>         0.0987
@<TRIPOS>BOND
     1    1    6 ar
     2    1    2 ar
     3    1   17 1
     4    2    3 ar
     5    2   18 1
     6    3   12 1
     7    3    4 ar
     8    4    5 ar
     9    4    8 1
    10    5    6 ar
    11    5   19 1
    12    6    7 1
    13    8    9 1
    14    8   20 1
    15    8   21 1
    16    9   10 1
    17    9   22 1
    18   10   11 1
    19   10   12 1
    20   10   13 1
    21   12   23 1
    22   12   24 1
    23   13   14 1
    24   13   15 1
    25   13   16 1
@<TRIPOS>MOLECULE
ZINC28529467
   24    25     0     0     0
SMALL
USER_CHARGES
(3R)-7-chloro-3-(trifluoromethyl)-1,2,3,4-tetrahydroisoquinoline
@<TRIPOS>ATOM
      1 C1          1.2112   -0.6760   -0.0136 C.ar      1 <0>        -0.1065
      2 C2          2.3930    0.0376   -0.0194 C.ar      1 <0>        -0.1020
      3 C3          2.3747    1.4239   -0.0093 C.ar      1 <0>        -0.0636
      4 C4          1.1701    2.0947    0.0021 C.ar      1 <0>        -0.0712
      5 C5         -0.0167    1.3775    0.0096 C.ar      1 <0>        -0.1035
      6 C6          0.0021   -0.0041    0.0020 C.ar      1 <0>        -0.0332
      7 Cl1        -1.4881   -0.8945    0.0126 Cl        1 <0>        -0.0648
      8 C7          1.0985    3.5993    0.0018 C.3       1 <0>         0.0910
      9 N1          2.3844    4.1742    0.4090 N.3       1 <0>        -0.6595
     10 C8          3.4733    3.6183   -0.4100 C.3       1 <0>         0.0313
     11 H1          3.1770    3.6924   -1.4668 H         1 <0>         0.0916
     12 C9          3.6899    2.1600   -0.0051 C.3       1 <0>        -0.0767
     13 C10         4.7556    4.4181   -0.1714 C.3       1 <0>         0.4603
     14 F1          5.1069    4.3436    1.1807 F         1 <0>        -0.1691
     15 F2          5.7884    3.8869   -0.9515 F         1 <0>        -0.1780
     16 F3          4.5441    5.7549   -0.5254 F         1 <0>        -0.1819
     17 H2          1.2306   -1.7558   -0.0208 H         1 <0>         0.1370
     18 H3          3.3370   -0.4870   -0.0322 H         1 <0>         0.1358
     19 H4         -0.9609    1.9018    0.0169 H         1 <0>         0.1361
     20 H5          0.8524    3.9544   -1.0098 H         1 <0>         0.0591
     21 H6          0.3204    3.9295    0.7057 H         1 <0>         0.1063
     22 H7          2.3563    5.2658    0.2767 H         1 <0>         0.3614
     23 H8          4.1263    2.1253    1.0040 H         1 <0>         0.1033
     24 H9          4.3786    1.6844   -0.7189 H         1 <0>         0.0968
@<TRIPOS>BOND
     1    1    6 ar
     2    1    2 ar
     3    1   17 1
     4    2    3 ar
     5    2   18 1
     6    3   12 1
     7    3    4 ar
     8    4    5 ar
     9    4    8 1
    10    5    6 ar
    11    5   19 1
    12    6    7 1
    13    8    9 1
    14    8   20 1
    15    8   21 1
    16    9   10 1
    17    9   22 1
    18   10   11 1
    19   10   12 1
    20   10   13 1
    21   12   23 1
    22   12   24 1
    23   13   14 1
    24   13   15 1
    25   13   16 1
@<TRIPOS>MOLECULE
ZINC13686849
   24    25     0     0     0
SMALL
USER_CHARGES
(3R)-7-bromo-3-methyl-1,2,3,4-tetrahydroisoquinoline
@<TRIPOS>ATOM
      1 C1          4.7599    4.4131    0.1282 C.3       1 <0>        -0.1492
      2 C2          3.4811    3.6138    0.3865 C.3       1 <0>         0.0710
      3 H1          3.2050    3.6787    1.4493 H         1 <0>         0.0444
      4 C3          3.6897    2.1599   -0.0379 C.3       1 <0>        -0.0751
      5 C4          2.3747    1.4237   -0.0165 C.ar      1 <0>        -0.0545
      6 C5          2.3928    0.0370   -0.0217 C.ar      1 <0>        -0.1147
      7 C6          1.2113   -0.6762   -0.0127 C.ar      1 <0>        -0.0905
      8 C7          0.0021   -0.0041    0.0020 C.ar      1 <0>        -0.0926
      9 C8         -0.0167    1.3768    0.0096 C.ar      1 <0>        -0.0863
     10 C9          1.1705    2.0943    0.0021 C.ar      1 <0>        -0.0753
     11 C10         1.0989    3.5988    0.0200 C.3       1 <0>         0.0865
     12 N1          2.3768    4.1784   -0.4055 N.3       1 <0>        -0.6677
     13 Br1        -1.6212   -0.9739    0.0123 Br        1 <0>        -0.0495
     14 H2          5.5835    3.9890    0.7213 H         1 <0>         0.0645
     15 H3          4.6014    5.4622    0.4184 H         1 <0>         0.0586
     16 H4          5.0141    4.3627   -0.9408 H         1 <0>         0.0675
     17 H5          4.1043    2.1311   -1.0564 H         1 <0>         0.0903
     18 H6          4.3893    1.6719    0.6567 H         1 <0>         0.0821
     19 H7          3.3367   -0.4877   -0.0333 H         1 <0>         0.1322
     20 H8          1.2305   -1.7560   -0.0167 H         1 <0>         0.1336
     21 H9         -0.9609    1.9010    0.0169 H         1 <0>         0.1326
     22 H10         0.3074    3.9364   -0.6653 H         1 <0>         0.0937
     23 H11         0.8722    3.9430    1.0399 H         1 <0>         0.0494
     24 H12         2.3427    5.2685   -0.2621 H         1 <0>         0.3489
@<TRIPOS>BOND
     1    1    2 1
     2    1   14 1
     3    1   15 1
     4    1   16 1
     5    2    3 1
     6    2   12 1
     7    2    4 1
     8    4    5 1
     9    4   17 1
    10    4   18 1
    11    5   10 ar
    12    5    6 ar
    13    6    7 ar
    14    6   19 1
    15    7    8 ar
    16    7   20 1
    17    8    9 ar
    18    8   13 1
    19    9   10 ar
    20    9   21 1
    21   10   11 1
    22   11   12 1
    23   11   22 1
    24   11   23 1
    25   12   24 1
@<TRIPOS>MOLECULE
ZINC13686854
   24    25     0     0     0
SMALL
USER_CHARGES
(3S)-7-bromo-3-methyl-1,2,3,4-tetrahydroisoquinoline
@<TRIPOS>ATOM
      1 C1         -0.1399    0.8736    2.4958 C.3       1 <0>        -0.1428
      2 C2         -0.7242    1.5768    1.2691 C.3       1 <0>         0.0716
      3 H1         -0.6274    2.6673    1.3759 H         1 <0>         0.0838
      4 C3         -0.0127    1.0858    0.0080 C.3       1 <0>        -0.1156
      5 C4         -0.7377    1.5831   -1.2162 C.ar      1 <0>        -0.0656
      6 C5         -0.0755    1.5540   -2.4345 C.ar      1 <0>        -0.1117
      7 C6         -0.7036    1.9973   -3.5807 C.ar      1 <0>        -0.0906
      8 C7         -2.0012    2.4725   -3.5142 C.ar      1 <0>        -0.0916
      9 C8         -2.6610    2.5022   -2.3013 C.ar      1 <0>        -0.0834
     10 C9         -2.0294    2.0595   -1.1484 C.ar      1 <0>        -0.1120
     11 C10        -2.7867    2.1205    0.1522 C.3       1 <0>         0.0852
     12 N1         -2.1543    1.2582    1.1554 N.3       1 <0>        -0.6592
     13 Br1        -2.8697    3.0792   -5.0806 Br        1 <0>        -0.0484
     14 H2          0.9305    1.1126    2.5802 H         1 <0>         0.0614
     15 H3         -0.2655   -0.2140    2.3895 H         1 <0>         0.0575
     16 H4         -0.6646    1.2167    3.3997 H         1 <0>         0.0665
     17 H5          1.0195    1.4658   -0.0021 H         1 <0>         0.0853
     18 H6          0.0014   -0.0141   -0.0004 H         1 <0>         0.0854
     19 H7          0.9373    1.1827   -2.4864 H         1 <0>         0.1317
     20 H8         -0.1834    1.9736   -4.5268 H         1 <0>         0.1337
     21 H9         -3.6740    2.8730   -2.2501 H         1 <0>         0.1337
     22 H10        -2.7938    3.1557    0.5241 H         1 <0>         0.0902
     23 H11        -3.8207    1.7819   -0.0093 H         1 <0>         0.0926
     24 H12        -2.2729    0.2072    0.8531 H         1 <0>         0.3424
@<TRIPOS>BOND
     1    1    2 1
     2    1   14 1
     3    1   15 1
     4    1   16 1
     5    2    3 1
     6    2   12 1
     7    2    4 1
     8    4    5 1
     9    4   17 1
    10    4   18 1
    11    5   10 ar
    12    5    6 ar
    13    6    7 ar
    14    6   19 1
    15    7    8 ar
    16    7   20 1
    17    8    9 ar
    18    8   13 1
    19    9   10 ar
    20    9   21 1
    21   10   11 1
    22   11   12 1
    23   11   22 1
    24   11   23 1
    25   12   24 1
@<TRIPOS>MOLECULE
ZINC13686866
   27    28     0     0     0
SMALL
USER_CHARGES
(3S)-3-(difluoromethyl)-7-(trifluoromethyl)-1,2,3,4-tetrahydroisoquinoline
@<TRIPOS>ATOM
      1 C1         -0.0166    1.3765    0.0096 C.ar      1 <0>        -0.0696
      2 C2          0.0021   -0.0041    0.0020 C.ar      1 <0>        -0.1144
      3 C3          1.2078   -0.6881   -0.0122 C.ar      1 <0>        -0.0452
      4 C4          2.3948    0.0133   -0.0176 C.ar      1 <0>        -0.1218
      5 C5          2.3742    1.4000   -0.0118 C.ar      1 <0>        -0.0583
      6 C6          1.1730    2.0803    0.0020 C.ar      1 <0>        -0.1818
      7 C7          1.1588    3.5872    0.0083 C.3       1 <0>         0.5087
      8 F1         -0.1645    4.0410    0.0218 F         1 <0>        -0.1761
      9 F2          1.8239    4.0550    1.1467 F         1 <0>        -0.1755
     10 F3          1.8038    4.0644   -1.1377 F         1 <0>        -0.1754
     11 C8          3.7299   -0.6841   -0.0268 C.3       1 <0>         0.0896
     12 N1          3.5761   -2.0819   -0.4423 N.3       1 <0>        -0.6560
     13 C9          2.5482   -2.7462    0.3748 C.3       1 <0>         0.0334
     14 H1          2.7652   -2.5349    1.4323 H         1 <0>         0.1163
     15 C10         1.1793   -2.1950   -0.0251 C.3       1 <0>        -0.1218
     16 C11         2.5881   -4.2550    0.1242 C.3       1 <0>         0.2731
     17 F4          1.5950   -4.8806    0.8854 F         1 <0>        -0.2060
     18 F5          2.3640   -4.5082   -1.2333 F         1 <0>        -0.2055
     19 H2         -0.9584    1.9052    0.0169 H         1 <0>         0.1415
     20 H3         -0.9275   -0.5539    0.0068 H         1 <0>         0.1373
     21 H4          3.3032    1.9508   -0.0183 H         1 <0>         0.1369
     22 H5          4.4049   -0.1744   -0.7301 H         1 <0>         0.1016
     23 H6          4.1646   -0.6573    0.9833 H         1 <0>         0.0968
     24 H7          3.2745   -2.1191   -1.4995 H         1 <0>         0.3555
     25 H8          0.4221   -2.5535    0.6877 H         1 <0>         0.0980
     26 H9          0.9277   -2.5484   -1.0360 H         1 <0>         0.0978
     27 H10         3.5431   -4.7336    0.3868 H         1 <0>         0.1207
@<TRIPOS>BOND
     1    1    6 ar
     2    1    2 ar
     3    1   19 1
     4    2    3 ar
     5    2   20 1
     6    3   15 1
     7    3    4 ar
     8    4    5 ar
     9    4   11 1
    10    5    6 ar
    11    5   21 1
    12    6    7 1
    13    7    8 1
    14    7    9 1
    15    7   10 1
    16   11   12 1
    17   11   22 1
    18   11   23 1
    19   12   13 1
    20   12   24 1
    21   13   14 1
    22   13   15 1
    23   13   16 1
    24   15   25 1
    25   15   26 1
    26   16   17 1
    27   16   18 1
    28   16   27 1
@<TRIPOS>MOLECULE
ZINC13686870
   27    28     0     0     0
SMALL
USER_CHARGES
(3R)-3-(difluoromethyl)-7-(trifluoromethyl)-1,2,3,4-tetrahydroisoquinoline
@<TRIPOS>ATOM
      1 C1          1.1724    2.0810    0.0020 C.ar      1 <0>        -0.0675
      2 C2          2.3738    1.4007   -0.0151 C.ar      1 <0>        -0.1177
      3 C3          2.3937    0.0146   -0.0250 C.ar      1 <0>        -0.0339
      4 C4          1.2079   -0.6890   -0.0133 C.ar      1 <0>        -0.0855
      5 C5          0.0021   -0.0041    0.0020 C.ar      1 <0>        -0.0628
      6 C6         -0.0166    1.3764    0.0096 C.ar      1 <0>        -0.1835
      7 C7         -1.3310    2.1135    0.0198 C.3       1 <0>         0.5093
      8 F1         -1.7315    2.3345    1.3419 F         1 <0>        -0.1760
      9 F2         -1.1821    3.3415   -0.6337 F         1 <0>        -0.1757
     10 F3         -2.2996    1.3489   -0.6393 F         1 <0>        -0.1764
     11 C8          1.1775   -2.1948   -0.0104 C.3       1 <0>         0.0903
     12 N1          2.4713   -2.7354   -0.4391 N.3       1 <0>        -0.6591
     13 C9          3.5593   -2.1477    0.3586 C.3       1 <0>         0.0313
     14 H1          3.2847   -2.2290    1.4207 H         1 <0>         0.0787
     15 C10         3.7282   -0.6852   -0.0538 C.3       1 <0>        -0.0816
     16 C11         4.8596   -2.9097    0.0946 C.3       1 <0>         0.2695
     17 F4          5.2306   -2.7490   -1.2447 F         1 <0>        -0.1960
     18 F5          5.8702   -2.4081    0.9218 F         1 <0>        -0.2042
     19 H2          1.1618    3.1610    0.0095 H         1 <0>         0.1388
     20 H3          3.3029    1.9513   -0.0209 H         1 <0>         0.1377
     21 H4         -0.9276   -0.5537    0.0077 H         1 <0>         0.1378
     22 H5          0.9587   -2.5551    1.0056 H         1 <0>         0.0569
     23 H6          0.3967   -2.5471   -0.7005 H         1 <0>         0.1033
     24 H7          2.4756   -3.8270   -0.3036 H         1 <0>         0.3551
     25 H8          4.1433   -0.6413   -1.0715 H         1 <0>         0.1036
     26 H9          4.4176   -0.1890    0.6451 H         1 <0>         0.0938
     27 H10         4.7978   -3.9917    0.2831 H         1 <0>         0.1139
@<TRIPOS>BOND
     1    1    6 ar
     2    1    2 ar
     3    1   19 1
     4    2    3 ar
     5    2   20 1
     6    3   15 1
     7    3    4 ar
     8    4    5 ar
     9    4   11 1
    10    5    6 ar
    11    5   21 1
    12    6    7 1
    13    7    8 1
    14    7    9 1
    15    7   10 1
    16   11   12 1
    17   11   22 1
    18   11   23 1
    19   12   13 1
    20   12   24 1
    21   13   14 1
    22   13   15 1
    23   13   16 1
    24   15   25 1
    25   15   26 1
    26   16   17 1
    27   16   18 1
    28   16   27 1
@<TRIPOS>MOLECULE
ZINC13686965
   25    26     0     0     0
SMALL
USER_CHARGES
(3S)-3-(difluoromethyl)-1,2,3,4-tetrahydroisoquinoline-7-carbonitrile
@<TRIPOS>ATOM
      1 C1         -0.0166    1.3734    0.0096 C.ar      1 <0>        -0.0673
      2 C2          0.0021   -0.0041    0.0020 C.ar      1 <0>        -0.1138
      3 C3          1.2067   -0.6936   -0.0123 C.ar      1 <0>        -0.0475
      4 C4          2.4006   -0.0006   -0.0175 C.ar      1 <0>        -0.1215
      5 C5          2.3944    1.3835   -0.0118 C.ar      1 <0>        -0.0601
      6 C6          1.1870    2.0809    0.0019 C.ar      1 <0>        -0.0262
      7 C7          1.1816    3.5129    0.0076 C.1       1 <0>         0.2493
      8 N1          1.1773    4.6488    0.0121 N.1       1 <0>        -0.4088
      9 C8          3.7303   -0.7088   -0.0265 C.3       1 <0>         0.0890
     10 N2          3.5657   -2.1052   -0.4421 N.3       1 <0>        -0.6569
     11 C9          2.5329   -2.7613    0.3755 C.3       1 <0>         0.0336
     12 H1          2.7510   -2.5504    1.4328 H         1 <0>         0.1163
     13 C10         1.1682   -2.2008   -0.0253 C.3       1 <0>        -0.1219
     14 C11         2.5620   -4.2706    0.1262 C.3       1 <0>         0.2726
     15 F1          1.5643   -4.8884    0.8879 F         1 <0>        -0.2063
     16 F2          2.3364   -4.5236   -1.2311 F         1 <0>        -0.2057
     17 H2         -0.9576    1.9034    0.0169 H         1 <0>         0.1360
     18 H3         -0.9285   -0.5521    0.0069 H         1 <0>         0.1360
     19 H4          3.3285    1.9256   -0.0184 H         1 <0>         0.1361
     20 H5          4.4095   -0.2045   -0.7296 H         1 <0>         0.1010
     21 H6          4.1650   -0.6856    0.9837 H         1 <0>         0.0961
     22 H7          3.2635   -2.1399   -1.4992 H         1 <0>         0.3555
     23 H8          0.4081   -2.5543    0.6869 H         1 <0>         0.0974
     24 H9          0.9150   -2.5524   -1.0364 H         1 <0>         0.0971
     25 H10         3.5135   -4.7557    0.3893 H         1 <0>         0.1199
@<TRIPOS>BOND
     1    1    6 ar
     2    1    2 ar
     3    1   17 1
     4    2    3 ar
     5    2   18 1
     6    3   13 1
     7    3    4 ar
     8    4    5 ar
     9    4    9 1
    10    5    6 ar
    11    5   19 1
    12    6    7 1
    13    7    8 3
    14    9   10 1
    15    9   20 1
    16    9   21 1
    17   10   11 1
    18   10   22 1
    19   11   12 1
    20   11   13 1
    21   11   14 1
    22   13   23 1
    23   13   24 1
    24   14   15 1
    25   14   16 1
    26   14   25 1
@<TRIPOS>MOLECULE
ZINC13686968
   25    26     0     0     0
SMALL
USER_CHARGES
(3R)-3-(difluoromethyl)-1,2,3,4-tetrahydroisoquinoline-7-carbonitrile
@<TRIPOS>ATOM
      1 C1          1.1883    2.0951    0.0020 C.ar      1 <0>        -0.0669
      2 C2          2.3811    1.4062   -0.0152 C.ar      1 <0>        -0.1173
      3 C3          2.3946    0.0183   -0.0246 C.ar      1 <0>        -0.0359
      4 C4          1.2069   -0.6854   -0.0129 C.ar      1 <0>        -0.0851
      5 C5          0.0021   -0.0041    0.0020 C.ar      1 <0>        -0.0629
      6 C6         -0.0168    1.3902    0.0097 C.ar      1 <0>        -0.0284
      7 C7         -1.2638    2.0942    0.0194 C.1       1 <0>         0.2512
      8 N1         -2.2530    2.6527    0.0271 N.1       1 <0>        -0.4113
      9 C8          1.1758   -2.1915   -0.0094 C.3       1 <0>         0.0897
     10 N2          2.4691   -2.7330   -0.4380 N.3       1 <0>        -0.6593
     11 C9          3.5572   -2.1461    0.3603 C.3       1 <0>         0.0314
     12 H1          3.2816   -2.2261    1.4222 H         1 <0>         0.0787
     13 C10         3.7283   -0.6843   -0.0532 C.3       1 <0>        -0.0818
     14 C11         4.8567   -2.9099    0.0982 C.3       1 <0>         0.2690
     15 F1          5.2291   -2.7509   -1.2409 F         1 <0>        -0.1962
     16 F2          5.8671   -2.4089    0.9259 F         1 <0>        -0.2044
     17 H2          1.1853    3.1751    0.0094 H         1 <0>         0.1359
     18 H3          3.3138    1.9507   -0.0212 H         1 <0>         0.1364
     19 H4         -0.9271   -0.5546    0.0073 H         1 <0>         0.1349
     20 H5          0.9569   -2.5513    1.0068 H         1 <0>         0.0563
     21 H6          0.3947   -2.5437   -0.6992 H         1 <0>         0.1025
     22 H7          2.4725   -3.8246   -0.3027 H         1 <0>         0.3543
     23 H8          4.1432   -0.6420   -1.0711 H         1 <0>         0.1030
     24 H9          4.4188   -0.1888    0.6451 H         1 <0>         0.0932
     25 H10         4.7934   -3.9916    0.2876 H         1 <0>         0.1131
@<TRIPOS>BOND
     1    1    6 ar
     2    1    2 ar
     3    1   17 1
     4    2    3 ar
     5    2   18 1
     6    3   13 1
     7    3    4 ar
     8    4    5 ar
     9    4    9 1
    10    5    6 ar
    11    5   19 1
    12    6    7 1
    13    7    8 3
    14    9   10 1
    15    9   20 1
    16    9   21 1
    17   10   11 1
    18   10   22 1
    19   11   12 1
    20   11   13 1
    21   11   14 1
    22   13   23 1
    23   13   24 1
    24   14   15 1
    25   14   16 1
    26   14   25 1
@<TRIPOS>MOLECULE
ZINC13686880
   24    25     0     0     0
SMALL
USER_CHARGES
(3S)-3-(difluoromethyl)-7-iodo-1,2,3,4-tetrahydroisoquinoline
@<TRIPOS>ATOM
      1 C1          3.2705    0.9349   -3.7738 C.ar      1 <0>        -0.0825
      2 C2          1.8969    0.8286   -3.6827 C.ar      1 <0>        -0.1096
      3 C3          1.2584    1.0214   -2.4672 C.ar      1 <0>        -0.0591
      4 C4          1.9979    1.3243   -1.3436 C.ar      1 <0>        -0.1164
      5 C5          3.3776    1.4293   -1.4360 C.ar      1 <0>        -0.0753
      6 C6          4.0132    1.2353   -2.6468 C.ar      1 <0>        -0.0993
      7 I1          6.0980    1.3962   -2.7757 I         1 <0>        -0.0381
      8 C7          1.3500    1.5489   -0.0025 C.3       1 <0>         0.0900
      9 N1         -0.0116    1.0048    0.0076 N.3       1 <0>        -0.6562
     10 C8         -0.7783    1.5281   -1.1343 C.3       1 <0>         0.0340
     11 H1         -0.6513    2.6205   -1.1574 H         1 <0>         0.1153
     12 C9         -0.2418    0.8862   -2.4141 C.3       1 <0>        -0.1190
     13 C10        -2.2577    1.1771   -0.9643 C.3       1 <0>         0.2729
     14 F1         -2.9833    1.6760   -2.0514 F         1 <0>        -0.2062
     15 F2         -2.4033   -0.2131   -0.9050 F         1 <0>        -0.2058
     16 H2          3.7634    0.7843   -4.7229 H         1 <0>         0.1317
     17 H3          1.3168    0.5937   -4.5628 H         1 <0>         0.1327
     18 H4          3.9583    1.6645   -0.5563 H         1 <0>         0.1317
     19 H5          1.9407    1.0480    0.7786 H         1 <0>         0.0997
     20 H6          1.3052    2.6278    0.2070 H         1 <0>         0.0948
     21 H7          0.0314   -0.0922   -0.0609 H         1 <0>         0.3546
     22 H8         -0.6863    1.3891   -3.2856 H         1 <0>         0.0950
     23 H9         -0.5146   -0.1794   -2.4270 H         1 <0>         0.0951
     24 H10        -2.7197    1.5876   -0.0543 H         1 <0>         0.1201
@<TRIPOS>BOND
     1    1    6 ar
     2    1    2 ar
     3    1   16 1
     4    2    3 ar
     5    2   17 1
     6    3   12 1
     7    3    4 ar
     8    4    5 ar
     9    4    8 1
    10    5    6 ar
    11    5   18 1
    12    6    7 1
    13    8    9 1
    14    8   19 1
    15    8   20 1
    16    9   10 1
    17    9   21 1
    18   10   11 1
    19   10   12 1
    20   10   13 1
    21   12   22 1
    22   12   23 1
    23   13   14 1
    24   13   15 1
    25   13   24 1
@<TRIPOS>MOLECULE
ZINC13686884
   24    25     0     0     0
SMALL
USER_CHARGES
(3R)-3-(difluoromethyl)-7-iodo-1,2,3,4-tetrahydroisoquinoline
@<TRIPOS>ATOM
      1 C1         -0.0126    1.0758    0.0080 C.ar      1 <0>        -0.0826
      2 C2         -1.2164    1.7517    0.0173 C.ar      1 <0>        -0.1128
      3 C3         -1.2416    3.1378    0.0311 C.ar      1 <0>        -0.0478
      4 C4         -0.0586    3.8461    0.0279 C.ar      1 <0>        -0.0800
      5 C5          1.1500    3.1662    0.0103 C.ar      1 <0>        -0.0783
      6 C6          1.1743    1.7853    0.0004 C.ar      1 <0>        -0.1003
      7 I1          3.0054    0.7677   -0.0251 I         1 <0>        -0.0394
      8 C7         -0.0339    5.3519    0.0493 C.3       1 <0>         0.0909
      9 N1         -1.3382    5.8925   -0.3464 N.3       1 <0>        -0.6587
     10 C8         -2.4075    5.2903    0.4656 C.3       1 <0>         0.0321
     11 H1         -2.1117    5.3593    1.5228 H         1 <0>         0.0776
     12 C9         -2.5791    3.8324    0.0382 C.3       1 <0>        -0.0789
     13 C10        -3.7158    6.0502    0.2377 C.3       1 <0>         0.2693
     14 F1         -4.1132    5.9049   -1.0958 F         1 <0>        -0.1962
     15 F2         -4.7075    5.5340    1.0787 F         1 <0>        -0.2045
     16 H2          0.0021   -0.0041    0.0020 H         1 <0>         0.1315
     17 H3         -2.1435    1.1976    0.0184 H         1 <0>         0.1331
     18 H4          2.0774    3.7196    0.0038 H         1 <0>         0.1305
     19 H5          0.2040    5.7003    1.0652 H         1 <0>         0.0549
     20 H6          0.7315    5.7161   -0.6518 H         1 <0>         0.1012
     21 H7         -1.3440    6.9823   -0.1970 H         1 <0>         0.3535
     22 H8         -3.0146    3.7996   -0.9714 H         1 <0>         0.1007
     23 H9         -3.2523    3.3246    0.7446 H         1 <0>         0.0910
     24 H10        -3.6544    7.1299    0.4387 H         1 <0>         0.1132
@<TRIPOS>BOND
     1    1    6 ar
     2    1    2 ar
     3    1   16 1
     4    2    3 ar
     5    2   17 1
     6    3   12 1
     7    3    4 ar
     8    4    5 ar
     9    4    8 1
    10    5    6 ar
    11    5   18 1
    12    6    7 1
    13    8    9 1
    14    8   19 1
    15    8   20 1
    16    9   10 1
    17    9   21 1
    18   10   11 1
    19   10   12 1
    20   10   13 1
    21   12   22 1
    22   12   23 1
    23   13   14 1
    24   13   15 1
    25   13   24 1
@<TRIPOS>MOLECULE
ZINC01566179
   25    25     0     0     0
SMALL
USER_CHARGES
2-amino-1-[3-(trifluoromethyl)phenyl]-ethanol
@<TRIPOS>ATOM
      1 C1         -1.2188    1.7505    0.0173 C.ar      1 <0>        -0.1082
      2 C2         -1.2375    3.1329    0.0290 C.ar      1 <0>        -0.0752
      3 C3         -0.0501    3.8402    0.0223 C.ar      1 <0>        -0.1465
      4 C4          1.1565    3.1653    0.0081 C.ar      1 <0>        -0.0523
      5 C5          1.1752    1.7833    0.0004 C.ar      1 <0>        -0.1721
      6 C6         -0.0126    1.0758    0.0080 C.ar      1 <0>        -0.0518
      7 C7          2.4904    1.0477   -0.0156 C.3       1 <0>         0.5064
      8 F1          2.2534   -0.3311   -0.0204 F         1 <0>        -0.1704
      9 F2          3.2086    1.4014   -1.1629 F         1 <0>        -0.1716
     10 F3          3.2300    1.3898    1.1215 F         1 <0>        -0.1741
     11 C8         -0.0705    5.3471    0.0302 C.3       1 <0>         0.1333
     12 H1          0.8519    5.7252   -0.4105 H         1 <0>         0.1357
     13 C9         -0.1902    5.8480    1.4709 C.3       1 <0>        -0.0386
     14 O1         -1.1874    5.8122   -0.7302 O.3       1 <0>        -0.5453
     15 H2         -2.1467    1.1979    0.0187 H         1 <0>         0.1467
     16 H3         -2.1800    3.6602    0.0397 H         1 <0>         0.1341
     17 H4          2.0843    3.7180    0.0025 H         1 <0>         0.1399
     18 H5          0.0021   -0.0041    0.0020 H         1 <0>         0.1494
     19 H6         -1.1127    5.4698    1.9116 H         1 <0>         0.1410
     20 H7          0.6617    5.4932    2.0509 H         1 <0>         0.1461
     21 H8         -0.9528    7.6714    0.8947 H         1 <0>         0.4413
     22 H9         -0.2887    7.6725    2.4195 H         1 <0>         0.4427
     23 H10        -2.0436    5.5135   -0.3945 H         1 <0>         0.3899
     24 N1         -0.1873    7.3215    1.4686 N.4       1 <0>        -0.6423
     25 H11         0.7024    7.6567    1.0808 H         1 <0>         0.4418
@<TRIPOS>BOND
     1    1    6 ar
     2    1    2 ar
     3    1   15 1
     4    2    3 ar
     5    2   16 1
     6    3    4 ar
     7    3   11 1
     8    4    5 ar
     9    4   17 1
    10    5    6 ar
    11    5    7 1
    12    6   18 1
    13    7    8 1
    14    7    9 1
    15    7   10 1
    16   11   12 1
    17   11   13 1
    18   11   14 1
    19   13   19 1
    20   13   20 1
    21   13   24 1
    22   14   23 1
    23   21   24 1
    24   22   24 1
    25   24   25 1
@<TRIPOS>MOLECULE
ZINC02032568
   25    25     0     0     0
SMALL
USER_CHARGES
2-amino-1-[3-(trifluoromethyl)phenyl]-ethanol
@<TRIPOS>ATOM
      1 C1         -1.2188    1.7505    0.0173 C.ar      1 <0>        -0.1084
      2 C2         -1.2375    3.1329    0.0303 C.ar      1 <0>        -0.0758
      3 C3         -0.0501    3.8402    0.0228 C.ar      1 <0>        -0.1465
      4 C4          1.1565    3.1653    0.0076 C.ar      1 <0>        -0.0512
      5 C5          1.1752    1.7833    0.0004 C.ar      1 <0>        -0.1723
      6 C6         -0.0126    1.0758    0.0080 C.ar      1 <0>        -0.0515
      7 C7          2.4904    1.0477   -0.0161 C.3       1 <0>         0.5064
      8 F1          2.2534   -0.3311   -0.0213 F         1 <0>        -0.1704
      9 F2          3.2083    1.4018   -1.1634 F         1 <0>        -0.1740
     10 F3          3.2302    1.3894    1.1210 F         1 <0>        -0.1716
     11 C8         -0.0705    5.3471    0.0316 C.3       1 <0>         0.1334
     12 H1          0.8934    5.7215    0.3762 H         1 <0>         0.1344
     13 C9         -0.3412    5.8617   -1.3835 C.3       1 <0>        -0.0384
     14 O1         -1.1008    5.8043    0.9100 O.3       1 <0>        -0.5446
     15 H2         -2.1467    1.1979    0.0187 H         1 <0>         0.1467
     16 H3         -2.1800    3.6601    0.0425 H         1 <0>         0.1339
     17 H4          2.0843    3.7180    0.0017 H         1 <0>         0.1399
     18 H5          0.0021   -0.0041    0.0020 H         1 <0>         0.1494
     19 H6          0.3936    5.4411   -2.0699 H         1 <0>         0.1459
     20 H7         -1.3420    5.5616   -1.6941 H         1 <0>         0.1411
     21 H8         -0.4176    7.6919   -2.3232 H         1 <0>         0.4427
     22 H9         -0.8692    7.7389   -0.7233 H         1 <0>         0.4418
     23 H10        -1.9878    5.5084    0.6635 H         1 <0>         0.3903
     24 N1         -0.2185    7.3302   -1.3920 N.4       1 <0>        -0.6428
     25 H11         0.7394    7.5903   -1.1292 H         1 <0>         0.4416
@<TRIPOS>BOND
     1    1    6 ar
     2    1    2 ar
     3    1   15 1
     4    2    3 ar
     5    2   16 1
     6    3    4 ar
     7    3   11 1
     8    4    5 ar
     9    4   17 1
    10    5    6 ar
    11    5    7 1
    12    6   18 1
    13    7    8 1
    14    7    9 1
    15    7   10 1
    16   11   12 1
    17   11   13 1
    18   11   14 1
    19   13   19 1
    20   13   20 1
    21   13   24 1
    22   14   23 1
    23   21   24 1
    24   22   24 1
    25   24   25 1
@<TRIPOS>MOLECULE
ZINC04228231
   50    52     0     0     0
SMALL
NO_CHARGES

@<TRIPOS>ATOM
      1 C1         -0.0225    1.8097    0.0120 C.3       1 <0>        -0.2859
      2 S1          0.0021   -0.0041    0.0020 S.3       1 <0>         0.3016
      3 C2         -1.6997   -0.6320    0.0149 C.3       1 <0>        -0.3047
      4 C3         -2.4397   -0.1251   -1.2246 C.3       1 <0>        -0.1087
      5 C4         -3.8751   -0.6547   -1.2138 C.3       1 <0>        -0.0489
      6 H1         -4.3574   -0.3780   -0.2762 H         1 <0>         0.1305
      7 C5         -4.6395   -0.0578   -2.3672 C.2       1 <0>         0.4866
      8 O1         -4.6552   -0.6245   -3.4466 O.co2     1 <0>        -0.6689
      9 O2         -5.2423    0.9919   -2.2210 O.co2     1 <0>        -0.6375
     10 N1         -3.8582   -2.1179   -1.3425 N.4       1 <0>        -0.6137
     11 C6          0.8794   -0.6050    1.4716 C.3       1 <0>        -0.2839
     12 C7          2.3148   -0.0754    1.4608 C.3       1 <0>         0.1089
     13 H2          2.7994   -0.3379    0.5204 H         1 <0>         0.1008
     14 C8          3.1032   -0.6743    2.6416 C.3       1 <0>         0.0444
     15 H3          2.4559   -1.3032    3.2527 H         1 <0>         0.0855
     16 C9          3.5764    0.5603    3.4470 C.3       1 <0>         0.0354
     17 H4          2.9066    0.7591    4.2835 H         1 <0>         0.0835
     18 C10         3.4910    1.6901    2.3894 C.3       1 <0>         0.3224
     19 H5          4.3735    1.6846    1.7496 H         1 <0>         0.1226
     20 O3          2.3103    1.3525    1.6264 O.3       1 <0>        -0.3573
     21 N2          3.3347    2.9939    3.0389 N.pl3     1 <0>        -0.4706
     22 C11         2.1581    3.6379    3.2824 C.2       1 <0>         0.2604
     23 N3          2.3873    4.7739    3.8745 N.2       1 <0>        -0.4594
     24 C12         3.7216    4.9308    4.0481 C.ar      1 <0>        -0.1112
     25 C13         4.3452    3.7881    3.5189 C.ar      1 <0>         0.3170
     26 N4          5.6697    3.6925    3.5710 N.ar      1 <0>        -0.5474
     27 C14         6.3908    4.6514    4.1127 C.ar      1 <0>         0.3650
     28 N5          5.8500    5.7415    4.6254 N.ar      1 <0>        -0.5914
     29 C15         4.5343    5.9294    4.6108 C.ar      1 <0>         0.5089
     30 N6          3.9766    7.0748    5.1516 N.pl3     1 <0>        -0.8172
     31 O4          4.9199    0.3877    3.9024 O.3       1 <0>        -0.5258
     32 O5          4.2231   -1.4240    2.1664 O.3       1 <0>        -0.5407
     33 H6          1.0001    2.1870    0.0043 H         1 <0>         0.0984
     34 H7         -0.5497    2.1708   -0.8711 H         1 <0>         0.0862
     35 H8         -0.5327    2.1613    0.9088 H         1 <0>         0.0749
     36 H9         -1.6850   -1.7218    0.0089 H         1 <0>         0.0767
     37 H10        -2.2099   -0.2804    0.9117 H         1 <0>         0.0839
     38 H11        -2.4545    0.9648   -1.2186 H         1 <0>         0.1031
     39 H12        -1.9295   -0.4766   -2.1214 H         1 <0>         0.0870
     40 H13        -3.4117   -2.3741   -2.2104 H         1 <0>         0.4327
     41 H14        -3.3464   -2.5176   -0.5702 H         1 <0>         0.4116
     42 H15         0.3692   -0.2535    2.3684 H         1 <0>         0.0856
     43 H16         0.8942   -1.6949    1.4656 H         1 <0>         0.1063
     44 H17         1.1801    3.2610    3.0221 H         1 <0>         0.2211
     45 H18         7.4650    4.5424    4.1390 H         1 <0>         0.2056
     46 H19         3.0142    7.1953    5.1451 H         1 <0>         0.4191
     47 H20         4.5482    7.7570    5.5372 H         1 <0>         0.4113
     48 H21         5.0398   -0.3650    4.4975 H         1 <0>         0.3819
     49 H22         4.7552   -1.8237    2.8680 H         1 <0>         0.3850
     50 H23        -4.8048   -2.4672   -1.3353 H         1 <0>         0.4296
@<TRIPOS>BOND
     1    1    2 1
     2    1   33 1
     3    1   34 1
     4    1   35 1
     5    2    3 1
     6    2   11 1
     7    3    4 1
     8    3   36 1
     9    3   37 1
    10    4    5 1
    11    4   38 1
    12    4   39 1
    13    5    6 1
    14    5    7 1
    15    5   10 1
    16    7    8 2
    17    7    9 1
    18   10   40 1
    19   10   41 1
    20   10   50 1
    21   11   12 1
    22   11   42 1
    23   11   43 1
    24   12   13 1
    25   12   20 1
    26   12   14 1
    27   14   15 1
    28   14   16 1
    29   14   32 1
    30   16   17 1
    31   16   18 1
    32   16   31 1
    33   18   19 1
    34   18   20 1
    35   18   21 1
    36   21   25 1
    37   21   22 1
    38   22   23 2
    39   22   44 1
    40   23   24 1
    41   24   29 ar
    42   24   25 ar
    43   25   26 ar
    44   26   27 ar
    45   27   28 ar
    46   27   45 1
    47   28   29 ar
    48   29   30 1
    49   30   46 1
    50   30   47 1
    51   31   48 1
    52   32   49 1
@<TRIPOS>MOLECULE
ZINC13522357
   50    52     0     0     0
SMALL
USER_CHARGES
[(3R)-3-amino-4-hydroxy-4-oxo-butyl]-[[(2S,3S,4R,5R)-5-(6-aminopurin-9-yl)-3,4-dihydroxy-tetrahydrofuran-2-yl]methyl]-methyl-sulfonium
@<TRIPOS>ATOM
      1 C1         -6.1444    1.6626    1.9992 C.3       1 <0>        -0.3101
      2 S1         -5.2158    0.3556    1.1507 S.3       1 <0>         0.6621
      3 C2         -6.4984   -0.7901    0.5737 C.3       1 <0>        -0.2940
      4 C3         -7.0897   -1.5383    1.7702 C.3       1 <0>        -0.1302
      5 C4         -8.1715   -2.5046    1.2835 C.3       1 <0>        -0.0089
      6 H1         -8.9140   -1.9566    0.7035 H         1 <0>         0.1480
      7 C5         -8.8383   -3.1512    2.4702 C.2       1 <0>         0.4510
      8 O1         -8.5207   -4.2669    2.8080 O.co2     1 <0>        -0.5968
      9 C6         -4.6240    1.1526   -0.3675 C.3       1 <0>        -0.2711
     10 C7         -3.5239    2.1576   -0.0205 C.3       1 <0>         0.0932
     11 H2         -3.8840    2.8545    0.7363 H         1 <0>         0.1183
     12 C8         -3.1016    2.9299   -1.2854 C.3       1 <0>         0.0530
     13 H3         -3.6411    2.5612   -2.1578 H         1 <0>         0.0953
     14 C9         -1.5875    2.6369   -1.4210 C.3       1 <0>         0.0350
     15 H4         -1.4100    1.8253   -2.1266 H         1 <0>         0.0934
     16 C10        -1.2091    2.2097    0.0200 C.3       1 <0>         0.3293
     17 H5         -1.0495    3.0846    0.6503 H         1 <0>         0.1331
     18 O2         -2.3623    1.4629    0.4638 O.3       1 <0>        -0.3609
     19 N1         -0.0164    1.3590    0.0095 N.pl3     1 <0>        -0.4799
     20 C11         0.0021   -0.0041    0.0020 C.2       1 <0>         0.2562
     21 N2          1.2310   -0.4320   -0.0120 N.2       1 <0>        -0.4413
     22 C12         2.0770    0.6261   -0.0144 C.ar      1 <0>        -0.0720
     23 C13         1.2867    1.7881   -0.0006 C.ar      1 <0>         0.3101
     24 N3          1.8839    2.9753    0.0000 N.ar      1 <0>        -0.5308
     25 C14         3.1972    3.0658   -0.0120 C.ar      1 <0>         0.3585
     26 N4          3.9807    2.0030   -0.0252 N.ar      1 <0>        -0.5694
     27 C15         3.4742    0.7743   -0.0270 C.ar      1 <0>         0.4543
     28 N5          4.3035   -0.3335   -0.0413 N.pl3     1 <0>        -0.7425
     29 O3         -0.8734    3.8124   -1.8085 O.3       1 <0>        -0.5198
     30 O4         -3.3267    4.3306   -1.1146 O.3       1 <0>        -0.5392
     31 H6         -6.9649    1.9963    1.3640 H         1 <0>         0.1347
     32 H7         -6.5448    1.2744    2.9358 H         1 <0>         0.1640
     33 H8         -5.4816    2.5024    2.2078 H         1 <0>         0.1564
     34 H9         -7.2862   -0.2299    0.0701 H         1 <0>         0.1452
     35 H10        -6.0600   -1.5058   -0.1218 H         1 <0>         0.1456
     36 H11        -6.3019   -2.0986    2.2738 H         1 <0>         0.1164
     37 H12        -7.5280   -0.8226    2.4657 H         1 <0>         0.1317
     38 H13        -6.8669   -4.0633    0.9563 H         1 <0>         0.4408
     39 H14        -8.2614   -4.1540    0.0547 H         1 <0>         0.4465
     40 H15        -5.4512    1.6720   -0.8514 H         1 <0>         0.1543
     41 H16        -4.2251    0.3961   -1.0433 H         1 <0>         0.1674
     42 H17        -0.8740   -0.6357    0.0070 H         1 <0>         0.2219
     43 H18         3.6506    4.0459   -0.0107 H         1 <0>         0.2108
     44 H19         4.1336   -0.8876    0.7737 H         1 <0>         0.3725
     45 H20         5.2666   -0.2182   -0.0498 H         1 <0>         0.3786
     46 H21        -1.0763    4.1190   -2.7029 H         1 <0>         0.3913
     47 H22        -3.0251    4.8709   -1.8578 H         1 <0>         0.4015
     48 O5         -9.7851   -2.4875    3.1520 O.co2     1 <0>        -0.6868
     49 N6         -7.5488   -3.5262    0.4232 N.4       1 <0>        -0.6310
     50 H23        -7.0726   -3.0634   -0.3599 H         1 <0>         0.4143
@<TRIPOS>BOND
     1    1    2 1
     2    1   31 1
     3    1   32 1
     4    1   33 1
     5    2    3 1
     6    2    9 1
     7    3    4 1
     8    3   34 1
     9    3   35 1
    10    4    5 1
    11    4   36 1
    12    4   37 1
    13    5    6 1
    14    5    7 1
    15    5   49 1
    16    7    8 2
    17    7   48 1
    18    9   10 1
    19    9   40 1
    20    9   41 1
    21   10   11 1
    22   10   18 1
    23   10   12 1
    24   12   13 1
    25   12   14 1
    26   12   30 1
    27   14   15 1
    28   14   16 1
    29   14   29 1
    30   16   17 1
    31   16   18 1
    32   16   19 1
    33   19   23 1
    34   19   20 1
    35   20   21 2
    36   20   42 1
    37   21   22 1
    38   22   27 ar
    39   22   23 ar
    40   23   24 ar
    41   24   25 ar
    42   25   26 ar
    43   25   43 1
    44   26   27 ar
    45   27   28 1
    46   28   44 1
    47   28   45 1
    48   29   46 1
    49   30   47 1
    50   38   49 1
    51   39   49 1
    52   49   50 1
@<TRIPOS>MOLECULE
ZINC13522362
   50    52     0     0     0
SMALL
USER_CHARGES
[(3R)-3-amino-4-hydroxy-4-oxo-butyl]-[[(2S,3S,4R,5R)-5-(6-aminopurin-9-yl)-3,4-dihydroxy-tetrahydrofuran-2-yl]methyl]-methyl-sulfonium
@<TRIPOS>ATOM
      1 C1          4.3623    2.4266    1.6142 C.3       1 <0>        -0.3075
      2 S1          3.4331    3.7035    0.7216 S.3       1 <0>         0.6537
      3 C2          3.5395    5.1583    1.7999 C.3       1 <0>        -0.2871
      4 C3          4.9648    5.7137    1.7678 C.3       1 <0>        -0.1260
      5 C4          5.0546    6.9408    2.6773 C.3       1 <0>        -0.0112
      6 H1          4.2980    7.6679    2.3823 H         1 <0>         0.1515
      7 C5          6.4226    7.5602    2.5516 C.2       1 <0>         0.4484
      8 O1          7.2642    7.3416    3.3904 O.co2     1 <0>        -0.6005
      9 C6          1.7048    3.1728    0.8698 C.3       1 <0>        -0.2590
     10 C7          1.4743    1.9366   -0.0016 C.3       1 <0>         0.0887
     11 H2          1.8092    2.1228   -1.0220 H         1 <0>         0.1290
     12 C8         -0.0189    1.5409    0.0105 C.3       1 <0>         0.0570
     13 H3         -0.5048    1.9113    0.9131 H         1 <0>         0.0949
     14 C9          0.0021   -0.0041    0.0020 C.3       1 <0>         0.0350
     15 H4         -0.4735   -0.3974    0.9004 H         1 <0>         0.0914
     16 C10         1.5055   -0.3590   -0.0142 C.3       1 <0>         0.3291
     17 H5          1.8447   -0.5267   -1.0364 H         1 <0>         0.1345
     18 O2          2.1632    0.7948    0.5532 O.3       1 <0>        -0.3744
     19 N1          1.7583   -1.5454    0.8072 N.pl3     1 <0>        -0.4812
     20 C11         2.1507   -1.5540    2.1126 C.2       1 <0>         0.2538
     21 N2          2.2817   -2.7798    2.5295 N.2       1 <0>        -0.4393
     22 C12         1.9825   -3.6335    1.5211 C.ar      1 <0>        -0.0723
     23 C13         1.6378   -2.8517    0.4054 C.ar      1 <0>         0.3087
     24 N3          1.3051   -3.4575   -0.7297 N.ar      1 <0>        -0.5331
     25 C14         1.2874   -4.7714   -0.8088 C.ar      1 <0>         0.3609
     26 N4          1.5982   -5.5473    0.2134 N.ar      1 <0>        -0.5685
     27 C15         1.9487   -5.0318    1.3873 C.ar      1 <0>         0.4556
     28 N5          2.2724   -5.8530    2.4530 N.pl3     1 <0>        -0.7419
     29 O3         -0.6439   -0.5072   -1.1692 O.3       1 <0>        -0.5213
     30 O4         -0.6784    2.0391   -1.1552 O.3       1 <0>        -0.5367
     31 H6          4.1888    1.4574    1.1468 H         1 <0>         0.1637
     32 H7          5.4263    2.6611    1.5803 H         1 <0>         0.1571
     33 H8          4.0303    2.3942    2.6519 H         1 <0>         0.1281
     34 H9          2.8442    5.9214    1.4502 H         1 <0>         0.1693
     35 H10         3.2835    4.8736    2.8205 H         1 <0>         0.1214
     36 H11         5.6601    4.9506    2.1174 H         1 <0>         0.1038
     37 H12         5.2209    5.9984    0.7472 H         1 <0>         0.1432
     38 H13         3.8922    6.1758    4.1946 H         1 <0>         0.4134
     39 H14         5.5160    5.8608    4.3682 H         1 <0>         0.4376
     40 H15         1.0480    3.9777    0.5397 H         1 <0>         0.1784
     41 H16         1.4873    2.9299    1.9099 H         1 <0>         0.1434
     42 H17         2.3270   -0.6733    2.7125 H         1 <0>         0.2200
     43 H18         1.0085   -5.2321   -1.7450 H         1 <0>         0.2121
     44 H19         3.2112   -5.6678    2.7433 H         1 <0>         0.3726
     45 H20         2.2453   -6.8170    2.3482 H         1 <0>         0.3793
     46 H21        -1.5765   -0.2618   -1.2401 H         1 <0>         0.3907
     47 H22        -1.6041    1.7693   -1.2289 H         1 <0>         0.3985
     48 O5          6.7061    8.3550    1.5076 O.co2     1 <0>        -0.6831
     49 N6          4.8300    6.5575    4.0823 N.4       1 <0>        -0.6317
     50 H23         4.9273    7.3878    4.6784 H         1 <0>         0.4501
@<TRIPOS>BOND
     1    1    2 1
     2    1   31 1
     3    1   32 1
     4    1   33 1
     5    2    3 1
     6    2    9 1
     7    3    4 1
     8    3   34 1
     9    3   35 1
    10    4    5 1
    11    4   36 1
    12    4   37 1
    13    5    6 1
    14    5    7 1
    15    5   49 1
    16    7    8 2
    17    7   48 1
    18    9   10 1
    19    9   40 1
    20    9   41 1
    21   10   11 1
    22   10   18 1
    23   10   12 1
    24   12   13 1
    25   12   14 1
    26   12   30 1
    27   14   15 1
    28   14   16 1
    29   14   29 1
    30   16   17 1
    31   16   18 1
    32   16   19 1
    33   19   23 1
    34   19   20 1
    35   20   21 2
    36   20   42 1
    37   21   22 1
    38   22   27 ar
    39   22   23 ar
    40   23   24 ar
    41   24   25 ar
    42   25   26 ar
    43   25   43 1
    44   26   27 ar
    45   27   28 1
    46   28   44 1
    47   28   45 1
    48   29   46 1
    49   30   47 1
    50   38   49 1
    51   39   49 1
    52   49   50 1
@<TRIPOS>MOLECULE
ZINC20397736
   26    27     0     0     0
SMALL
USER_CHARGES

@<TRIPOS>ATOM
      1 C1         -0.0167    1.3780    0.0096 C.ar      1 <0>        -0.0228
      2 C2          1.1717    2.0810    0.0020 C.ar      1 <0>        -0.1409
      3 C3          2.3836    1.4079   -0.0116 C.ar      1 <0>        -0.0094
      4 C4          2.4030    0.0292   -0.0155 C.ar      1 <0>        -0.1018
      5 C5          1.2084   -0.6753   -0.0110 C.ar      1 <0>        -0.0109
      6 C6          0.0021   -0.0041    0.0020 C.ar      1 <0>        -0.6789
      7 S1         -1.5107   -0.9074    0.0084 S.o2      1 <0>         2.7033
      8 O1         -1.2169   -2.1878    0.5502 O.2       1 <0>        -0.9632
      9 O2         -2.4937   -0.0494    0.5712 O.2       1 <0>        -0.9605
     10 N1         -1.9429   -1.1499   -1.5717 N.pl3     1 <0>        -1.2478
     11 C7          3.6936   -0.7473   -0.0180 C.3       1 <0>         0.0930
     12 N2          4.8084    0.1107   -0.4315 N.3       1 <0>        -0.6857
     13 C8          4.8375    1.3366    0.3820 C.3       1 <0>         0.0504
     14 C9          3.6552    2.2168   -0.0245 C.3       1 <0>        -0.0881
     15 H1         -0.9583    1.9066    0.0260 H         1 <0>         0.1438
     16 H2          1.1571    3.1609    0.0064 H         1 <0>         0.1350
     17 H3          1.2219   -1.7552   -0.0177 H         1 <0>         0.1426
     18 H4         -2.4492   -1.9390   -1.8205 H         1 <0>         0.4221
     19 H5         -1.6897   -0.5028   -2.2486 H         1 <0>         0.4175
     20 H6          3.8859   -1.1287    0.9848 H         1 <0>         0.0510
     21 H7          3.6082   -1.5848   -0.7105 H         1 <0>         0.0936
     22 H8          5.6862   -0.3834   -0.3723 H         1 <0>         0.3521
     23 H9          4.7554    1.0776    1.4376 H         1 <0>         0.0400
     24 H10         5.7704    1.8717    0.2047 H         1 <0>         0.0856
     25 H11         3.8241    2.6095   -1.0272 H         1 <0>         0.0937
     26 H12         3.5636    3.0463    0.6767 H         1 <0>         0.0864
@<TRIPOS>BOND
     1    1    6 ar
     2    1    2 ar
     3    1   15 1
     4    2    3 ar
     5    2   16 1
     6    3   14 1
     7    3    4 ar
     8    4    5 ar
     9    4   11 1
    10    5    6 ar
    11    5   17 1
    12    6    7 1
    13    7    8 2
    14    7    9 2
    15    7   10 1
    16   10   18 1
    17   10   19 1
    18   11   12 1
    19   11   20 1
    20   11   21 1
    21   12   13 1
    22   12   22 1
    23   13   14 1
    24   13   23 1
    25   13   24 1
    26   14   25 1
    27   14   26 1
@<TRIPOS>MOLECULE
ZINC12503940
   21    22     0     0     0
SMALL
USER_CHARGES
7-iodo-1,2,3,4-tetrahydroisoquinoline
@<TRIPOS>ATOM
      1 C1          1.3442    5.8187   -0.2394 C.ar      1 <0>        -0.0851
      2 C2          0.2066    5.1152   -0.5815 C.ar      1 <0>        -0.1161
      3 C3          0.1900    3.7309   -0.5072 C.ar      1 <0>        -0.0509
      4 C4          1.3167    3.0520   -0.0936 C.ar      1 <0>        -0.0770
      5 C5          2.4584    3.7597    0.2508 C.ar      1 <0>        -0.0806
      6 C6          2.4734    5.1389    0.1788 C.ar      1 <0>        -0.1013
      7 I1          4.2034    6.1987    0.7015 I         1 <0>        -0.0420
      8 C7          1.3500    1.5489   -0.0025 C.3       1 <0>         0.0855
      9 N1         -0.0116    1.0048    0.0076 N.3       1 <0>        -0.6699
     10 C8         -0.7779    1.5281   -1.1346 C.3       1 <0>         0.0417
     11 C9         -1.0773    3.0061   -0.8815 C.3       1 <0>        -0.0824
     12 H1          1.3523    6.8971   -0.2986 H         1 <0>         0.1300
     13 H2         -0.6754    5.6461   -0.9080 H         1 <0>         0.1314
     14 H3          3.3410    3.2294    0.5768 H         1 <0>         0.1290
     15 H4          1.8914    1.1410   -0.8688 H         1 <0>         0.0496
     16 H5          1.8615    1.2489    0.9240 H         1 <0>         0.0930
     17 H6          0.0314   -0.0922   -0.0607 H         1 <0>         0.3504
     18 H7         -0.1858    1.4172   -2.0550 H         1 <0>         0.0378
     19 H8         -1.7183    0.9661   -1.2336 H         1 <0>         0.0849
     20 H9         -1.8053    3.0930   -0.0614 H         1 <0>         0.0895
     21 H10        -1.4987    3.4519   -1.7946 H         1 <0>         0.0826
@<TRIPOS>BOND
     1    1    6 ar
     2    1    2 ar
     3    1   12 1
     4    2    3 ar
     5    2   13 1
     6    3   11 1
     7    3    4 ar
     8    4    5 ar
     9    4    8 1
    10    5    6 ar
    11    5   14 1
    12    6    7 1
    13    8    9 1
    14    8   15 1
    15    8   16 1
    16    9   10 1
    17    9   17 1
    18   10   11 1
    19   10   18 1
    20   10   19 1
    21   11   20 1
    22   11   21 1
@<TRIPOS>MOLECULE
ZINC12647762
   22    23     0     0     0
SMALL
USER_CHARGES
1,2,3,4-tetrahydroisoquinoline-7-carbonitrile
@<TRIPOS>ATOM
      1 C1         -1.2421    3.1498    0.0323 C.ar      1 <0>        -0.0694
      2 C2         -0.0505    3.8412    0.0244 C.ar      1 <0>        -0.1205
      3 C3          1.1597    3.1617    0.0070 C.ar      1 <0>        -0.0388
      4 C4          1.1783    1.7814    0.0004 C.ar      1 <0>        -0.0822
      5 C5         -0.0126    1.0758    0.0080 C.ar      1 <0>        -0.0651
      6 C6         -1.2311    1.7537    0.0174 C.ar      1 <0>        -0.0311
      7 C7         -2.4626    1.0230    0.0179 C.1       1 <0>         0.2524
      8 N1         -3.4396    0.4433    0.0183 N.1       1 <0>        -0.4138
      9 C8          2.4687    1.0041   -0.0116 C.3       1 <0>         0.0843
     10 N2          3.5816    1.8628   -0.4285 N.3       1 <0>        -0.6706
     11 C9          3.6158    3.0850    0.3905 C.3       1 <0>         0.0408
     12 C10         2.4333    3.9687   -0.0070 C.3       1 <0>        -0.0849
     13 H1         -2.1800    3.6850    0.0452 H         1 <0>         0.1343
     14 H2         -0.0582    4.9211    0.0322 H         1 <0>         0.1347
     15 H3          0.0021   -0.0041    0.0020 H         1 <0>         0.1333
     16 H4          2.6738    0.6184    0.9979 H         1 <0>         0.0510
     17 H5          2.3835    0.1629   -0.7152 H         1 <0>         0.0943
     18 H6          4.5301    1.3198   -0.3043 H         1 <0>         0.3512
     19 H7          3.5421    2.8156    1.4544 H         1 <0>         0.0387
     20 H8          4.5605    3.6196    0.2122 H         1 <0>         0.0851
     21 H9          2.6033    4.3680   -1.0178 H         1 <0>         0.0917
     22 H10         2.3476    4.8015    0.7065 H         1 <0>         0.0847
@<TRIPOS>BOND
     1    1    6 ar
     2    1    2 ar
     3    1   13 1
     4    2    3 ar
     5    2   14 1
     6    3   12 1
     7    3    4 ar
     8    4    5 ar
     9    4    9 1
    10    5    6 ar
    11    5   15 1
    12    6    7 1
    13    7    8 3
    14    9   10 1
    15    9   16 1
    16    9   17 1
    17   10   11 1
    18   10   18 1
    19   11   12 1
    20   11   19 1
    21   11   20 1
    22   12   21 1
    23   12   22 1
@<TRIPOS>MOLECULE
ZINC13686846
   23    24     0     0     0
SMALL
USER_CHARGES
7-nitro-1,2,3,4-tetrahydroisoquinoline
@<TRIPOS>ATOM
      1 C1         -1.2397    3.1278    0.0320 C.ar      1 <0>        -0.0552
      2 C2         -0.0520    3.8320    0.0244 C.ar      1 <0>        -0.1184
      3 C3          1.1605    3.1602    0.0069 C.ar      1 <0>        -0.0173
      4 C4          1.1813    1.7816    0.0003 C.ar      1 <0>        -0.0798
      5 C5         -0.0126    1.0758    0.0080 C.ar      1 <0>        -0.0498
      6 C6         -1.2196    1.7458    0.0173 C.ar      1 <0>        -0.0469
      7 N1         -2.4897    0.9857    0.0178 N.pl3     1 <0>         0.0282
      8 O1         -2.4706   -0.2321    0.0099 O.2       1 <0>        -0.1594
      9 O2         -3.5540    1.5780    0.0261 O.3       1 <0>        -0.1580
     10 C7          2.4725    1.0063   -0.0114 C.3       1 <0>         0.0846
     11 N2          3.5842    1.8668   -0.4281 N.3       1 <0>        -0.6705
     12 C8          3.6163    3.0897    0.3900 C.3       1 <0>         0.0393
     13 C9          2.4313    3.9705   -0.0072 C.3       1 <0>        -0.0882
     14 H1         -2.1819    3.6555    0.0451 H         1 <0>         0.1550
     15 H2         -0.0678    4.9119    0.0324 H         1 <0>         0.1487
     16 H3          0.0021   -0.0041    0.0020 H         1 <0>         0.1540
     17 H4          2.6779    0.6209    0.9982 H         1 <0>         0.0567
     18 H5          2.3887    0.1649   -0.7150 H         1 <0>         0.0998
     19 H6          4.5336    1.3255   -0.3030 H         1 <0>         0.3562
     20 H7          3.5441    2.8209    1.4542 H         1 <0>         0.0409
     21 H8          4.5596    3.6263    0.2105 H         1 <0>         0.0901
     22 H9          2.5999    4.3704   -1.0180 H         1 <0>         0.0988
     23 H10         2.3434    4.8029    0.7065 H         1 <0>         0.0912
@<TRIPOS>BOND
     1    1    6 ar
     2    1    2 ar
     3    1   14 1
     4    2    3 ar
     5    2   15 1
     6    3   13 1
     7    3    4 ar
     8    4    5 ar
     9    4   10 1
    10    5    6 ar
    11    5   16 1
    12    6    7 1
    13    7    8 2
    14    7    9 1
    15   10   11 1
    16   10   17 1
    17   10   18 1
    18   11   12 1
    19   11   19 1
    20   12   13 1
    21   12   20 1
    22   12   21 1
    23   13   22 1
    24   13   23 1
@<TRIPOS>MOLECULE
ZINC19795724
   21    22     0     0     0
SMALL
USER_CHARGES
7-bromo-1,2,3,4-tetrahydroisoquinoline
@<TRIPOS>ATOM
      1 C1          1.3438    5.8190   -0.2391 C.ar      1 <0>        -0.0904
      2 C2          0.2065    5.1152   -0.5815 C.ar      1 <0>        -0.1146
      3 C3          0.1902    3.7309   -0.5077 C.ar      1 <0>        -0.0541
      4 C4          1.3167    3.0520   -0.0936 C.ar      1 <0>        -0.0757
      5 C5          2.4584    3.7596    0.2508 C.ar      1 <0>        -0.0864
      6 C6          2.4733    5.1392    0.1793 C.ar      1 <0>        -0.0926
      7 Br1         4.0346    6.0958    0.6516 Br        1 <0>        -0.0493
      8 C7          1.3500    1.5489   -0.0025 C.3       1 <0>         0.0856
      9 N1         -0.0116    1.0048    0.0076 N.3       1 <0>        -0.6701
     10 C8         -0.7779    1.5281   -1.1346 C.3       1 <0>         0.0416
     11 C9         -1.0771    3.0061   -0.8821 C.3       1 <0>        -0.0821
     12 H1          1.3516    6.8973   -0.2980 H         1 <0>         0.1337
     13 H2         -0.6754    5.6460   -0.9084 H         1 <0>         0.1324
     14 H3          3.3409    3.2293    0.5771 H         1 <0>         0.1327
     15 H4          1.8914    1.1410   -0.8688 H         1 <0>         0.0501
     16 H5          1.8615    1.2489    0.9240 H         1 <0>         0.0936
     17 H6          0.0314   -0.0922   -0.0607 H         1 <0>         0.3506
     18 H7         -0.1860    1.4169   -2.0551 H         1 <0>         0.0379
     19 H8         -1.7184    0.9663   -1.2334 H         1 <0>         0.0850
     20 H9         -1.8053    3.0934   -0.0622 H         1 <0>         0.0895
     21 H10        -1.4982    3.4516   -1.7954 H         1 <0>         0.0827
@<TRIPOS>BOND
     1    1    6 ar
     2    1    2 ar
     3    1   12 1
     4    2    3 ar
     5    2   13 1
     6    3   11 1
     7    3    4 ar
     8    4    5 ar
     9    4    8 1
    10    5    6 ar
    11    5   14 1
    12    6    7 1
    13    8    9 1
    14    8   15 1
    15    8   16 1
    16    9   10 1
    17    9   17 1
    18   10   11 1
    19   10   18 1
    20   10   19 1
    21   11   20 1
    22   11   21 1
@<TRIPOS>MOLECULE
ZINC24714117
   21    22     0     0     0
SMALL
USER_CHARGES
7,8-dichloro-1,2,3,4-tetrahydroisoquinoline
@<TRIPOS>ATOM
      1 C1          1.9782    0.8269   -3.6396 C.ar      1 <0>        -0.1006
      2 C2          1.2840    0.9136   -4.8299 C.ar      1 <0>        -0.0988
      3 C3         -0.0705    1.1931   -4.8175 C.ar      1 <0>        -0.0327
      4 C4         -0.7221    1.3856   -3.6130 C.ar      1 <0>        -0.0276
      5 C5         -0.0238    1.3003   -2.4168 C.ar      1 <0>        -0.0973
      6 C6          1.3258    1.0188   -2.4314 C.ar      1 <0>        -0.0661
      7 C7          2.1249    0.9107   -1.1580 C.3       1 <0>        -0.1206
      8 C8          1.3549    1.5509   -0.0025 C.3       1 <0>         0.0413
      9 N1         -0.0116    1.0048    0.0076 N.3       1 <0>        -0.6595
     10 C9         -0.7747    1.5263   -1.1308 C.3       1 <0>         0.0824
     11 Cl1        -2.4223    1.7359   -3.5974 Cl        1 <0>        -0.0419
     12 Cl2        -0.9503    1.3024   -6.3101 Cl        1 <0>        -0.0457
     13 H1          3.0359    0.6087   -3.6498 H         1 <0>         0.1391
     14 H2          1.7973    0.7640   -5.7682 H         1 <0>         0.1442
     15 H3          2.3072   -0.1495   -0.9284 H         1 <0>         0.0873
     16 H4          3.0868    1.4293   -1.2836 H         1 <0>         0.0890
     17 H5          1.8590    1.3187    0.9472 H         1 <0>         0.0901
     18 H6          1.3223    2.6414   -0.1432 H         1 <0>         0.0778
     19 H7          0.0315   -0.0922   -0.0605 H         1 <0>         0.3460
     20 H8         -0.9393    2.6044   -0.9870 H         1 <0>         0.0954
     21 H9         -1.7450    1.0102   -1.1772 H         1 <0>         0.0980
@<TRIPOS>BOND
     1    1    6 ar
     2    1    2 ar
     3    1   13 1
     4    2    3 ar
     5    2   14 1
     6    3    4 ar
     7    3   12 1
     8    4    5 ar
     9    4   11 1
    10    5   10 1
    11    5    6 ar
    12    6    7 1
    13    7    8 1
    14    7   15 1
    15    7   16 1
    16    8    9 1
    17    8   17 1
    18    8   18 1
    19    9   10 1
    20    9   19 1
    21   10   20 1
    22   10   21 1
@<TRIPOS>MOLECULE
ZINC13801446
   25    26     0     0     0
SMALL
USER_CHARGES
[(3R)-7-bromo-1,2,3,4-tetrahydroisoquinolin-3-yl]methanol
@<TRIPOS>ATOM
      1 C1         -0.0166    1.3764    0.0096 C.ar      1 <0>        -0.0908
      2 C2          0.0021   -0.0041    0.0020 C.ar      1 <0>        -0.1132
      3 C3          1.2077   -0.6885   -0.0150 C.ar      1 <0>        -0.0537
      4 C4          2.3951    0.0124   -0.0248 C.ar      1 <0>        -0.0731
      5 C5          2.3755    1.3989   -0.0145 C.ar      1 <0>        -0.0863
      6 C6          1.1739    2.0803    0.0020 C.ar      1 <0>        -0.0913
      7 Br1         1.1568    3.9712    0.0148 Br        1 <0>        -0.0490
      8 C7          3.7296   -0.6856   -0.0496 C.3       1 <0>         0.0863
      9 N1          3.5831   -2.0879    0.3530 N.3       1 <0>        -0.6659
     10 C8          2.5391   -2.7425   -0.4515 C.3       1 <0>         0.0767
     11 H1          2.7355   -2.5192   -1.5105 H         1 <0>         0.0513
     12 C9          1.1786   -2.1954   -0.0187 C.3       1 <0>        -0.0736
     13 C10         2.5830   -4.2541   -0.2189 C.3       1 <0>         0.0894
     14 O1          3.8093   -4.7794   -0.7310 O.3       1 <0>        -0.6063
     15 H2         -0.9583    1.9051    0.0169 H         1 <0>         0.1341
     16 H3         -0.9275   -0.5538    0.0090 H         1 <0>         0.1327
     17 H4          3.3048    1.9491   -0.0201 H         1 <0>         0.1332
     18 H5          4.1444   -0.6476   -1.0677 H         1 <0>         0.0501
     19 H6          4.4186   -0.1842    0.6460 H         1 <0>         0.0945
     20 H7          4.5369   -2.6144    0.2014 H         1 <0>         0.3593
     21 H8          0.9466   -2.5601    0.9928 H         1 <0>         0.0917
     22 H9          0.4074   -2.5455   -0.7206 H         1 <0>         0.0842
     23 H10         2.5173   -4.4612    0.8594 H         1 <0>         0.0550
     24 H11         1.7363   -4.7294   -0.7358 H         1 <0>         0.0492
     25 H12         4.0213   -5.8560   -0.6538 H         1 <0>         0.4153
@<TRIPOS>BOND
     1    1    6 ar
     2    1    2 ar
     3    1   15 1
     4    2    3 ar
     5    2   16 1
     6    3   12 1
     7    3    4 ar
     8    4    5 ar
     9    4    8 1
    10    5    6 ar
    11    5   17 1
    12    6    7 1
    13    8    9 1
    14    8   18 1
    15    8   19 1
    16    9   10 1
    17    9   20 1
    18   10   11 1
    19   10   12 1
    20   10   13 1
    21   12   21 1
    22   12   22 1
    23   13   14 1
    24   13   23 1
    25   13   24 1
    26   14   25 1
@<TRIPOS>MOLECULE
ZINC13801449
   25    26     0     0     0
SMALL
USER_CHARGES
[(3S)-7-bromo-1,2,3,4-tetrahydroisoquinolin-3-yl]methanol
@<TRIPOS>ATOM
      1 C1         -0.0166    1.3764    0.0096 C.ar      1 <0>        -0.0908
      2 C2          0.0021   -0.0041    0.0020 C.ar      1 <0>        -0.1099
      3 C3          1.2077   -0.6885   -0.0122 C.ar      1 <0>        -0.0654
      4 C4          2.3952    0.0123   -0.0175 C.ar      1 <0>        -0.1104
      5 C5          2.3755    1.3989   -0.0115 C.ar      1 <0>        -0.0833
      6 C6          1.1739    2.0803    0.0020 C.ar      1 <0>        -0.0902
      7 Br1         1.1568    3.9712    0.0102 Br        1 <0>        -0.0476
      8 C7          3.7299   -0.6857   -0.0268 C.3       1 <0>         0.0858
      9 N1          3.5754   -2.0834   -0.4424 N.3       1 <0>        -0.6477
     10 C8          2.5472   -2.7472    0.3748 C.3       1 <0>         0.0749
     11 H1          2.7643   -2.5360    1.4323 H         1 <0>         0.0910
     12 C9          1.1785   -2.1954   -0.0252 C.3       1 <0>        -0.1123
     13 C10         2.5863   -4.2560    0.1242 C.3       1 <0>         0.0989
     14 O1          3.8223   -4.7871    0.6062 O.3       1 <0>        -0.5890
     15 H2         -0.9583    1.9051    0.0170 H         1 <0>         0.1343
     16 H3         -0.9275   -0.5538    0.0068 H         1 <0>         0.1323
     17 H4          3.3048    1.9491   -0.0184 H         1 <0>         0.1344
     18 H5          4.4052   -0.1763   -0.7300 H         1 <0>         0.0937
     19 H6          4.1646   -0.6592    0.9833 H         1 <0>         0.0914
     20 H7          3.2737   -2.1204   -1.4996 H         1 <0>         0.3391
     21 H8          0.4210   -2.5536    0.6875 H         1 <0>         0.0880
     22 H9          0.9268   -2.5486   -1.0361 H         1 <0>         0.0872
     23 H10         1.7498   -4.7372    0.6521 H         1 <0>         0.0457
     24 H11         2.4995   -4.4508   -0.9549 H         1 <0>         0.0434
     25 H12         4.0325   -5.8628    0.5126 H         1 <0>         0.4065
@<TRIPOS>BOND
     1    1    6 ar
     2    1    2 ar
     3    1   15 1
     4    2    3 ar
     5    2   16 1
     6    3   12 1
     7    3    4 ar
     8    4    5 ar
     9    4    8 1
    10    5    6 ar
    11    5   17 1
    12    6    7 1
    13    8    9 1
    14    8   18 1
    15    8   19 1
    16    9   10 1
    17    9   20 1
    18   10   11 1
    19   10   12 1
    20   10   13 1
    21   12   21 1
    22   12   22 1
    23   13   14 1
    24   13   23 1
    25   13   24 1
    26   14   25 1
@<TRIPOS>MOLECULE
ZINC13517589
   29    30     0     0     0
SMALL
USER_CHARGES

@<TRIPOS>ATOM
      1 C1         -0.0167    1.3780    0.0096 C.ar      1 <0>        -0.0188
      2 C2          1.1717    2.0810    0.0020 C.ar      1 <0>        -0.1391
      3 C3          2.3836    1.4079   -0.0116 C.ar      1 <0>        -0.0086
      4 C4          2.4030    0.0292   -0.0155 C.ar      1 <0>        -0.1006
      5 C5          1.2084   -0.6753   -0.0110 C.ar      1 <0>        -0.0117
      6 C6          0.0021   -0.0041    0.0020 C.ar      1 <0>        -0.6758
      7 S1         -1.5107   -0.9074    0.0084 S.o2      1 <0>         2.7025
      8 O1         -1.2169   -2.1878    0.5502 O.2       1 <0>        -0.9630
      9 O2         -2.4937   -0.0494    0.5712 O.2       1 <0>        -0.9625
     10 N1         -1.9429   -1.1499   -1.5717 N.pl3     1 <0>        -1.2496
     11 C7          3.6936   -0.7473   -0.0180 C.3       1 <0>         0.0944
     12 N2          4.8084    0.1107   -0.4315 N.3       1 <0>        -0.6788
     13 C8          4.8375    1.3366    0.3820 C.3       1 <0>         0.0493
     14 H1          4.7554    1.0776    1.4376 H         1 <0>         0.0593
     15 C9          3.6552    2.2168   -0.0245 C.3       1 <0>        -0.0803
     16 C10         6.1491    2.0852    0.1369 C.3       1 <0>         0.0646
     17 F1          7.2266    1.2665    0.4918 F         1 <0>        -0.2147
     18 H2         -0.9583    1.9066    0.0260 H         1 <0>         0.1451
     19 H3          1.1571    3.1609    0.0064 H         1 <0>         0.1363
     20 H4          1.2219   -1.7552   -0.0177 H         1 <0>         0.1442
     21 H5         -1.3823   -0.8082   -2.2858 H         1 <0>         0.4171
     22 H6         -2.7566   -1.6337   -1.7832 H         1 <0>         0.4218
     23 H7          3.8859   -1.1287    0.9848 H         1 <0>         0.0533
     24 H8          3.6082   -1.5848   -0.7105 H         1 <0>         0.0974
     25 H9          5.6862   -0.3834   -0.3723 H         1 <0>         0.3568
     26 H10         3.8241    2.6095   -1.0272 H         1 <0>         0.0982
     27 H11         3.5636    3.0463    0.6767 H         1 <0>         0.0907
     28 H12         6.2253    2.3489   -0.9180 H         1 <0>         0.0877
     29 H13         6.1679    2.9925    0.7405 H         1 <0>         0.0848
@<TRIPOS>BOND
     1    1    6 ar
     2    1    2 ar
     3    1   18 1
     4    2    3 ar
     5    2   19 1
     6    3   15 1
     7    3    4 ar
     8    4    5 ar
     9    4   11 1
    10    5    6 ar
    11    5   20 1
    12    6    7 1
    13    7    8 2
    14    7    9 2
    15    7   10 1
    16   10   21 1
    17   10   22 1
    18   11   12 1
    19   11   23 1
    20   11   24 1
    21   12   13 1
    22   12   25 1
    23   13   14 1
    24   13   15 1
    25   13   16 1
    26   15   26 1
    27   15   27 1
    28   16   17 1
    29   16   28 1
    30   16   29 1
@<TRIPOS>MOLECULE
ZINC13686981
   24    25     0     0     0
SMALL
USER_CHARGES
(3S)-3-(difluoromethyl)-1,2,3,4-tetrahydroisoquinoline
@<TRIPOS>ATOM
      1 C1         -2.3098    5.7262    3.8166 C.ar      1 <0>        -0.1178
      2 C2         -2.2393    4.9561    4.9627 C.ar      1 <0>        -0.1197
      3 C3         -1.7247    3.6770    4.9007 C.ar      1 <0>        -0.1143
      4 C4         -1.2778    3.1583    3.6940 C.ar      1 <0>        -0.0825
      5 C5         -1.3452    3.9277    2.5524 C.ar      1 <0>        -0.0697
      6 C6         -1.8634    5.2125    2.6157 C.ar      1 <0>        -0.1181
      7 C7         -0.8659    3.4106    1.2204 C.3       1 <0>        -0.0733
      8 C8         -0.7330    1.8882    1.2685 C.3       1 <0>         0.0329
      9 H1         -1.7193    1.4085    1.3527 H         1 <0>         0.0754
     10 N1          0.0525    1.5248    2.4586 N.3       1 <0>        -0.6610
     11 C9         -0.7335    1.7540    3.6750 C.3       1 <0>         0.0885
     12 C10        -0.0169    1.3948    0.0097 C.3       1 <0>         0.2673
     13 F1          0.0021   -0.0041    0.0020 F         1 <0>        -0.2095
     14 F2          1.2956    1.8790   -0.0002 F         1 <0>        -0.1958
     15 H2         -2.7128    6.7272    3.8609 H         1 <0>         0.1240
     16 H3         -2.5858    5.3549    5.9047 H         1 <0>         0.1241
     17 H4         -1.6700    3.0762    5.7965 H         1 <0>         0.1233
     18 H5         -1.9181    5.8143    1.7205 H         1 <0>         0.1234
     19 H6         -1.5886    3.6865    0.4384 H         1 <0>         0.0865
     20 H7          0.1139    3.8525    0.9865 H         1 <0>         0.0962
     21 H8          0.3295    0.4616    2.4045 H         1 <0>         0.3549
     22 H9         -0.0881    1.5990    4.5522 H         1 <0>         0.0973
     23 H10        -1.5674    1.0371    3.7022 H         1 <0>         0.0505
     24 H11        -0.4844    1.7148   -0.9332 H         1 <0>         0.1171
@<TRIPOS>BOND
     1    1    6 ar
     2    1    2 ar
     3    1   15 1
     4    2    3 ar
     5    2   16 1
     6    3    4 ar
     7    3   17 1
     8    4   11 1
     9    4    5 ar
    10    5    6 ar
    11    5    7 1
    12    6   18 1
    13    7    8 1
    14    7   19 1
    15    7   20 1
    16    8    9 1
    17    8   10 1
    18    8   12 1
    19   10   11 1
    20   10   21 1
    21   11   22 1
    22   11   23 1
    23   12   13 1
    24   12   14 1
    25   12   24 1
@<TRIPOS>MOLECULE
ZINC13686985
   24    25     0     0     0
SMALL
USER_CHARGES
(3R)-3-(difluoromethyl)-1,2,3,4-tetrahydroisoquinoline
@<TRIPOS>ATOM
      1 C1          2.3929    0.0167   -0.0277 C.ar      1 <0>        -0.1174
      2 C2          1.2020   -0.6857   -0.0166 C.ar      1 <0>        -0.1186
      3 C3          0.0021   -0.0041    0.0020 C.ar      1 <0>        -0.1111
      4 C4         -0.0167    1.3831    0.0096 C.ar      1 <0>        -0.1191
      5 C5          1.1708    2.0827    0.0021 C.ar      1 <0>        -0.0808
      6 C6          2.3760    1.3969   -0.0183 C.ar      1 <0>        -0.1150
      7 C7          1.2013    3.5895    0.0208 C.3       1 <0>        -0.1136
      8 C8         -0.1671    4.1442   -0.3760 C.3       1 <0>         0.0327
      9 H1         -0.3854    3.9369   -1.4340 H         1 <0>         0.1136
     10 N1         -1.1953    3.4787    0.4397 N.3       1 <0>        -0.6553
     11 C9         -1.3508    2.0822    0.0199 C.3       1 <0>         0.0878
     12 C10        -0.2043    5.6521   -0.1200 C.3       1 <0>         0.2742
     13 F1         -1.4576    6.1561   -0.4841 F         1 <0>        -0.1993
     14 F2          0.0215    5.9003    1.2382 F         1 <0>        -0.2078
     15 H2          3.3338   -0.5131   -0.0432 H         1 <0>         0.1243
     16 H3          1.2108   -1.7656   -0.0229 H         1 <0>         0.1242
     17 H4         -0.9276   -0.5537    0.0111 H         1 <0>         0.1245
     18 H5          3.3062    1.9456   -0.0270 H         1 <0>         0.1231
     19 H6          1.4541    3.9386    1.0329 H         1 <0>         0.0923
     20 H7          1.9585    3.9498   -0.6911 H         1 <0>         0.0896
     21 H8         -0.8973    3.5050    1.4982 H         1 <0>         0.3514
     22 H9         -1.7847    2.0590   -0.9906 H         1 <0>         0.0907
     23 H10        -2.0271    1.5714    0.7211 H         1 <0>         0.0957
     24 H11         0.5480    6.2262   -0.6807 H         1 <0>         0.1138
@<TRIPOS>BOND
     1    1    6 ar
     2    1    2 ar
     3    1   15 1
     4    2    3 ar
     5    2   16 1
     6    3    4 ar
     7    3   17 1
     8    4   11 1
     9    4    5 ar
    10    5    6 ar
    11    5    7 1
    12    6   18 1
    13    7    8 1
    14    7   19 1
    15    7   20 1
    16    8    9 1
    17    8   10 1
    18    8   12 1
    19   10   11 1
    20   10   21 1
    21   11   22 1
    22   11   23 1
    23   12   13 1
    24   12   14 1
    25   12   24 1
@<TRIPOS>MOLECULE
ZINC13686858
   24    25     0     0     0
SMALL
USER_CHARGES
(3S)-7-bromo-3-(difluoromethyl)-1,2,3,4-tetrahydroisoquinoline
@<TRIPOS>ATOM
      1 C1          3.2703    0.9344   -3.7741 C.ar      1 <0>        -0.0879
      2 C2          1.8968    0.8286   -3.6827 C.ar      1 <0>        -0.1081
      3 C3          1.2584    1.0213   -2.4673 C.ar      1 <0>        -0.0624
      4 C4          1.9979    1.3243   -1.3436 C.ar      1 <0>        -0.1149
      5 C5          3.3776    1.4293   -1.4359 C.ar      1 <0>        -0.0812
      6 C6          4.0134    1.2349   -2.6469 C.ar      1 <0>        -0.0902
      7 Br1         5.8952    1.3799   -2.7632 Br        1 <0>        -0.0456
      8 C7          1.3500    1.5489   -0.0025 C.3       1 <0>         0.0901
      9 N1         -0.0116    1.0048    0.0076 N.3       1 <0>        -0.6563
     10 C8         -0.7783    1.5281   -1.1343 C.3       1 <0>         0.0339
     11 H1         -0.6514    2.6205   -1.1574 H         1 <0>         0.1154
     12 C9         -0.2417    0.8861   -2.4141 C.3       1 <0>        -0.1187
     13 C10        -2.2577    1.1771   -0.9643 C.3       1 <0>         0.2729
     14 F1         -2.9833    1.6761   -2.0514 F         1 <0>        -0.2062
     15 F2         -2.4033   -0.2130   -0.9050 F         1 <0>        -0.2058
     16 H2          3.7632    0.7834   -4.7231 H         1 <0>         0.1354
     17 H3          1.3166    0.5939   -4.5629 H         1 <0>         0.1337
     18 H4          3.9583    1.6642   -0.5561 H         1 <0>         0.1355
     19 H5          1.9407    1.0480    0.7786 H         1 <0>         0.1002
     20 H6          1.3052    2.6278    0.2070 H         1 <0>         0.0952
     21 H7          0.0314   -0.0922   -0.0609 H         1 <0>         0.3548
     22 H8         -0.6863    1.3889   -3.2856 H         1 <0>         0.0951
     23 H9         -0.5145   -0.1795   -2.4269 H         1 <0>         0.0951
     24 H10        -2.7198    1.5874   -0.0543 H         1 <0>         0.1202
@<TRIPOS>BOND
     1    1    6 ar
     2    1    2 ar
     3    1   16 1
     4    2    3 ar
     5    2   17 1
     6    3   12 1
     7    3    4 ar
     8    4    5 ar
     9    4    8 1
    10    5    6 ar
    11    5   18 1
    12    6    7 1
    13    8    9 1
    14    8   19 1
    15    8   20 1
    16    9   10 1
    17    9   21 1
    18   10   11 1
    19   10   12 1
    20   10   13 1
    21   12   22 1
    22   12   23 1
    23   13   14 1
    24   13   15 1
    25   13   24 1
@<TRIPOS>MOLECULE
ZINC13686862
   24    25     0     0     0
SMALL
USER_CHARGES
(3R)-7-bromo-3-(difluoromethyl)-1,2,3,4-tetrahydroisoquinoline
@<TRIPOS>ATOM
      1 C1         -0.0126    1.0758    0.0080 C.ar      1 <0>        -0.0878
      2 C2         -1.2164    1.7517    0.0173 C.ar      1 <0>        -0.1113
      3 C3         -1.2416    3.1378    0.0307 C.ar      1 <0>        -0.0511
      4 C4         -0.0587    3.8463    0.0275 C.ar      1 <0>        -0.0785
      5 C5          1.1500    3.1667    0.0103 C.ar      1 <0>        -0.0841
      6 C6          1.1745    1.7855    0.0004 C.ar      1 <0>        -0.0913
      7 Br1         2.8274    0.8672   -0.0226 Br        1 <0>        -0.0469
      8 C7         -0.0343    5.3522    0.0484 C.3       1 <0>         0.0909
      9 N1         -1.3385    5.8924   -0.3478 N.3       1 <0>        -0.6588
     10 C8         -2.4079    5.2904    0.4643 C.3       1 <0>         0.0319
     11 H1         -2.1122    5.3600    1.5215 H         1 <0>         0.0777
     12 C9         -2.5793    3.8323    0.0373 C.3       1 <0>        -0.0786
     13 C10        -3.7163    6.0499    0.2359 C.3       1 <0>         0.2693
     14 F1         -4.1135    5.9042   -1.0976 F         1 <0>        -0.1962
     15 F2         -4.7080    5.5339    1.0770 F         1 <0>        -0.2044
     16 H2          0.0021   -0.0041    0.0020 H         1 <0>         0.1353
     17 H3         -2.1434    1.1976    0.0184 H         1 <0>         0.1341
     18 H4          2.0773    3.7203    0.0042 H         1 <0>         0.1342
     19 H5          0.2033    5.7010    1.0642 H         1 <0>         0.0553
     20 H6          0.7312    5.7163   -0.6527 H         1 <0>         0.1018
     21 H7         -1.3445    6.9823   -0.1989 H         1 <0>         0.3537
     22 H8         -3.0146    3.7992   -0.9724 H         1 <0>         0.1007
     23 H9         -3.2526    3.3246    0.7437 H         1 <0>         0.0910
     24 H10        -3.6551    7.1297    0.4365 H         1 <0>         0.1133
@<TRIPOS>BOND
     1    1    6 ar
     2    1    2 ar
     3    1   16 1
     4    2    3 ar
     5    2   17 1
     6    3   12 1
     7    3    4 ar
     8    4    5 ar
     9    4    8 1
    10    5    6 ar
    11    5   18 1
    12    6    7 1
    13    8    9 1
    14    8   19 1
    15    8   20 1
    16    9   10 1
    17    9   21 1
    18   10   11 1
    19   10   12 1
    20   10   13 1
    21   12   22 1
    22   12   23 1
    23   13   14 1
    24   13   15 1
    25   13   24 1
@<TRIPOS>MOLECULE
ZINC02516060
   21    21     0     0     0
SMALL
USER_CHARGES

@<TRIPOS>ATOM
      1 C1         -0.0187    1.5258    0.0104 C.3       1 <0>        -0.1819
      2 C2          0.0021   -0.0041    0.0020 C.3       1 <0>         0.0789
      3 H1         -1.0205   -0.3814    0.0098 H         1 <0>         0.1540
      4 C3          0.7309   -0.5033    1.2229 C.ar      1 <0>        -0.1235
      5 C4          2.0773   -0.8081    1.1477 C.ar      1 <0>        -0.1169
      6 C5          2.7466   -1.2661    2.2670 C.ar      1 <0>        -0.0810
      7 C6          2.0703   -1.4203    3.4629 C.ar      1 <0>        -0.0750
      8 C7          0.7234   -1.1159    3.5399 C.ar      1 <0>        -0.0209
      9 C8          0.0543   -0.6511    2.4200 C.ar      1 <0>        -0.0159
     10 Cl1        -1.6346   -0.2612    2.5169 Cl        1 <0>        -0.0206
     11 Cl2        -0.1263   -1.3094    5.0413 Cl        1 <0>        -0.0143
     12 N1          0.6897   -0.4778   -1.2066 N.4       1 <0>        -0.6346
     13 H2          1.0039    1.9031    0.0027 H         1 <0>         0.0876
     14 H3         -0.5459    1.8868   -0.8726 H         1 <0>         0.0934
     15 H4         -0.5289    1.8773    0.9072 H         1 <0>         0.1095
     16 H5          2.6064   -0.6886    0.2138 H         1 <0>         0.1346
     17 H6          3.7984   -1.5039    2.2072 H         1 <0>         0.1541
     18 H7          2.5937   -1.7789    4.3369 H         1 <0>         0.1575
     19 H8          1.6363   -0.1286   -1.2138 H         1 <0>         0.4326
     20 H9          0.7033   -1.4867   -1.2121 H         1 <0>         0.4397
     21 H10         0.2017   -0.1436   -2.0240 H         1 <0>         0.4426
@<TRIPOS>BOND
     1    1    2 1
     2    1   13 1
     3    1   14 1
     4    1   15 1
     5    2    3 1
     6    2    4 1
     7    2   12 1
     8    4    9 ar
     9    4    5 ar
    10    5    6 ar
    11    5   16 1
    12    6    7 ar
    13    6   17 1
    14    7    8 ar
    15    7   18 1
    16    8    9 ar
    17    8   11 1
    18    9   10 1
    19   12   19 1
    20   12   20 1
    21   12   21 1
@<TRIPOS>MOLECULE
ZINC03870307
   21    21     0     0     0
SMALL
USER_CHARGES

@<TRIPOS>ATOM
      1 C1         -0.0187    1.5258    0.0104 C.3       1 <0>        -0.1833
      2 C2          0.0021   -0.0041    0.0020 C.3       1 <0>         0.0799
      3 H1         -1.0205   -0.3814    0.0098 H         1 <0>         0.1546
      4 C3          0.7074   -0.4901   -1.2379 C.ar      1 <0>        -0.1218
      5 C4          2.0245   -0.9044   -1.1664 C.ar      1 <0>        -0.1196
      6 C5          2.6722   -1.3502   -2.3031 C.ar      1 <0>        -0.0800
      7 C6          2.0040   -1.3820   -3.5129 C.ar      1 <0>        -0.0759
      8 C7          0.6864   -0.9679   -3.5863 C.ar      1 <0>        -0.0200
      9 C8          0.0355   -0.5270   -2.4461 C.ar      1 <0>        -0.0166
     10 Cl1        -1.6206   -0.0141   -2.5350 Cl        1 <0>        -0.0205
     11 Cl2        -0.1531   -1.0075   -5.1052 Cl        1 <0>        -0.0141
     12 N1          0.7126   -0.4907    1.1921 N.4       1 <0>        -0.6348
     13 H2          1.0039    1.9031    0.0027 H         1 <0>         0.0878
     14 H3         -0.5459    1.8868   -0.8726 H         1 <0>         0.1097
     15 H4         -0.5289    1.8773    0.9072 H         1 <0>         0.0936
     16 H5          2.5476   -0.8793   -0.2219 H         1 <0>         0.1337
     17 H6          3.7011   -1.6737   -2.2462 H         1 <0>         0.1540
     18 H7          2.5109   -1.7298   -4.4009 H         1 <0>         0.1576
     19 H8          0.2403   -0.1653    2.0223 H         1 <0>         0.4428
     20 H9          0.7262   -1.4996    1.1866 H         1 <0>         0.4396
     21 H10         1.6592   -0.1415    1.1850 H         1 <0>         0.4333
@<TRIPOS>BOND
     1    1    2 1
     2    1   13 1
     3    1   14 1
     4    1   15 1
     5    2    3 1
     6    2    4 1
     7    2   12 1
     8    4    9 ar
     9    4    5 ar
    10    5    6 ar
    11    5   16 1
    12    6    7 ar
    13    6   17 1
    14    7    8 ar
    15    7   18 1
    16    8    9 ar
    17    8   11 1
    18    9   10 1
    19   12   19 1
    20   12   20 1
    21   12   21 1
@<TRIPOS>MOLECULE
ZINC29039133
   21    22     0     0     0
SMALL
USER_CHARGES
(3aR,7aS)-2-bromo-3a,4,5,6,7,7a-hexahydrothieno[3,2-c]pyridine
@<TRIPOS>ATOM
      1 C1         -0.7607    1.6584    1.2123 C.3       1 <0>        -0.1494
      2 C2         -2.2700    1.4720    0.9987 C.3       1 <0>        -0.0011
      3 N1         -2.6938    2.2236   -0.1844 N.4       1 <0>        -0.5278
      4 C3         -2.0302    1.7868   -1.4013 C.3       1 <0>         0.0050
      5 C4         -0.5350    1.6859   -1.3076 C.3       1 <0>        -0.0922
      6 H1         -0.2918    0.9793   -2.1148 H         1 <0>         0.1328
      7 C5         -0.0127    1.0858    0.0080 C.3       1 <0>        -0.0713
      8 H2         -0.2462    0.0131    0.0769 H         1 <0>         0.1493
      9 S1          1.6757    1.8338   -0.0041 S.3       1 <0>        -0.0675
     10 C6          1.3453    3.2068   -1.0949 C.2       1 <0>        -0.0970
     11 C7          0.1752    2.9484   -1.6576 C.2       1 <0>        -0.1726
     12 Br1         2.4413    4.7198   -1.3870 Br        1 <0>         0.0523
     13 H3         -0.4471    1.1292    2.1242 H         1 <0>         0.1249
     14 H4         -0.5298    2.7292    1.3121 H         1 <0>         0.0952
     15 H5         -2.4905    0.4043    0.8524 H         1 <0>         0.1317
     16 H6         -2.8135    1.8411    1.8809 H         1 <0>         0.1414
     17 H7         -3.7768    2.0976   -0.3303 H         1 <0>         0.4610
     18 H8         -2.3965    0.7878   -1.6803 H         1 <0>         0.1362
     19 H9         -2.2478    2.4969   -2.2127 H         1 <0>         0.1417
     20 H10        -0.2604    3.6613   -2.3731 H         1 <0>         0.1565
     21 H11        -2.4646    3.2901   -0.0428 H         1 <0>         0.4510
@<TRIPOS>BOND
     1    1    7 1
     2    1    2 1
     3    1   13 1
     4    1   14 1
     5    2    3 1
     6    2   15 1
     7    2   16 1
     8    3    4 1
     9    3   17 1
    10    3   21 1
    11    4    5 1
    12    4   18 1
    13    4   19 1
    14    5    6 1
    15    5   11 1
    16    5    7 1
    17    7    8 1
    18    7    9 1
    19    9   10 1
    20   10   11 2
    21   10   12 1
    22   11   20 1
@<TRIPOS>MOLECULE
ZINC29039135
   21    22     0     0     0
SMALL
USER_CHARGES
(3aS,7aS)-2-bromo-3a,4,5,6,7,7a-hexahydrothieno[3,2-c]pyridine
@<TRIPOS>ATOM
      1 C1         -1.0713    5.7495    0.1979 C.3       1 <0>        -0.1332
      2 C2         -0.0688    6.8379   -0.2335 C.3       1 <0>         0.0021
      3 N1          1.3158    6.4788    0.0669 N.4       1 <0>        -0.5338
      4 C3          1.7202    5.1769   -0.4694 C.3       1 <0>         0.0084
      5 C4          0.7585    4.1543    0.0899 C.3       1 <0>        -0.0949
      6 H1          0.8965    4.2355    1.1782 H         1 <0>         0.1271
      7 C5         -0.6385    4.4820   -0.5346 C.3       1 <0>        -0.0873
      8 H2         -0.7130    4.8069   -1.5829 H         1 <0>         0.1386
      9 S1         -1.4666    2.9485    0.0240 S.3       1 <0>        -0.0743
     10 C6         -0.0236    1.8867    0.0124 C.2       1 <0>        -0.1068
     11 C7          1.0331    2.7095    0.0067 C.2       1 <0>        -0.1452
     12 Br1         0.0021   -0.0041    0.0020 Br        1 <0>         0.0495
     13 H3         -2.0986    6.0104   -0.0964 H         1 <0>         0.1237
     14 H4         -1.0337    5.5766    1.2836 H         1 <0>         0.1027
     15 H5         -0.1475    6.9995   -1.3187 H         1 <0>         0.1294
     16 H6         -0.2962    7.7758    0.2943 H         1 <0>         0.1408
     17 H7          1.9917    7.2326   -0.3632 H         1 <0>         0.4628
     18 H8          1.6684    5.2008   -1.5679 H         1 <0>         0.1353
     19 H9          2.7509    4.9552   -0.1556 H         1 <0>         0.1434
     20 H10         2.0509    2.2972   -0.0581 H         1 <0>         0.1609
     21 H11         1.4563    6.4400    1.1572 H         1 <0>         0.4507
@<TRIPOS>BOND
     1    1    7 1
     2    1    2 1
     3    1   13 1
     4    1   14 1
     5    2    3 1
     6    2   15 1
     7    2   16 1
     8    3    4 1
     9    3   17 1
    10    3   21 1
    11    4    5 1
    12    4   18 1
    13    4   19 1
    14    5    6 1
    15    5   11 1
    16    5    7 1
    17    7    8 1
    18    7    9 1
    19    9   10 1
    20   10   11 2
    21   10   12 1
    22   11   20 1
@<TRIPOS>MOLECULE
ZINC29039136
   21    22     0     0     0
SMALL
USER_CHARGES
(3aR,7aR)-2-bromo-3a,4,5,6,7,7a-hexahydrothieno[3,2-c]pyridine
@<TRIPOS>ATOM
      1 C1         -1.7962    0.4209    1.5268 C.3       1 <0>        -0.1342
      2 C2         -2.7809    0.6611    0.3688 C.3       1 <0>         0.0029
      3 N1         -2.1423    0.5825   -0.9440 N.4       1 <0>        -0.5378
      4 C3         -0.9749    1.4734   -1.0877 C.3       1 <0>         0.0139
      5 C4         -0.0127    1.0858    0.0080 C.3       1 <0>        -0.0983
      6 H1          0.1931    0.0294   -0.2194 H         1 <0>         0.1244
      7 C5         -0.6892    1.4551    1.3656 C.3       1 <0>        -0.0828
      8 H2         -1.2622    2.3903    1.4496 H         1 <0>         0.1385
      9 S1          0.7866    1.1527    2.4088 S.3       1 <0>        -0.0745
     10 C6          2.0277    1.5484    1.1787 C.2       1 <0>        -0.1083
     11 C7          1.3992    1.4933   -0.0033 C.2       1 <0>        -0.1430
     12 Br1         3.8479    1.9593    1.4853 Br        1 <0>         0.0497
     13 H3         -1.3643   -0.5895    1.4755 H         1 <0>         0.1021
     14 H4         -2.2891    0.5600    2.5003 H         1 <0>         0.1239
     15 H5         -3.5768   -0.0975    0.4010 H         1 <0>         0.1405
     16 H6         -3.2249    1.6627    0.4668 H         1 <0>         0.1291
     17 H7         -1.7943   -0.4458   -1.1215 H         1 <0>         0.4505
     18 H8         -0.5234    1.3289   -2.0803 H         1 <0>         0.1439
     19 H9         -1.2967    2.5198   -0.9800 H         1 <0>         0.1358
     20 H10         1.9407    1.7473   -0.9265 H         1 <0>         0.1612
     21 H11        -2.8674    0.8636   -1.7219 H         1 <0>         0.4625
@<TRIPOS>BOND
     1    1    7 1
     2    1    2 1
     3    1   13 1
     4    1   14 1
     5    2    3 1
     6    2   15 1
     7    2   16 1
     8    3    4 1
     9    3   17 1
    10    3   21 1
    11    4    5 1
    12    4   18 1
    13    4   19 1
    14    5    6 1
    15    5   11 1
    16    5    7 1
    17    7    8 1
    18    7    9 1
    19    9   10 1
    20   10   11 2
    21   10   12 1
    22   11   20 1
@<TRIPOS>MOLECULE
ZINC29039138
   21    22     0     0     0
SMALL
USER_CHARGES
(3aS,7aR)-2-bromo-3a,4,5,6,7,7a-hexahydrothieno[3,2-c]pyridine
@<TRIPOS>ATOM
      1 C1         -0.7532    1.5923   -1.2236 C.3       1 <0>        -0.1541
      2 C2         -0.0127    1.0858    0.0080 C.3       1 <0>         0.0003
      3 N1         -0.7040    1.5614    1.2144 N.4       1 <0>        -0.5354
      4 C3         -0.6042    3.0209    1.3025 C.3       1 <0>         0.0133
      5 C4         -1.2394    3.7011    0.1147 C.3       1 <0>        -0.0910
      6 H1         -0.8243    4.7187    0.1614 H         1 <0>         0.1352
      7 C5         -0.8445    3.1077   -1.2413 C.3       1 <0>        -0.0735
      8 H2          0.1994    3.3672   -1.4713 H         1 <0>         0.1469
      9 S1         -2.3359    3.5835   -2.2196 S.3       1 <0>        -0.0613
     10 C6         -3.4768    3.8038   -0.8654 C.2       1 <0>        -0.0955
     11 C7         -2.7356    3.8320    0.2305 C.2       1 <0>        -0.1770
     12 Br1        -5.3578    3.9645   -0.9740 Br        1 <0>         0.0537
     13 H3         -1.7664    1.1640   -1.2184 H         1 <0>         0.0945
     14 H4         -0.2137    1.2470   -2.1179 H         1 <0>         0.1236
     15 H5          0.0029   -0.0141   -0.0001 H         1 <0>         0.1407
     16 H6          1.0190    1.4672   -0.0018 H         1 <0>         0.1319
     17 H7         -1.7642    1.2720    1.1676 H         1 <0>         0.4520
     18 H8         -1.1148    3.3691    2.2125 H         1 <0>         0.1413
     19 H9          0.4552    3.3143    1.3415 H         1 <0>         0.1385
     20 H10        -3.2130    3.9502    1.2145 H         1 <0>         0.1562
     21 H11        -0.2400    1.1112    2.1044 H         1 <0>         0.4598
@<TRIPOS>BOND
     1    1    7 1
     2    1    2 1
     3    1   13 1
     4    1   14 1
     5    2    3 1
     6    2   15 1
     7    2   16 1
     8    3    4 1
     9    3   17 1
    10    3   21 1
    11    4    5 1
    12    4   18 1
    13    4   19 1
    14    5    6 1
    15    5   11 1
    16    5    7 1
    17    7    8 1
    18    7    9 1
    19    9   10 1
    20   10   11 2
    21   10   12 1
    22   11   20 1
@<TRIPOS>MOLECULE
ZINC13686935
   29    30     0     0     0
SMALL
USER_CHARGES

@<TRIPOS>ATOM
      1 C1         -0.0167    1.3780    0.0096 C.ar      1 <0>        -0.0169
      2 C2          1.1717    2.0810    0.0020 C.ar      1 <0>        -0.1341
      3 C3          2.3835    1.4079   -0.0147 C.ar      1 <0>        -0.0194
      4 C4          2.4029    0.0293   -0.0261 C.ar      1 <0>        -0.1419
      5 C5          1.2084   -0.6753   -0.0155 C.ar      1 <0>        -0.0070
      6 C6          0.0021   -0.0041    0.0020 C.ar      1 <0>        -0.6742
      7 S1         -1.5107   -0.9075    0.0141 S.o2      1 <0>         2.7021
      8 O1         -1.2148   -2.1878    0.5548 O.2       1 <0>        -0.9613
      9 O2         -2.4916   -0.0494    0.5805 O.2       1 <0>        -0.9613
     10 N1         -1.9487   -1.1500   -1.5644 N.pl3     1 <0>        -1.2494
     11 C7          3.6932   -0.7471   -0.0566 C.3       1 <0>         0.0980
     12 N2          4.8158    0.1065    0.3449 N.3       1 <0>        -0.6654
     13 C8          4.8295    1.3411   -0.4556 C.3       1 <0>         0.0353
     14 H1          4.7274    1.0936   -1.5123 H         1 <0>         0.1109
     15 C9          3.6552    2.2168   -0.0173 C.3       1 <0>        -0.1230
     16 C10         6.1457    2.0871   -0.2274 C.3       1 <0>         0.2754
     17 F1          7.2079    1.3192   -0.7165 F         1 <0>        -0.1919
     18 F2          6.1090    3.3138   -0.8991 F         1 <0>        -0.2011
     19 H2         -0.9583    1.9066    0.0260 H         1 <0>         0.1463
     20 H3          1.1571    3.1608    0.0089 H         1 <0>         0.1371
     21 H4          1.2219   -1.7552   -0.0208 H         1 <0>         0.1466
     22 H5         -1.3908   -0.8083   -2.2806 H         1 <0>         0.4169
     23 H6         -2.7632   -1.6338   -1.7729 H         1 <0>         0.4224
     24 H7          3.6209   -1.5920    0.6283 H         1 <0>         0.1013
     25 H8          3.8664   -1.1176   -1.0670 H         1 <0>         0.0972
     26 H9          4.7765    0.3154    1.3312 H         1 <0>         0.3504
     27 H10         3.5504    3.0537   -0.7078 H         1 <0>         0.1014
     28 H11         3.8434    2.5986    0.9861 H         1 <0>         0.0951
     29 H12         6.2843    2.2612    0.8396 H         1 <0>         0.1105
@<TRIPOS>BOND
     1    1    6 ar
     2    1    2 ar
     3    1   19 1
     4    2    3 ar
     5    2   20 1
     6    3   15 1
     7    3    4 ar
     8    4    5 ar
     9    4   11 1
    10    5    6 ar
    11    5   21 1
    12    6    7 1
    13    7    8 2
    14    7    9 2
    15    7   10 1
    16   10   22 1
    17   10   23 1
    18   11   12 1
    19   11   24 1
    20   11   25 1
    21   12   13 1
    22   12   26 1
    23   13   14 1
    24   13   15 1
    25   13   16 1
    26   15   27 1
    27   15   28 1
    28   16   17 1
    29   16   18 1
    30   16   29 1
@<TRIPOS>MOLECULE
ZINC13686938
   29    30     0     0     0
SMALL
USER_CHARGES

@<TRIPOS>ATOM
      1 C1         -0.0167    1.3780    0.0096 C.ar      1 <0>        -0.0176
      2 C2          1.1717    2.0810    0.0020 C.ar      1 <0>        -0.1377
      3 C3          2.3836    1.4079   -0.0116 C.ar      1 <0>        -0.0071
      4 C4          2.4030    0.0292   -0.0155 C.ar      1 <0>        -0.1019
      5 C5          1.2084   -0.6753   -0.0110 C.ar      1 <0>        -0.0105
      6 C6          0.0021   -0.0041    0.0020 C.ar      1 <0>        -0.6753
      7 S1         -1.5107   -0.9074    0.0084 S.o2      1 <0>         2.7026
      8 O1         -1.2169   -2.1878    0.5502 O.2       1 <0>        -0.9628
      9 O2         -2.4937   -0.0494    0.5712 O.2       1 <0>        -0.9621
     10 N1         -1.9429   -1.1499   -1.5717 N.pl3     1 <0>        -1.2496
     11 C7          3.6936   -0.7473   -0.0180 C.3       1 <0>         0.0957
     12 N2          4.8084    0.1107   -0.4315 N.3       1 <0>        -0.6741
     13 C8          4.8375    1.3366    0.3820 C.3       1 <0>         0.0317
     14 H1          4.7554    1.0776    1.4376 H         1 <0>         0.0781
     15 C9          3.6552    2.2168   -0.0245 C.3       1 <0>        -0.0831
     16 C10         6.1491    2.0852    0.1369 C.3       1 <0>         0.2687
     17 F1          7.2266    1.2665    0.4918 F         1 <0>        -0.2031
     18 F2          6.2469    2.4237   -1.2170 F         1 <0>        -0.1918
     19 H2         -0.9583    1.9066    0.0260 H         1 <0>         0.1458
     20 H3          1.1571    3.1609    0.0064 H         1 <0>         0.1372
     21 H4          1.2219   -1.7552   -0.0177 H         1 <0>         0.1449
     22 H5         -1.3823   -0.8082   -2.2858 H         1 <0>         0.4172
     23 H6         -2.7566   -1.6337   -1.7832 H         1 <0>         0.4219
     24 H7          3.8859   -1.1287    0.9848 H         1 <0>         0.0556
     25 H8          3.6082   -1.5848   -0.7105 H         1 <0>         0.1006
     26 H9          5.6862   -0.3834   -0.3723 H         1 <0>         0.3583
     27 H10         3.8241    2.6095   -1.0272 H         1 <0>         0.1053
     28 H11         3.5636    3.0463    0.6767 H         1 <0>         0.0941
     29 H12         6.1679    2.9925    0.7405 H         1 <0>         0.1189
@<TRIPOS>BOND
     1    1    6 ar
     2    1    2 ar
     3    1   19 1
     4    2    3 ar
     5    2   20 1
     6    3   15 1
     7    3    4 ar
     8    4    5 ar
     9    4   11 1
    10    5    6 ar
    11    5   21 1
    12    6    7 1
    13    7    8 2
    14    7    9 2
    15    7   10 1
    16   10   22 1
    17   10   23 1
    18   11   12 1
    19   11   24 1
    20   11   25 1
    21   12   13 1
    22   12   26 1
    23   13   14 1
    24   13   15 1
    25   13   16 1
    26   15   27 1
    27   15   28 1
    28   16   17 1
    29   16   18 1
    30   16   29 1
@<TRIPOS>MOLECULE
ZINC13687065
   27    28     0     0     0
SMALL
USER_CHARGES
(3R)-7-bromo-3-ethyl-1,2,3,4-tetrahydroisoquinoline
@<TRIPOS>ATOM
      1 C1          3.9096   -4.8252    0.6401 C.3       1 <0>        -0.1584
      2 C2          2.5864   -4.2564    0.1240 C.3       1 <0>        -0.1209
      3 C3          2.5473   -2.7476    0.3748 C.3       1 <0>         0.0756
      4 H1          2.7642   -2.5365    1.4323 H         1 <0>         0.0449
      5 C4          1.1788   -2.1956   -0.0252 C.3       1 <0>        -0.0753
      6 C5          1.2081   -0.6887   -0.0122 C.ar      1 <0>        -0.0538
      7 C6          0.0021   -0.0041    0.0020 C.ar      1 <0>        -0.1147
      8 C7         -0.0166    1.3759    0.0096 C.ar      1 <0>        -0.0906
      9 C8          1.1743    2.0801    0.0020 C.ar      1 <0>        -0.0925
     10 C9          2.3755    1.3989   -0.0117 C.ar      1 <0>        -0.0864
     11 C10         2.3952    0.0118   -0.0176 C.ar      1 <0>        -0.0747
     12 C11         3.7299   -0.6861   -0.0267 C.3       1 <0>         0.0864
     13 N1          3.5756   -2.0838   -0.4423 N.3       1 <0>        -0.6672
     14 Br1         1.1572    3.9710    0.0098 Br        1 <0>        -0.0497
     15 H2          3.9376   -5.9100    0.4597 H         1 <0>         0.0606
     16 H3          3.9963   -4.6306    1.7193 H         1 <0>         0.0531
     17 H4          4.7462   -4.3440    0.1123 H         1 <0>         0.0577
     18 H5          2.4997   -4.4510   -0.9552 H         1 <0>         0.0754
     19 H6          1.7497   -4.7376    0.6517 H         1 <0>         0.0704
     20 H7          0.9243   -2.5443   -1.0370 H         1 <0>         0.0903
     21 H8          0.4184   -2.5493    0.6866 H         1 <0>         0.0819
     22 H9         -0.9275   -0.5538    0.0068 H         1 <0>         0.1321
     23 H10        -0.9583    1.9047    0.0169 H         1 <0>         0.1335
     24 H11         3.3048    1.9491   -0.0183 H         1 <0>         0.1324
     25 H12         4.4052   -0.1767   -0.7299 H         1 <0>         0.0935
     26 H13         4.1645   -0.6596    0.9835 H         1 <0>         0.0489
     27 H14         4.5364   -2.6045   -0.3166 H         1 <0>         0.3476
@<TRIPOS>BOND
     1    1    2 1
     2    1   15 1
     3    1   16 1
     4    1   17 1
     5    2    3 1
     6    2   18 1
     7    2   19 1
     8    3    4 1
     9    3   13 1
    10    3    5 1
    11    5    6 1
    12    5   20 1
    13    5   21 1
    14    6   11 ar
    15    6    7 ar
    16    7    8 ar
    17    7   22 1
    18    8    9 ar
    19    8   23 1
    20    9   10 ar
    21    9   14 1
    22   10   11 ar
    23   10   24 1
    24   11   12 1
    25   12   13 1
    26   12   25 1
    27   12   26 1
    28   13   27 1
@<TRIPOS>MOLECULE
ZINC13687069
   27    28     0     0     0
SMALL
USER_CHARGES
(3S)-7-bromo-3-ethyl-1,2,3,4-tetrahydroisoquinoline
@<TRIPOS>ATOM
      1 C1          3.8959   -4.8172   -0.7670 C.3       1 <0>        -0.1474
      2 C2          2.5830   -4.2545   -0.2187 C.3       1 <0>        -0.1119
      3 C3          2.5393   -2.7429   -0.4515 C.3       1 <0>         0.0759
      4 H1          2.7358   -2.5198   -1.5106 H         1 <0>         0.0841
      5 C4          1.1788   -2.1956   -0.0187 C.3       1 <0>        -0.1158
      6 C5          1.2081   -0.6887   -0.0150 C.ar      1 <0>        -0.0650
      7 C6          0.0021   -0.0041    0.0020 C.ar      1 <0>        -0.1118
      8 C7         -0.0166    1.3759    0.0096 C.ar      1 <0>        -0.0908
      9 C8          1.1743    2.0801    0.0020 C.ar      1 <0>        -0.0915
     10 C9          2.3755    1.3989   -0.0145 C.ar      1 <0>        -0.0836
     11 C10         2.3951    0.0119   -0.0248 C.ar      1 <0>        -0.1116
     12 C11         3.7297   -0.6860   -0.0496 C.3       1 <0>         0.0859
     13 N1          3.5834   -2.0883    0.3529 N.3       1 <0>        -0.6561
     14 Br1         1.1572    3.9710    0.0136 Br        1 <0>        -0.0486
     15 H2          3.9273   -5.9039   -0.5996 H         1 <0>         0.0496
     16 H3          4.7427   -4.3420   -0.2502 H         1 <0>         0.0674
     17 H4          3.9615   -4.6102   -1.8454 H         1 <0>         0.0490
     18 H5          1.7362   -4.7297   -0.7355 H         1 <0>         0.0656
     19 H6          2.5173   -4.4615    0.8597 H         1 <0>         0.0645
     20 H7          0.4047   -2.5412   -0.7197 H         1 <0>         0.0849
     21 H8          0.9438   -2.5559    0.9937 H         1 <0>         0.0853
     22 H9         -0.9275   -0.5538    0.0090 H         1 <0>         0.1315
     23 H10        -0.9583    1.9047    0.0169 H         1 <0>         0.1335
     24 H11         3.3048    1.9491   -0.0199 H         1 <0>         0.1335
     25 H12         4.1445   -0.6479   -1.0677 H         1 <0>         0.0897
     26 H13         4.4187   -0.1846    0.6460 H         1 <0>         0.0923
     27 H14         3.3068   -2.1301    1.4167 H         1 <0>         0.3416
@<TRIPOS>BOND
     1    1    2 1
     2    1   15 1
     3    1   16 1
     4    1   17 1
     5    2    3 1
     6    2   18 1
     7    2   19 1
     8    3    4 1
     9    3   13 1
    10    3    5 1
    11    5    6 1
    12    5   20 1
    13    5   21 1
    14    6   11 ar
    15    6    7 ar
    16    7    8 ar
    17    7   22 1
    18    8    9 ar
    19    8   23 1
    20    9   10 ar
    21    9   14 1
    22   10   11 ar
    23   10   24 1
    24   11   12 1
    25   12   13 1
    26   12   25 1
    27   12   26 1
    28   13   27 1
@<TRIPOS>MOLECULE
ZINC13517585
   29    30     0     0     0
SMALL
USER_CHARGES

@<TRIPOS>ATOM
      1 C1         -0.0167    1.3780    0.0096 C.ar      1 <0>        -0.0186
      2 C2          1.1717    2.0810    0.0020 C.ar      1 <0>        -0.1362
      3 C3          2.3835    1.4079   -0.0147 C.ar      1 <0>        -0.0203
      4 C4          2.4029    0.0293   -0.0261 C.ar      1 <0>        -0.1397
      5 C5          1.2084   -0.6753   -0.0155 C.ar      1 <0>        -0.0084
      6 C6          0.0021   -0.0041    0.0020 C.ar      1 <0>        -0.6748
      7 S1         -1.5107   -0.9075    0.0141 S.o2      1 <0>         2.7019
      8 O1         -1.2148   -2.1878    0.5548 O.2       1 <0>        -0.9616
      9 O2         -2.4916   -0.0494    0.5805 O.2       1 <0>        -0.9619
     10 N1         -1.9487   -1.1500   -1.5644 N.pl3     1 <0>        -1.2495
     11 C7          3.6932   -0.7471   -0.0566 C.3       1 <0>         0.0950
     12 N2          4.8158    0.1065    0.3449 N.3       1 <0>        -0.6677
     13 C8          4.8295    1.3411   -0.4556 C.3       1 <0>         0.0507
     14 H1          4.7274    1.0936   -1.5123 H         1 <0>         0.0985
     15 C9          3.6552    2.2168   -0.0173 C.3       1 <0>        -0.1228
     16 C10         6.1457    2.0871   -0.2274 C.3       1 <0>         0.0751
     17 F1          7.2161    1.2725   -0.6117 F         1 <0>        -0.2050
     18 H2         -0.9583    1.9066    0.0260 H         1 <0>         0.1453
     19 H3          1.1571    3.1608    0.0089 H         1 <0>         0.1357
     20 H4          1.2219   -1.7552   -0.0208 H         1 <0>         0.1456
     21 H5         -1.3908   -0.8083   -2.2806 H         1 <0>         0.4168
     22 H6         -2.7632   -1.6338   -1.7729 H         1 <0>         0.4222
     23 H7          3.6209   -1.5920    0.6283 H         1 <0>         0.0964
     24 H8          3.8664   -1.1176   -1.0670 H         1 <0>         0.0943
     25 H9          4.7765    0.3154    1.3312 H         1 <0>         0.3468
     26 H10         3.5504    3.0537   -0.7078 H         1 <0>         0.0944
     27 H11         3.8434    2.5986    0.9861 H         1 <0>         0.0922
     28 H12         6.1530    3.0010   -0.8214 H         1 <0>         0.0811
     29 H13         6.2419    2.3394    0.8286 H         1 <0>         0.0748
@<TRIPOS>BOND
     1    1    6 ar
     2    1    2 ar
     3    1   18 1
     4    2    3 ar
     5    2   19 1
     6    3   15 1
     7    3    4 ar
     8    4    5 ar
     9    4   11 1
    10    5    6 ar
    11    5   20 1
    12    6    7 1
    13    7    8 2
    14    7    9 2
    15    7   10 1
    16   10   21 1
    17   10   22 1
    18   11   12 1
    19   11   23 1
    20   11   24 1
    21   12   13 1
    22   12   25 1
    23   13   14 1
    24   13   15 1
    25   13   16 1
    26   15   26 1
    27   15   27 1
    28   16   17 1
    29   16   28 1
    30   16   29 1
