@<TRIPOS>MOLECULE
ZINC03194801
   33    35     0     0     0
SMALL
USER_CHARGES
6-[(3-carboxyphenyl)carbamoyl]-7-oxabicyclo[2.2.1]hept-2-ene-5-carboxylic acid
@<TRIPOS>ATOM
      1 C1          1.3292    2.0996   -0.5899 C.ar      1 <0>        -0.1273
      2 C2          1.2206    3.3292    0.0272 C.ar      1 <0>        -0.0968
      3 C3          2.3405    3.9122    0.6234 C.ar      1 <0>        -0.0996
      4 C4          3.5643    3.2418    0.6029 C.ar      1 <0>        -0.0841
      5 C5          3.6609    2.0046   -0.0141 C.ar      1 <0>         0.1273
      6 C6          2.5414    1.4358   -0.6101 C.ar      1 <0>        -0.1525
      7 N1          4.8858    1.3281   -0.0374 N.am      1 <0>        -0.6752
      8 C7          6.0365    2.0213   -0.1464 C.2       1 <0>         0.5245
      9 O1          6.0169    3.2340   -0.1398 O.2       1 <0>        -0.5020
     10 C8          7.3476    1.2896   -0.2764 C.3       1 <0>        -0.1301
     11 H1          7.5432    0.6840    0.6086 H         1 <0>         0.1326
     12 C9          7.3728    0.4146   -1.5685 C.3       1 <0>         0.0997
     13 H2          6.8653   -0.5474   -1.4973 H         1 <0>         0.1277
     14 C10         6.8863    1.3406   -2.6862 C.2       1 <0>        -0.2042
     15 C11         7.8977    2.1903   -2.9148 C.2       1 <0>        -0.1645
     16 C12         9.0179    1.8138   -1.9418 C.3       1 <0>         0.1085
     17 H3         10.0192    2.1375   -2.2257 H         1 <0>         0.1355
     18 C13         8.5127    2.2807   -0.5407 C.3       1 <0>        -0.1387
     19 H4          8.1498    3.3078   -0.5795 H         1 <0>         0.1084
     20 C14         9.5934    2.1319    0.4990 C.2       1 <0>         0.4823
     21 O2          9.4730    1.3173    1.3832 O.co2     1 <0>        -0.6339
     22 O3          8.8137    0.3633   -1.8444 O.3       1 <0>        -0.3601
     23 C15         2.2290    5.2315    1.2790 C.2       1 <0>         0.4899
     24 O4          3.2035    5.7345    1.8013 O.co2     1 <0>        -0.6217
     25 H5          0.4630    1.6524   -1.0548 H         1 <0>         0.1158
     26 H6          0.2706    3.8426    0.0450 H         1 <0>         0.1274
     27 H7          4.4330    3.6854    1.0665 H         1 <0>         0.1453
     28 H8          2.6189    0.4715   -1.0903 H         1 <0>         0.1147
     29 H9          4.9067    0.3603    0.0248 H         1 <0>         0.4034
     30 H10         5.9298    1.3028   -3.1862 H         1 <0>         0.1404
     31 H11         7.9148    2.9883   -3.6423 H         1 <0>         0.1389
     32 O5         10.6897    2.9043    0.4428 O.co2     1 <0>        -0.7675
     33 O6          1.0453    5.8741    1.3022 O.co2     1 <0>        -0.7638
@<TRIPOS>BOND
     1    1    6 ar
     2    1    2 ar
     3    1   25 1
     4    2    3 ar
     5    2   26 1
     6    3    4 ar
     7    3   23 1
     8    4    5 ar
     9    4   27 1
    10    5    6 ar
    11    5    7 1
    12    6   28 1
    13    7    8 am
    14    7   29 1
    15    8    9 2
    16    8   10 1
    17   10   11 1
    18   10   18 1
    19   10   12 1
    20   12   13 1
    21   12   22 1
    22   12   14 1
    23   14   15 2
    24   14   30 1
    25   15   16 1
    26   15   31 1
    27   16   17 1
    28   16   18 1
    29   16   22 1
    30   18   19 1
    31   18   20 1
    32   20   21 2
    33   20   32 1
    34   23   24 2
    35   23   33 1
@<TRIPOS>MOLECULE
ZINC05344304
   33    35     0     0     0
SMALL
USER_CHARGES
6-[(3-carboxyphenyl)carbamoyl]-7-oxabicyclo[2.2.1]hept-2-ene-5-carboxylic acid
@<TRIPOS>ATOM
      1 C1         -1.3784    2.0384    0.6309 C.ar      1 <0>        -0.1281
      2 C2         -1.2943    3.2681    0.0101 C.ar      1 <0>        -0.1006
      3 C3         -2.4225    3.8210   -0.5990 C.ar      1 <0>        -0.1052
      4 C4         -3.6297    3.1210   -0.5868 C.ar      1 <0>        -0.0836
      5 C5         -3.7019    1.8844    0.0347 C.ar      1 <0>         0.1403
      6 C6         -2.5743    1.3454    0.6432 C.ar      1 <0>        -0.1441
      7 N1         -4.9100    1.1781    0.0493 N.am      1 <0>        -0.6705
      8 C7         -6.0783    1.8432    0.1455 C.2       1 <0>         0.5192
      9 O1         -6.0880    3.0560    0.1396 O.2       1 <0>        -0.4723
     10 C8         -7.3726    1.0799    0.2605 C.3       1 <0>        -0.1133
     11 H1         -7.2597    0.0650   -0.1209 H         1 <0>         0.0896
     12 C9         -8.5288    1.8273   -0.4748 C.3       1 <0>         0.1028
     13 H2         -8.2772    2.2423   -1.4508 H         1 <0>         0.1284
     14 C10        -9.7161    0.8619   -0.4346 C.2       1 <0>        -0.1919
     15 C11       -10.1506    0.8529    0.8142 C.2       1 <0>        -0.1779
     16 C12        -9.2489    1.8124    1.5950 C.3       1 <0>         0.1040
     17 H3         -9.6708    2.2126    2.5170 H         1 <0>         0.1255
     18 C13        -7.8822    1.0685    1.7268 C.3       1 <0>        -0.1400
     19 H4         -8.0258    0.0479    2.0817 H         1 <0>         0.0829
     20 C14        -6.9418    1.8239    2.6302 C.2       1 <0>         0.4637
     21 O2         -7.0482    3.0217    2.7472 O.co2     1 <0>        -0.5975
     22 O3         -8.9341    2.7956    0.5514 O.3       1 <0>        -0.3285
     23 C15        -2.3371    5.1399   -1.2593 C.2       1 <0>         0.4948
     24 O4         -3.3186    5.6167   -1.7929 O.co2     1 <0>        -0.6279
     25 H5         -0.5058    1.6141    1.1051 H         1 <0>         0.1140
     26 H6         -0.3570    3.8044   -0.0012 H         1 <0>         0.1250
     27 H7         -4.5048    3.5416   -1.0598 H         1 <0>         0.1411
     28 H8         -2.6328    0.3816    1.1270 H         1 <0>         0.1147
     29 H9         -4.9065    0.2099   -0.0098 H         1 <0>         0.3982
     30 H10       -10.1193    0.2986   -1.2631 H         1 <0>         0.1379
     31 H11       -10.9789    0.2813    1.2061 H         1 <0>         0.1369
     32 O5         -5.9859    1.1660    3.3049 O.co2     1 <0>        -0.7702
     33 O6         -1.1720    5.8161   -1.2649 O.co2     1 <0>        -0.7674
@<TRIPOS>BOND
     1    1    6 ar
     2    1    2 ar
     3    1   25 1
     4    2    3 ar
     5    2   26 1
     6    3    4 ar
     7    3   23 1
     8    4    5 ar
     9    4   27 1
    10    5    6 ar
    11    5    7 1
    12    6   28 1
    13    7    8 am
    14    7   29 1
    15    8    9 2
    16    8   10 1
    17   10   11 1
    18   10   18 1
    19   10   12 1
    20   12   13 1
    21   12   22 1
    22   12   14 1
    23   14   15 2
    24   14   30 1
    25   15   16 1
    26   15   31 1
    27   16   17 1
    28   16   18 1
    29   16   22 1
    30   18   19 1
    31   18   20 1
    32   20   21 2
    33   20   32 1
    34   23   24 2
    35   23   33 1
@<TRIPOS>MOLECULE
ZINC05344471
   31    33     0     0     0
SMALL
USER_CHARGES
6-[(4-chlorophenyl)carbamoyl]-7-oxabicyclo[2.2.1]hept-2-ene-5-carboxylic acid
@<TRIPOS>ATOM
      1 C1         -1.5656    0.6935   -4.9662 C.ar      1 <0>        -0.1126
      2 C2         -2.2423    1.1478   -6.0811 C.ar      1 <0>        -0.0918
      3 C3         -1.6140    1.1653   -7.3139 C.ar      1 <0>        -0.0592
      4 C4         -0.3046    0.7333   -7.4320 C.ar      1 <0>        -0.0913
      5 C5          0.3786    0.2839   -6.3191 C.ar      1 <0>        -0.1324
      6 C6         -0.2496    0.2652   -5.0809 C.ar      1 <0>         0.1756
      7 N1          0.4405   -0.1898   -3.9513 N.am      1 <0>        -0.6751
      8 C7          0.2183    0.3807   -2.7506 C.2       1 <0>         0.5281
      9 O1         -0.6326    1.2372   -2.6343 O.2       1 <0>        -0.4749
     10 C8          1.0271   -0.0455   -1.5526 C.3       1 <0>        -0.1149
     11 H1          1.4474   -1.0401   -1.7016 H         1 <0>         0.0938
     12 C9          0.1676    0.0082   -0.2509 C.3       1 <0>         0.1048
     13 H2         -0.8449   -0.3885   -0.3251 H         1 <0>         0.1273
     14 C10         1.0480   -0.6177    0.8337 C.2       1 <0>        -0.1966
     15 C11         1.9981    0.2622    1.1002 C.2       1 <0>        -0.1724
     16 C12         1.7426    1.4668    0.1908 C.3       1 <0>         0.1045
     17 H3          2.1770    2.4099    0.5224 H         1 <0>         0.1278
     18 C13         2.1427    0.9876   -1.2398 C.3       1 <0>        -0.1416
     19 H4          3.1237    0.5126   -1.2317 H         1 <0>         0.0872
     20 C14         2.1087    2.1314   -2.2205 C.2       1 <0>         0.4610
     21 O2          1.2870    3.0085   -2.0974 O.co2     1 <0>        -0.5958
     22 O3          0.2779    1.4295    0.0996 O.3       1 <0>        -0.3301
     23 Cl1        -2.4696    1.7308   -8.7146 Cl        1 <0>        -0.0854
     24 H5         -2.0580    0.6754   -4.0051 H         1 <0>         0.1457
     25 H6         -3.2643    1.4854   -5.9916 H         1 <0>         0.1322
     26 H7          0.1836    0.7480   -8.3953 H         1 <0>         0.1329
     27 H8          1.4007   -0.0525   -6.4117 H         1 <0>         0.1346
     28 H9          1.0788   -0.9157   -4.0327 H         1 <0>         0.4072
     29 H10         0.9186   -1.5875    1.2911 H         1 <0>         0.1404
     30 H11         2.7972    0.1528    1.8185 H         1 <0>         0.1403
     31 O4          2.9914    2.1756   -3.2308 O.co2     1 <0>        -0.7694
@<TRIPOS>BOND
     1    1    6 ar
     2    1    2 ar
     3    1   24 1
     4    2    3 ar
     5    2   25 1
     6    3    4 ar
     7    3   23 1
     8    4    5 ar
     9    4   26 1
    10    5    6 ar
    11    5   27 1
    12    6    7 1
    13    7    8 am
    14    7   28 1
    15    8    9 2
    16    8   10 1
    17   10   11 1
    18   10   18 1
    19   10   12 1
    20   12   13 1
    21   12   22 1
    22   12   14 1
    23   14   15 2
    24   14   29 1
    25   15   16 1
    26   15   30 1
    27   16   17 1
    28   16   18 1
    29   16   22 1
    30   18   19 1
    31   18   20 1
    32   20   21 2
    33   20   31 1
@<TRIPOS>MOLECULE
ZINC05344474
   31    33     0     0     0
SMALL
USER_CHARGES
6-[(4-chlorophenyl)carbamoyl]-7-oxabicyclo[2.2.1]hept-2-ene-5-carboxylic acid
@<TRIPOS>ATOM
      1 C1          0.0588    1.2248   -0.5861 C.ar      1 <0>        -0.1383
      2 C2         -1.1446    1.9021   -0.5668 C.ar      1 <0>        -0.0919
      3 C3         -1.2359    3.1355    0.0541 C.ar      1 <0>        -0.0563
      4 C4         -0.1195    3.6986    0.6471 C.ar      1 <0>        -0.0896
      5 C5          1.0876    3.0280    0.6256 C.ar      1 <0>        -0.1114
      6 C6          1.1805    1.7876    0.0082 C.ar      1 <0>         0.1621
      7 N1          2.4026    1.1056   -0.0145 N.am      1 <0>        -0.6774
      8 C7          3.5564    1.7937   -0.1236 C.2       1 <0>         0.5363
      9 O1          3.5421    3.0064   -0.1175 O.2       1 <0>        -0.5104
     10 C8          4.8642    1.0562   -0.2531 C.3       1 <0>        -0.1339
     11 H1          5.0065    0.3693    0.5812 H         1 <0>         0.1355
     12 C9          4.9478    0.3032   -1.6177 C.3       1 <0>         0.1014
     13 H2          4.4265   -0.6531   -1.6620 H         1 <0>         0.1307
     14 C10         4.5503    1.3411   -2.6703 C.2       1 <0>        -0.2088
     15 C11         5.5626    2.1864   -2.7651 C.2       1 <0>        -0.1557
     16 C12         6.6257    1.7042   -1.7748 C.3       1 <0>         0.1055
     17 H3          7.6467    2.0359   -1.9634 H         1 <0>         0.1384
     18 C13         6.0527    2.0486   -0.3644 C.3       1 <0>        -0.1377
     19 H4          5.7039    3.0805   -0.3259 H         1 <0>         0.1067
     20 C14         7.0753    1.7876    0.7114 C.2       1 <0>         0.4785
     21 O2          6.8994    0.8973    1.5090 O.co2     1 <0>        -0.6326
     22 O3          6.4005    0.2544   -1.8226 O.3       1 <0>        -0.3557
     23 Cl1        -2.7518    3.9811    0.0828 Cl        1 <0>        -0.0787
     24 H5          0.1284    0.2602   -1.0669 H         1 <0>         0.1349
     25 H6         -2.0163    1.4669   -1.0329 H         1 <0>         0.1346
     26 H7         -0.1922    4.6634    1.1268 H         1 <0>         0.1351
     27 H8          1.9586    3.4680    1.0883 H         1 <0>         0.1503
     28 H9          2.4192    0.1378    0.0482 H         1 <0>         0.4130
     29 H10         3.6248    1.3764   -3.2259 H         1 <0>         0.1367
     30 H11         5.6267    3.0478   -3.4134 H         1 <0>         0.1407
     31 O4          8.1817    2.5443    0.7834 O.co2     1 <0>        -0.7616
@<TRIPOS>BOND
     1    1    6 ar
     2    1    2 ar
     3    1   24 1
     4    2    3 ar
     5    2   25 1
     6    3    4 ar
     7    3   23 1
     8    4    5 ar
     9    4   26 1
    10    5    6 ar
    11    5   27 1
    12    6    7 1
    13    7    8 am
    14    7   28 1
    15    8    9 2
    16    8   10 1
    17   10   11 1
    18   10   18 1
    19   10   12 1
    20   12   13 1
    21   12   22 1
    22   12   14 1
    23   14   15 2
    24   14   29 1
    25   15   16 1
    26   15   30 1
    27   16   17 1
    28   16   18 1
    29   16   22 1
    30   18   19 1
    31   18   20 1
    32   20   21 2
    33   20   31 1
@<TRIPOS>MOLECULE
ZINC28098979
   39    41     0     0     0
SMALL
USER_CHARGES
(1R,4S,5R,6R)-6-[(3-methoxycarbonylphenyl)carbamoyl]-7-oxabicyclo[2.2.1]heptane-5-carboxylic acid
@<TRIPOS>ATOM
      1 C1          2.1324    1.5605    1.8473 C.3       1 <0>         0.0332
      2 O1          0.9853    2.1866    1.2143 O.3       1 <0>        -0.3544
      3 C2         -0.1736    1.5002    1.2327 C.2       1 <0>         0.5122
      4 O2         -0.2246    0.4085    1.7630 O.2       1 <0>        -0.5070
      5 C3         -1.3812    2.0724    0.6026 C.ar      1 <0>        -0.1138
      6 C4         -1.3267    3.3299   -0.0028 C.ar      1 <0>        -0.0836
      7 C5         -2.4544    3.8591   -0.5960 C.ar      1 <0>        -0.1132
      8 C6         -3.6437    3.1542   -0.5829 C.ar      1 <0>        -0.0875
      9 C7         -3.7100    1.9049    0.0218 C.ar      1 <0>         0.1509
     10 C8         -2.5813    1.3612    0.6152 C.ar      1 <0>        -0.0860
     11 N1         -4.9162    1.1952    0.0314 N.am      1 <0>        -0.6926
     12 C9         -6.0858    1.8557    0.1422 C.2       1 <0>         0.5287
     13 O3         -6.0991    3.0685    0.1494 O.2       1 <0>        -0.5204
     14 C10        -7.3771    1.0873    0.2572 C.3       1 <0>        -0.1180
     15 H1         -7.3959    0.4528   -0.6411 H         1 <0>         0.1240
     16 C11        -7.4344    0.3021    1.6018 C.3       1 <0>         0.0744
     17 H2         -6.9275   -0.6741    1.6060 H         1 <0>         0.1302
     18 C12        -6.9627    1.3132    2.6896 C.3       1 <0>        -0.1525
     19 C13        -8.1686    2.2801    2.8053 C.3       1 <0>        -0.1421
     20 C14        -9.1770    1.6994    1.7690 C.3       1 <0>         0.0956
     21 H3        -10.2308    1.9746    1.9230 H         1 <0>         0.1375
     22 C15        -8.5830    2.0543    0.3728 C.3       1 <0>        -0.1443
     23 H4         -8.3207    3.1150    0.2462 H         1 <0>         0.1085
     24 C16        -9.5877    1.7876   -0.7182 C.2       1 <0>         0.4705
     25 O4         -9.3843    0.9125   -1.5261 O.co2     1 <0>        -0.6369
     26 O5        -10.7087    2.5222   -0.7926 O.co2     1 <0>        -0.7663
     27 O6         -8.8780    0.2672    1.8510 O.3       1 <0>        -0.3642
     28 H5          3.0060    2.2233    1.7609 H         1 <0>         0.1039
     29 H6          2.3480    0.6030    1.3506 H         1 <0>         0.0646
     30 H7          1.9121    1.3809    2.9099 H         1 <0>         0.0646
     31 H8         -0.4009    3.8859   -0.0107 H         1 <0>         0.1365
     32 H9         -2.4091    4.8295   -1.0679 H         1 <0>         0.1345
     33 H10        -4.5243    3.5759   -1.0447 H         1 <0>         0.1482
     34 H11        -2.6309    0.3905    1.0860 H         1 <0>         0.1401
     35 H12        -4.9097    0.0983   -0.0515 H         1 <0>         0.4370
     36 H13        -6.7588    0.7748    3.6269 H         1 <0>         0.0714
     37 H14        -6.0459    1.8168    2.3492 H         1 <0>         0.0688
     38 H15        -8.5578    2.2594    3.8339 H         1 <0>         0.0694
     39 H16        -7.8449    3.3015    2.5563 H         1 <0>         0.0780
@<TRIPOS>BOND
     1    1    2 1
     2    1   28 1
     3    1   29 1
     4    1   30 1
     5    2    3 1
     6    3    4 2
     7    3    5 1
     8    5   10 ar
     9    5    6 ar
    10    6    7 ar
    11    6   31 1
    12    7    8 ar
    13    7   32 1
    14    8    9 ar
    15    8   33 1
    16    9   10 ar
    17    9   11 1
    18   10   34 1
    19   11   12 am
    20   11   35 1
    21   12   13 2
    22   12   14 1
    23   14   15 1
    24   14   22 1
    25   14   16 1
    26   16   17 1
    27   16   27 1
    28   16   18 1
    29   18   19 1
    30   18   36 1
    31   18   37 1
    32   19   20 1
    33   19   38 1
    34   19   39 1
    35   20   21 1
    36   20   22 1
    37   20   27 1
    38   22   23 1
    39   22   24 1
    40   24   25 2
    41   24   26 1
@<TRIPOS>MOLECULE
ZINC28098985
   39    41     0     0     0
SMALL
USER_CHARGES
(1R,4S,5R,6S)-6-[(3-methoxycarbonylphenyl)carbamoyl]-7-oxabicyclo[2.2.1]heptane-5-carboxylic acid
@<TRIPOS>ATOM
      1 C1         -4.9533    7.5484    1.5021 C.3       1 <0>         0.0334
      2 O1         -5.4359    6.2540    1.0549 O.3       1 <0>        -0.3566
      3 C2         -4.5677    5.2255    1.1096 C.2       1 <0>         0.5111
      4 O2         -3.4385    5.4050    1.5197 O.2       1 <0>        -0.5012
      5 C3         -4.9889    3.8791    0.6708 C.ar      1 <0>        -0.1159
      6 C4         -6.2866    3.6700    0.1985 C.ar      1 <0>        -0.0907
      7 C5         -6.6771    2.4117   -0.2110 C.ar      1 <0>        -0.1161
      8 C6         -5.7860    1.3557   -0.1611 C.ar      1 <0>        -0.1045
      9 C7         -4.4945    1.5519    0.3125 C.ar      1 <0>         0.1646
     10 C8         -4.0918    2.8121    0.7264 C.ar      1 <0>        -0.0621
     11 N1         -3.5983    0.4782    0.3663 N.am      1 <0>        -0.6842
     12 C9         -2.2892    0.6801    0.1177 C.2       1 <0>         0.5201
     13 O3         -1.8745    1.8036   -0.0741 O.2       1 <0>        -0.4888
     14 C10        -1.3405   -0.4903    0.0781 C.3       1 <0>        -0.1074
     15 H1         -1.7969   -1.2285    0.7540 H         1 <0>         0.0905
     16 C11         0.1041   -0.0476    0.4764 C.3       1 <0>         0.0825
     17 H2          0.1727    0.6766    1.3015 H         1 <0>         0.1263
     18 C12         0.8995   -1.3730    0.6729 C.3       1 <0>        -0.1481
     19 C13         1.0854   -1.8803   -0.7799 C.3       1 <0>        -0.1458
     20 C14         0.3727   -0.7805   -1.6230 C.3       1 <0>         0.0941
     21 H3          0.6798   -0.7137   -2.6772 H         1 <0>         0.1263
     22 C15        -1.1507   -0.9943   -1.3754 C.3       1 <0>        -0.1531
     23 H4         -1.4959   -2.0258   -1.5389 H         1 <0>         0.0924
     24 C16        -1.9686   -0.1712   -2.3370 C.2       1 <0>         0.4549
     25 O4         -1.5735    0.9145   -2.6905 O.co2     1 <0>        -0.6029
     26 O5         -3.1387   -0.6419   -2.7964 O.co2     1 <0>        -0.7718
     27 O6          0.6294    0.4125   -0.8119 O.3       1 <0>        -0.3416
     28 H5         -5.7572    8.2929    1.4050 H         1 <0>         0.1016
     29 H6         -4.0951    7.8529    0.8851 H         1 <0>         0.0640
     30 H7         -4.6421    7.4799    2.5549 H         1 <0>         0.0624
     31 H8         -6.9841    4.4933    0.1534 H         1 <0>         0.1337
     32 H9         -7.6809    2.2520   -0.5760 H         1 <0>         0.1318
     33 H10        -6.0963    0.3740   -0.4872 H         1 <0>         0.1334
     34 H11        -3.0872    2.9674    1.0911 H         1 <0>         0.1512
     35 H12        -3.9624   -0.5304    0.6115 H         1 <0>         0.4295
     36 H13         1.8553   -1.1564    1.1725 H         1 <0>         0.0715
     37 H14         0.3107   -2.0656    1.2923 H         1 <0>         0.0721
     38 H15         2.1590   -1.9595   -1.0060 H         1 <0>         0.0693
     39 H16         0.6144   -2.8687   -0.8863 H         1 <0>         0.0740
@<TRIPOS>BOND
     1    1    2 1
     2    1   28 1
     3    1   29 1
     4    1   30 1
     5    2    3 1
     6    3    4 2
     7    3    5 1
     8    5   10 ar
     9    5    6 ar
    10    6    7 ar
    11    6   31 1
    12    7    8 ar
    13    7   32 1
    14    8    9 ar
    15    8   33 1
    16    9   10 ar
    17    9   11 1
    18   10   34 1
    19   11   12 am
    20   11   35 1
    21   12   13 2
    22   12   14 1
    23   14   15 1
    24   14   22 1
    25   14   16 1
    26   16   17 1
    27   16   27 1
    28   16   18 1
    29   18   19 1
    30   18   36 1
    31   18   37 1
    32   19   20 1
    33   19   38 1
    34   19   39 1
    35   20   21 1
    36   20   22 1
    37   20   27 1
    38   22   23 1
    39   22   24 1
    40   24   25 2
    41   24   26 1
@<TRIPOS>MOLECULE
ZINC03872447
   21    22     0     0     0
SMALL
USER_CHARGES

@<TRIPOS>ATOM
      1 C1         -0.0191    1.5540    0.0106 C.3       1 <0>        -0.1492
      2 C2          1.4876    1.9176   -0.0018 C.3       1 <0>        -0.1469
      3 C3          2.1793    0.5214   -0.0159 C.3       1 <0>         0.0822
      4 H1          3.2020    0.5103   -0.3929 H         1 <0>         0.1076
      5 C4          1.9915   -0.0458    1.4232 C.3       1 <0>        -0.1603
      6 H2          2.2212    0.7136    2.1706 H         1 <0>         0.0501
      7 C5          0.4851   -0.4095    1.4547 C.3       1 <0>        -0.1591
      8 H3         -0.0358    0.1687    2.2179 H         1 <0>         0.0511
      9 C6          0.0021   -0.0041    0.0020 C.3       1 <0>         0.0855
     10 H4         -0.9132   -0.4819   -0.3473 H         1 <0>         0.1195
     11 O1          1.2117   -0.2691   -0.7815 O.3       1 <0>        -0.3535
     12 C7          0.2973   -1.8867    1.6861 C.2       1 <0>         0.5163
     13 O2          0.7059   -2.3996    2.7140 O.co2     1 <0>        -0.6863
     14 O3         -0.2634   -2.5690    0.8455 O.co2     1 <0>        -0.7119
     15 C8          2.8449   -1.2706    1.6298 C.2       1 <0>         0.5219
     16 O4          3.4209   -1.4404    2.6909 O.co2     1 <0>        -0.7145
     17 O5          2.9593   -2.0918    0.7359 O.co2     1 <0>        -0.6879
     18 H5         -0.4993    1.9287    0.9145 H         1 <0>         0.0622
     19 H6         -0.5164    1.9383   -0.8799 H         1 <0>         0.0550
     20 H7          1.7410    2.4831   -0.8986 H         1 <0>         0.0550
     21 H8          1.7582    2.4735    0.8959 H         1 <0>         0.0631
@<TRIPOS>BOND
     1    1    9 1
     2    1    2 1
     3    1   18 1
     4    1   19 1
     5    2    3 1
     6    2   20 1
     7    2   21 1
     8    3    4 1
     9    3   11 1
    10    3    5 1
    11    5    6 1
    12    5    7 1
    13    5   15 1
    14    7    8 1
    15    7    9 1
    16    7   12 1
    17    9   10 1
    18    9   11 1
    19   12   13 2
    20   12   14 1
    21   15   16 2
    22   15   17 1
@<TRIPOS>MOLECULE
ZINC25605611
   27    28     0     0     0
SMALL
USER_CHARGES
(1R,4S,5R,6S)-6-(dimethylcarbamoyl)-7-oxabicyclo[2.2.1]hept-2-ene-5-carboxylic acid
@<TRIPOS>ATOM
      1 C1          4.0008    4.3756    3.5995 C.3       1 <0>         0.0863
      2 N1          2.8353    3.5519    3.2686 N.am      1 <0>        -0.6158
      3 C2          2.1567    2.7876    4.3182 C.3       1 <0>         0.0823
      4 C3          2.3874    3.4973    1.9986 C.2       1 <0>         0.5229
      5 O1          2.9492    4.1301    1.1298 O.2       1 <0>        -0.5199
      6 C4          1.1886    2.6501    1.6582 C.3       1 <0>        -0.1172
      7 H1          1.2499    1.8190    2.3762 H         1 <0>         0.1002
      8 C5          1.2146    2.2232    0.1571 C.3       1 <0>         0.1176
      9 H2          2.1868    1.8804   -0.2268 H         1 <0>         0.1266
     10 C6          0.0580    1.2320    0.0048 C.2       1 <0>        -0.2073
     11 C7         -1.0548    1.9449    0.0428 C.2       1 <0>        -0.1865
     12 C8         -0.6304    3.4039    0.2288 C.3       1 <0>         0.1177
     13 H3         -1.3791    4.1475   -0.0820 H         1 <0>         0.1273
     14 C9         -0.1315    3.5212    1.7031 C.3       1 <0>        -0.1456
     15 H4         -0.8615    3.2244    2.4706 H         1 <0>         0.0939
     16 C10         0.1480    4.9571    2.0650 C.2       1 <0>         0.4610
     17 O2          0.4622    5.7465    1.2059 O.co2     1 <0>        -0.6081
     18 O3          0.0479    5.3592    3.3417 O.co2     1 <0>        -0.7679
     19 O4          0.6442    3.4057   -0.4995 O.3       1 <0>        -0.3291
     20 H5          4.3708    4.8698    2.6891 H         1 <0>         0.0829
     21 H6          4.7932    3.7381    4.0186 H         1 <0>         0.0492
     22 H7          3.7134    5.1373    4.3392 H         1 <0>         0.0559
     23 H8          1.3115    2.2354    3.8814 H         1 <0>         0.0775
     24 H9          1.7846    3.4764    5.0909 H         1 <0>         0.0656
     25 H10         2.8645    2.0772    4.7703 H         1 <0>         0.0496
     26 H11         0.0077    0.1400   -0.1180 H         1 <0>         0.1407
     27 H12        -2.0307    1.4467   -0.0540 H         1 <0>         0.1401
@<TRIPOS>BOND
     1    1    2 1
     2    1   20 1
     3    1   21 1
     4    1   22 1
     5    2    3 1
     6    2    4 am
     7    3   23 1
     8    3   24 1
     9    3   25 1
    10    4    5 2
    11    4    6 1
    12    6    7 1
    13    6   14 1
    14    6    8 1
    15    8    9 1
    16    8   19 1
    17    8   10 1
    18   10   11 2
    19   10   26 1
    20   11   12 1
    21   11   27 1
    22   12   13 1
    23   12   14 1
    24   12   19 1
    25   14   15 1
    26   14   16 1
    27   16   17 2
    28   16   18 1
@<TRIPOS>MOLECULE
ZINC25605618
   27    28     0     0     0
SMALL
USER_CHARGES
(1R,4S,5R,6R)-6-(dimethylcarbamoyl)-7-oxabicyclo[2.2.1]hept-2-ene-5-carboxylic acid
@<TRIPOS>ATOM
      1 C1          2.1661   -0.3136    3.7693 C.3       1 <0>         0.0798
      2 N1          2.2779    0.8239    2.8530 N.am      1 <0>        -0.6266
      3 C2          3.5908    1.2280    2.3438 C.3       1 <0>         0.0681
      4 C3          1.1730    1.4988    2.4785 C.2       1 <0>         0.5240
      5 O1          0.0969    1.2157    2.9610 O.2       1 <0>        -0.5363
      6 C4          1.2747    2.6050    1.4601 C.3       1 <0>        -0.1213
      7 H1          2.2022    3.1179    1.7545 H         1 <0>         0.1229
      8 C5          1.2534    2.0314    0.0087 C.3       1 <0>         0.1155
      9 H2          2.2046    1.6170   -0.3568 H         1 <0>         0.1285
     10 C6          0.0602    1.0730   -0.0233 C.2       1 <0>        -0.2159
     11 C7         -1.0262    1.8263   -0.0359 C.2       1 <0>        -0.1680
     12 C8         -0.5476    3.2801   -0.0038 C.3       1 <0>         0.1200
     13 H3         -1.2714    4.0218   -0.3725 H         1 <0>         0.1401
     14 C9         -0.0131    3.5046    1.4453 C.3       1 <0>        -0.1356
     15 H4         -0.7401    3.2901    2.2424 H         1 <0>         0.1046
     16 C10         0.3337    4.9533    1.6735 C.2       1 <0>         0.4725
     17 O2          1.4691    5.2677    1.9416 O.co2     1 <0>        -0.6361
     18 O3         -0.6187    5.8944    1.5789 O.co2     1 <0>        -0.7649
     19 O4          0.7101    3.1634   -0.7517 O.3       1 <0>        -0.3550
     20 H5          1.1106   -0.4637    4.0404 H         1 <0>         0.0850
     21 H6          2.7528   -0.1118    4.6776 H         1 <0>         0.0551
     22 H7          2.5509   -1.2194    3.2779 H         1 <0>         0.0551
     23 H8          3.4742    2.0938    1.6754 H         1 <0>         0.0899
     24 H9          4.0410    0.3930    1.7870 H         1 <0>         0.0601
     25 H10         4.2429    1.5006    3.1867 H         1 <0>         0.0613
     26 H11        -0.0304   -0.0232   -0.0361 H         1 <0>         0.1370
     27 H12        -2.0206    1.3569   -0.0647 H         1 <0>         0.1401
@<TRIPOS>BOND
     1    1    2 1
     2    1   20 1
     3    1   21 1
     4    1   22 1
     5    2    3 1
     6    2    4 am
     7    3   23 1
     8    3   24 1
     9    3   25 1
    10    4    5 2
    11    4    6 1
    12    6    7 1
    13    6   14 1
    14    6    8 1
    15    8    9 1
    16    8   19 1
    17    8   10 1
    18   10   11 2
    19   10   26 1
    20   11   12 1
    21   11   27 1
    22   12   13 1
    23   12   14 1
    24   12   19 1
    25   14   15 1
    26   14   16 1
    27   16   17 2
    28   16   18 1
@<TRIPOS>MOLECULE
ZINC17611186
   26    28     0     0     0
SMALL
USER_CHARGES

@<TRIPOS>ATOM
      1 C1          0.0599    1.5249   -0.0459 C.3       1 <0>        -0.1274
      2 C2          0.0459   -0.0049   -0.0290 C.3       1 <0>        -0.1448
      3 C3          0.7228   -0.6541   -1.2717 C.3       1 <0>         0.0842
      4 H1          0.1207   -0.6597   -2.1803 H         1 <0>         0.1451
      5 C4          2.1118    0.0404   -1.3974 C.3       1 <0>        -0.1485
      6 C5          2.9107   -0.5750   -0.2204 C.3       1 <0>        -0.1473
      7 C6          1.8766   -1.5426    0.4292 C.3       1 <0>         0.0839
      8 H2          2.3034   -2.3476    1.0274 H         1 <0>         0.1454
      9 C7          0.8402   -0.6387    1.1595 C.3       1 <0>        -0.1447
     10 C8         -0.2155   -1.4984    1.8319 C.2       1 <0>         0.5144
     11 O1         -0.1865   -1.9208    2.9635 O.2       1 <0>        -0.3989
     12 O2         -1.1916   -1.7000    0.9236 O.3       1 <0>        -0.3265
     13 C9         -1.3376   -0.6042    0.1514 C.2       1 <0>         0.5119
     14 O3         -2.3712   -0.1805   -0.3089 O.2       1 <0>        -0.3994
     15 C10         1.5108    0.3834    2.0797 C.3       1 <0>        -0.1285
     16 O4          1.0883   -1.9717   -0.7465 O.3       1 <0>        -0.3597
     17 H3          1.0898    1.8793   -0.0021 H         1 <0>         0.0862
     18 H4         -0.4087    1.8824   -0.9628 H         1 <0>         0.0818
     19 H5         -0.4913    1.9028    0.8152 H         1 <0>         0.0714
     20 H6          2.5802   -0.2027   -2.3511 H         1 <0>         0.0880
     21 H7          2.0163    1.1195   -1.2768 H         1 <0>         0.0921
     22 H8          3.7769   -1.1254   -0.5876 H         1 <0>         0.0887
     23 H9          3.2138    0.1974    0.4864 H         1 <0>         0.0929
     24 H10         0.7464    0.9514    2.6099 H         1 <0>         0.0711
     25 H11         2.1428   -0.1359    2.8001 H         1 <0>         0.0817
     26 H12         2.1209    1.0628    1.4845 H         1 <0>         0.0869
@<TRIPOS>BOND
     1    1    2 1
     2    1   17 1
     3    1   18 1
     4    1   19 1
     5    2    9 1
     6    2   13 1
     7    2    3 1
     8    3    4 1
     9    3   16 1
    10    3    5 1
    11    5    6 1
    12    5   20 1
    13    5   21 1
    14    6    7 1
    15    6   22 1
    16    6   23 1
    17    7    8 1
    18    7    9 1
    19    7   16 1
    20    9   10 1
    21    9   15 1
    22   10   11 2
    23   10   12 1
    24   12   13 1
    25   13   14 2
    26   15   24 1
    27   15   25 1
    28   15   26 1
