@<TRIPOS>MOLECULE
ZINC03999510
   38    41     0     0     0
SMALL
USER_CHARGES
(3-bromophenyl)BLAHcarboxylic acid
@<TRIPOS>ATOM
      1 C1          3.9030    4.4304    4.0797 C.ar      1 <0>        -0.1193
      2 C2          4.1226    4.3781    2.7156 C.ar      1 <0>        -0.1005
      3 C3          3.3446    3.5572    1.9210 C.ar      1 <0>        -0.0753
      4 C4          2.3535    2.7803    2.4913 C.ar      1 <0>        -0.0697
      5 C5          2.1370    2.8284    3.8564 C.ar      1 <0>        -0.0897
      6 C6          2.9125    3.6541    4.6507 C.ar      1 <0>        -0.1000
      7 Br1         0.7819    1.7654    4.6371 Br        1 <0>        -0.0504
      8 C7          3.5809    3.5045    0.4336 C.3       1 <0>         0.2053
      9 H1          4.6306    3.7092    0.2233 H         1 <0>         0.0933
     10 C8          2.7051    4.5487   -0.2645 C.3       1 <0>        -0.0960
     11 H2          2.9346    4.6470   -1.3255 H         1 <0>         0.0976
     12 C9          2.8452    5.8793    0.5317 C.3       1 <0>        -0.0906
     13 C10         1.8702    5.7061    1.6802 C.2       1 <0>        -0.1773
     14 C11         0.9669    4.8040    1.3834 C.2       1 <0>        -0.1373
     15 C12         1.2171    4.2479    0.0016 C.3       1 <0>        -0.0086
     16 H3          0.6011    4.7901   -0.7157 H         1 <0>         0.0881
     17 C13         0.8970    2.7883   -0.0650 C.ar      1 <0>        -0.1604
     18 C14        -0.4311    2.4018   -0.0919 C.ar      1 <0>        -0.0421
     19 C15        -0.7696    1.0493   -0.1579 C.ar      1 <0>        -0.1541
     20 C16         0.2365    0.0785   -0.1973 C.ar      1 <0>        -0.0352
     21 C17         1.5467    0.4612   -0.1697 C.ar      1 <0>        -0.2031
     22 C18         1.8847    1.8108   -0.1031 C.ar      1 <0>         0.2050
     23 N1          3.2290    2.1740   -0.0727 N.pl3     1 <0>        -0.7505
     24 C19        -2.1864    0.6444   -0.1865 C.2       1 <0>         0.4925
     25 O1         -3.0602    1.4881   -0.1526 O.co2     1 <0>        -0.6380
     26 H4          4.5087    5.0748    4.6997 H         1 <0>         0.1246
     27 H5          4.8997    4.9815    2.2703 H         1 <0>         0.1225
     28 H6          1.7481    2.1361    1.8708 H         1 <0>         0.1518
     29 H7          2.7440    3.6917    5.7168 H         1 <0>         0.1248
     30 H8          3.8621    5.9979    0.9057 H         1 <0>         0.0700
     31 H9          2.5613    6.7297   -0.0883 H         1 <0>         0.0743
     32 H10         1.9142    6.2497    2.6124 H         1 <0>         0.1195
     33 H11         0.1595    4.5014    2.0338 H         1 <0>         0.1224
     34 H12        -1.2094    3.1502   -0.0662 H         1 <0>         0.1235
     35 H13        -0.0219   -0.9688   -0.2498 H         1 <0>         0.1293
     36 H14         2.3254   -0.2866   -0.1999 H         1 <0>         0.1142
     37 H15         3.9160    1.5616   -0.3793 H         1 <0>         0.4009
     38 O2         -2.5128   -0.6615   -0.2502 O.co2     1 <0>        -0.7616
@<TRIPOS>BOND
     1    1    6 ar
     2    1    2 ar
     3    1   26 1
     4    2    3 ar
     5    2   27 1
     6    3    4 ar
     7    3    8 1
     8    4    5 ar
     9    4   28 1
    10    5    6 ar
    11    5    7 1
    12    6   29 1
    13    8    9 1
    14    8   23 1
    15    8   10 1
    16   10   11 1
    17   10   15 1
    18   10   12 1
    19   12   13 1
    20   12   30 1
    21   12   31 1
    22   13   14 2
    23   13   32 1
    24   14   15 1
    25   14   33 1
    26   15   16 1
    27   15   17 1
    28   17   22 ar
    29   17   18 ar
    30   18   19 ar
    31   18   34 1
    32   19   20 ar
    33   19   24 1
    34   20   21 ar
    35   20   35 1
    36   21   22 ar
    37   21   36 1
    38   22   23 1
    39   23   37 1
    40   24   25 2
    41   24   38 1
@<TRIPOS>MOLECULE
ZINC03999511
   38    41     0     0     0
SMALL
USER_CHARGES
(3-bromophenyl)BLAHcarboxylic acid
@<TRIPOS>ATOM
      1 C1          0.8059    7.5365    2.1456 C.ar      1 <0>        -0.1206
      2 C2          1.3656    6.3523    1.7028 C.ar      1 <0>        -0.1038
      3 C3          0.8968    5.7553    0.5477 C.ar      1 <0>        -0.0947
      4 C4         -0.1390    6.3366   -0.1597 C.ar      1 <0>        -0.0783
      5 C5         -0.7026    7.5184    0.2857 C.ar      1 <0>        -0.0908
      6 C6         -0.2295    8.1183    1.4391 C.ar      1 <0>        -0.0968
      7 Br1        -2.1198    8.3137   -0.6811 Br        1 <0>        -0.0452
      8 C7          1.5107    4.4673    0.0627 C.3       1 <0>         0.2103
      9 H1          2.5392    4.3998    0.4171 H         1 <0>         0.0970
     10 C8          0.7131    3.2938    0.5998 C.3       1 <0>        -0.0971
     11 H2          0.7300    3.2829    1.6896 H         1 <0>         0.0894
     12 C9          1.2389    1.9560    0.0276 C.3       1 <0>        -0.0872
     13 C10         0.0101    1.0653    0.0646 C.2       1 <0>        -0.1774
     14 C11        -1.0804    1.7900    0.0867 C.2       1 <0>        -0.1431
     15 C12        -0.7338    3.2727    0.0744 C.3       1 <0>        -0.0059
     16 H3         -1.3964    3.8394    0.7286 H         1 <0>         0.0803
     17 C13        -0.8338    3.7586   -1.3464 C.ar      1 <0>        -0.1541
     18 C14        -2.0521    3.6340   -1.9907 C.ar      1 <0>        -0.0418
     19 C15        -2.1970    4.0671   -3.3098 C.ar      1 <0>        -0.1523
     20 C16        -1.1079    4.6289   -3.9838 C.ar      1 <0>        -0.0367
     21 C17         0.0926    4.7513   -3.3455 C.ar      1 <0>        -0.2012
     22 C18         0.2359    4.3200   -2.0280 C.ar      1 <0>         0.2047
     23 N1          1.4714    4.4648   -1.4003 N.pl3     1 <0>        -0.7484
     24 C19        -3.4965    3.9321   -3.9919 C.2       1 <0>         0.4926
     25 O1         -4.4425    3.4440   -3.4058 O.co2     1 <0>        -0.6378
     26 H4          1.1750    8.0045    3.0462 H         1 <0>         0.1274
     27 H5          2.1718    5.8955    2.2576 H         1 <0>         0.1251
     28 H6         -0.5077    5.8681   -1.0602 H         1 <0>         0.1572
     29 H7         -0.6696    9.0410    1.7876 H         1 <0>         0.1277
     30 H8          2.0289    1.5501    0.6595 H         1 <0>         0.0636
     31 H9          1.5925    2.0833   -0.9956 H         1 <0>         0.0824
     32 H10         0.0321   -0.0145    0.0677 H         1 <0>         0.1216
     33 H11        -2.0841    1.3921    0.1120 H         1 <0>         0.1258
     34 H12        -2.8938    3.2003   -1.4712 H         1 <0>         0.1236
     35 H13        -1.2160    4.9640   -5.0048 H         1 <0>         0.1292
     36 H14         0.9351    5.1847   -3.8638 H         1 <0>         0.1149
     37 H15         2.2879    4.5540   -1.9163 H         1 <0>         0.4016
     38 O2         -3.6357    4.3501   -5.2654 O.co2     1 <0>        -0.7613
@<TRIPOS>BOND
     1    1    6 ar
     2    1    2 ar
     3    1   26 1
     4    2    3 ar
     5    2   27 1
     6    3    4 ar
     7    3    8 1
     8    4    5 ar
     9    4   28 1
    10    5    6 ar
    11    5    7 1
    12    6   29 1
    13    8    9 1
    14    8   23 1
    15    8   10 1
    16   10   11 1
    17   10   15 1
    18   10   12 1
    19   12   13 1
    20   12   30 1
    21   12   31 1
    22   13   14 2
    23   13   32 1
    24   14   15 1
    25   14   33 1
    26   15   16 1
    27   15   17 1
    28   17   22 ar
    29   17   18 ar
    30   18   19 ar
    31   18   34 1
    32   19   20 ar
    33   19   24 1
    34   20   21 ar
    35   20   35 1
    36   21   22 ar
    37   21   36 1
    38   22   23 1
    39   23   37 1
    40   24   25 2
    41   24   38 1
@<TRIPOS>MOLECULE
ZINC03999512
   38    41     0     0     0
SMALL
USER_CHARGES
(3-bromophenyl)BLAHcarboxylic acid
@<TRIPOS>ATOM
      1 C1         -3.5699    2.3737    4.5359 C.ar      1 <0>        -0.1117
      2 C2         -3.0724    2.1196    3.2712 C.ar      1 <0>        -0.0886
      3 C3         -2.3150    0.9865    3.0408 C.ar      1 <0>        -0.0806
      4 C4         -2.0458    0.1123    4.0773 C.ar      1 <0>        -0.0784
      5 C5         -2.5388    0.3689    5.3438 C.ar      1 <0>        -0.0889
      6 C6         -3.3013    1.5004    5.5727 C.ar      1 <0>        -0.0921
      7 Br1        -2.1704   -0.8262    6.7622 Br        1 <0>        -0.0531
      8 C7         -1.7774    0.7073    1.6609 C.3       1 <0>         0.2115
      9 H1         -1.5493   -0.3531    1.5539 H         1 <0>         0.0782
     10 C8         -0.5337    1.5397    1.4045 C.3       1 <0>        -0.1014
     11 H2         -0.7410    2.6094    1.4340 H         1 <0>         0.0941
     12 C9          0.7232    1.1861    2.2110 C.3       1 <0>        -0.0828
     13 C10         1.8355    1.6067    1.2483 C.2       1 <0>        -0.1840
     14 C11         1.3935    1.5627   -0.0029 C.2       1 <0>        -0.1318
     15 C12        -0.0127    1.0858    0.0080 C.3       1 <0>        -0.0184
     16 H3          0.0021   -0.0041    0.0020 H         1 <0>         0.0771
     17 C13        -1.0028    1.5354   -0.9939 C.ar      1 <0>        -0.1625
     18 C14        -0.6427    1.9361   -2.2570 C.ar      1 <0>        -0.0354
     19 C15        -1.6224    2.3362   -3.1712 C.ar      1 <0>        -0.1625
     20 C16        -2.9685    2.3250   -2.7919 C.ar      1 <0>        -0.0342
     21 C17        -3.3150    1.8823   -1.5761 C.ar      1 <0>        -0.2016
     22 C18        -2.3518    1.5057   -0.6424 C.ar      1 <0>         0.2108
     23 N1         -2.7575    1.1276    0.6364 N.pl3     1 <0>        -0.7483
     24 C19        -1.2384    2.7668   -4.5274 C.2       1 <0>         0.4929
     25 O1         -0.0679    2.7749   -4.8536 O.co2     1 <0>        -0.6391
     26 H4         -4.1654    3.2569    4.7144 H         1 <0>         0.1327
     27 H5         -3.2787    2.8046    2.4621 H         1 <0>         0.1333
     28 H6         -1.4502   -0.7706    3.8983 H         1 <0>         0.1335
     29 H7         -3.6862    1.7013    6.5615 H         1 <0>         0.1315
     30 H8          0.7677    0.1164    2.4159 H         1 <0>         0.0760
     31 H9          0.7686    1.7615    3.1357 H         1 <0>         0.0685
     32 H10         2.8332    1.8966    1.5431 H         1 <0>         0.1266
     33 H11         1.9617    1.8295   -0.8817 H         1 <0>         0.1334
     34 H12         0.3983    1.9421   -2.5447 H         1 <0>         0.1239
     35 H13        -3.7294    2.6272   -3.4963 H         1 <0>         0.1283
     36 H14        -4.3598    1.8641   -1.3033 H         1 <0>         0.1100
     37 H15        -3.7015    1.1406    0.8588 H         1 <0>         0.3953
     38 O2         -2.1854    3.1516   -5.4055 O.co2     1 <0>        -0.7625
@<TRIPOS>BOND
     1    1    6 ar
     2    1    2 ar
     3    1   26 1
     4    2    3 ar
     5    2   27 1
     6    3    4 ar
     7    3    8 1
     8    4    5 ar
     9    4   28 1
    10    5    6 ar
    11    5    7 1
    12    6   29 1
    13    8    9 1
    14    8   23 1
    15    8   10 1
    16   10   11 1
    17   10   15 1
    18   10   12 1
    19   12   13 1
    20   12   30 1
    21   12   31 1
    22   13   14 2
    23   13   32 1
    24   14   15 1
    25   14   33 1
    26   15   16 1
    27   15   17 1
    28   17   22 ar
    29   17   18 ar
    30   18   19 ar
    31   18   34 1
    32   19   20 ar
    33   19   24 1
    34   20   21 ar
    35   20   35 1
    36   21   22 ar
    37   21   36 1
    38   22   23 1
    39   23   37 1
    40   24   25 2
    41   24   38 1
@<TRIPOS>MOLECULE
ZINC03999513
   38    41     0     0     0
SMALL
USER_CHARGES
(3-bromophenyl)BLAHcarboxylic acid
@<TRIPOS>ATOM
      1 C1          3.3280    7.3711    3.6360 C.ar      1 <0>        -0.1142
      2 C2          2.8606    7.2085    2.3449 C.ar      1 <0>        -0.0806
      3 C3          3.1322    8.1657    1.3855 C.ar      1 <0>        -0.0887
      4 C4          3.8623    9.2912    1.7190 C.ar      1 <0>        -0.0856
      5 C5          4.3256    9.4568    3.0116 C.ar      1 <0>        -0.0920
      6 C6          4.0580    8.4959    3.9702 C.ar      1 <0>        -0.0921
      7 Br1         5.3239   10.9964    3.4685 Br        1 <0>        -0.0577
      8 C7          2.6269    7.9854   -0.0228 C.3       1 <0>         0.2074
      9 H1          2.3899    8.9527   -0.4659 H         1 <0>         0.0972
     10 C8          3.6642    7.2635   -0.8636 C.3       1 <0>        -0.1029
     11 H2          3.3007    7.0490   -1.8685 H         1 <0>         0.0988
     12 C9          5.0713    7.8655   -0.8752 C.3       1 <0>        -0.0884
     13 C10         5.9184    6.6185   -1.1373 C.2       1 <0>        -0.1853
     14 C11         5.2859    5.5387   -0.6940 C.2       1 <0>        -0.1337
     15 C12         4.0019    5.9609   -0.0777 C.3       1 <0>        -0.0298
     16 H3          4.1993    6.2408    0.9571 H         1 <0>         0.0885
     17 C13         2.8022    5.0960   -0.1000 C.ar      1 <0>        -0.1588
     18 C14         2.8837    3.7261   -0.1496 C.ar      1 <0>        -0.0348
     19 C15         1.7173    2.9546   -0.1512 C.ar      1 <0>        -0.1596
     20 C16         0.4703    3.5860   -0.1029 C.ar      1 <0>        -0.0353
     21 C17         0.3930    4.9470   -0.0494 C.ar      1 <0>        -0.2061
     22 C18         1.5489    5.7252   -0.0557 C.ar      1 <0>         0.2050
     23 N1          1.4319    7.1140   -0.0292 N.pl3     1 <0>        -0.7464
     24 C19         1.8015    1.4843   -0.2096 C.2       1 <0>         0.4926
     25 O1          2.8866    0.9393   -0.2565 O.co2     1 <0>        -0.6385
     26 H4          3.1188    6.6211    4.3844 H         1 <0>         0.1322
     27 H5          2.2863    6.3315    2.0851 H         1 <0>         0.1384
     28 H6          4.0713   10.0409    0.9702 H         1 <0>         0.1320
     29 H7          4.4192    8.6250    4.9798 H         1 <0>         0.1301
     30 H8          5.3288    8.3185    0.0822 H         1 <0>         0.0814
     31 H9          5.1752    8.5860   -1.6865 H         1 <0>         0.0687
     32 H10         6.8880    6.6170   -1.6130 H         1 <0>         0.1254
     33 H11         5.6451    4.5229   -0.7686 H         1 <0>         0.1315
     34 H12         3.8495    3.2441   -0.1878 H         1 <0>         0.1242
     35 H13        -0.4334    2.9947   -0.1037 H         1 <0>         0.1283
     36 H14        -0.5738    5.4263   -0.0059 H         1 <0>         0.1126
     37 H15         0.5496    7.5167   -0.0143 H         1 <0>         0.3978
     38 O2          0.6752    0.7444   -0.2109 O.co2     1 <0>        -0.7619
@<TRIPOS>BOND
     1    1    6 ar
     2    1    2 ar
     3    1   26 1
     4    2    3 ar
     5    2   27 1
     6    3    4 ar
     7    3    8 1
     8    4    5 ar
     9    4   28 1
    10    5    6 ar
    11    5    7 1
    12    6   29 1
    13    8    9 1
    14    8   23 1
    15    8   10 1
    16   10   11 1
    17   10   15 1
    18   10   12 1
    19   12   13 1
    20   12   30 1
    21   12   31 1
    22   13   14 2
    23   13   32 1
    24   14   15 1
    25   14   33 1
    26   15   16 1
    27   15   17 1
    28   17   22 ar
    29   17   18 ar
    30   18   19 ar
    31   18   34 1
    32   19   20 ar
    33   19   24 1
    34   20   21 ar
    35   20   35 1
    36   21   22 ar
    37   21   36 1
    38   22   23 1
    39   23   37 1
    40   24   25 2
    41   24   38 1
