@<TRIPOS>MOLECULE
ZINC00001963
   34    35     0     0     0
SMALL
USER_CHARGES

@<TRIPOS>ATOM
      1 C1          1.1628    1.2415   -0.1816 C.3       1 <0>        -0.1125
      2 C2          0.5396   -0.1274   -0.0881 C.ar      1 <0>        -0.0708
      3 C3         -0.0758   -0.6832   -1.1950 C.ar      1 <0>        -0.1399
      4 C4         -0.6489   -1.9389   -1.1136 C.ar      1 <0>        -0.0956
      5 C5         -0.6081   -2.6426    0.0743 C.ar      1 <0>        -0.1245
      6 C6          0.0094   -2.0875    1.1876 C.ar      1 <0>         0.1624
      7 C7          0.5885   -0.8277    1.1009 C.ar      1 <0>        -0.1269
      8 C8          1.2642   -0.2236    2.3049 C.3       1 <0>        -0.1134
      9 N1          0.0525   -2.7970    2.3913 N.pl3     1 <0>        -0.6432
     10 C9         -0.0333   -4.1809    2.3838 C.ar      1 <0>         0.4504
     11 C10        -0.1233   -4.8911    3.5821 C.ar      1 <0>        -0.2937
     12 C11        -0.2076   -6.2706    3.5268 C.ar      1 <0>         0.2686
     13 N2         -0.2005   -6.8736    2.3458 N.ar      1 <0>        -0.5558
     14 C12        -0.1140   -6.1729    1.2242 C.ar      1 <0>         0.3382
     15 N3         -0.0367   -4.8500    1.2351 N.ar      1 <0>        -0.5436
     16 S1         -0.1079   -7.0210   -0.3202 S.3       1 <0>         0.0845
     17 C13        -0.2344   -8.7712    0.1397 C.3       1 <0>        -0.1742
     18 C14        -0.2397   -9.6189   -1.1062 C.2       1 <0>         0.5136
     19 O1         -0.1649   -9.0913   -2.2028 O.co2     1 <0>        -0.6747
     20 O2         -0.3186  -10.8323   -1.0176 O.co2     1 <0>        -0.6767
     21 Cl1        -0.3208   -7.2023    4.9872 Cl        1 <0>        -0.0203
     22 H1          2.2036    1.1465   -0.4911 H         1 <0>         0.0688
     23 H2          0.6192    1.8390   -0.9134 H         1 <0>         0.0653
     24 H3          1.1164    1.7291    0.7921 H         1 <0>         0.0654
     25 H4         -0.1091   -0.1351   -2.1250 H         1 <0>         0.1195
     26 H5         -1.1293   -2.3698   -1.9796 H         1 <0>         0.1264
     27 H6         -1.0562   -3.6232    0.1373 H         1 <0>         0.1517
     28 H7          0.5364    0.3468    2.8820 H         1 <0>         0.0672
     29 H8          1.6782   -1.0180    2.9259 H         1 <0>         0.0600
     30 H9          2.0668    0.4373    1.9776 H         1 <0>         0.0719
     31 H10         0.1425   -2.3212    3.2317 H         1 <0>         0.4195
     32 H11        -0.1267   -4.3752    4.5310 H         1 <0>         0.1489
     33 H12         0.6171   -9.0457    0.7624 H         1 <0>         0.0917
     34 H13        -1.1582   -8.9351    0.6946 H         1 <0>         0.0918
@<TRIPOS>BOND
     1    1    2 1
     2    1   22 1
     3    1   23 1
     4    1   24 1
     5    2    7 ar
     6    2    3 ar
     7    3    4 ar
     8    3   25 1
     9    4    5 ar
    10    4   26 1
    11    5    6 ar
    12    5   27 1
    13    6    7 ar
    14    6    9 1
    15    7    8 1
    16    8   28 1
    17    8   29 1
    18    8   30 1
    19    9   10 1
    20    9   31 1
    21   10   15 ar
    22   10   11 ar
    23   11   12 ar
    24   11   32 1
    25   12   13 ar
    26   12   21 1
    27   13   14 ar
    28   14   15 ar
    29   14   16 1
    30   16   17 1
    31   17   18 1
    32   17   33 1
    33   17   34 1
    34   18   19 2
    35   18   20 1
@<TRIPOS>MOLECULE
ZINC03819473
   47    48     0     0     0
SMALL
USER_CHARGES
2-ethoxy-3-[4-(5-phenylpent-2-en-4-ynoxy)phenyl]-propanoic acid
@<TRIPOS>ATOM
      1 C1          8.9534  -11.8219    0.1386 C.3       1 <0>        -0.1439
      2 C2         10.0927  -10.9407   -0.3774 C.3       1 <0>         0.0638
      3 O1         10.7011  -10.2575    0.7204 O.3       1 <0>        -0.3680
      4 C3         11.7831   -9.4027    0.3454 C.3       1 <0>         0.0586
      5 H1         11.6145   -9.0241   -0.6627 H         1 <0>         0.0559
      6 C4         11.8686   -8.2292    1.3233 C.3       1 <0>        -0.0612
      7 C5         10.6291   -7.3810    1.1996 C.ar      1 <0>        -0.0963
      8 C6          9.5243   -7.6547    1.9845 C.ar      1 <0>        -0.0620
      9 C7          8.3869   -6.8786    1.8730 C.ar      1 <0>        -0.1504
     10 C8          8.3538   -5.8239    0.9724 C.ar      1 <0>         0.1111
     11 C9          9.4617   -5.5548    0.1819 C.ar      1 <0>        -0.2084
     12 C10        10.5985   -6.3306    0.3010 C.ar      1 <0>        -0.0808
     13 O2          7.2361   -5.0589    0.8609 O.3       1 <0>        -0.3145
     14 C11         7.2734   -3.9900   -0.0868 C.3       1 <0>         0.0882
     15 C12         5.9561   -3.2582   -0.0708 C.2       1 <0>        -0.1090
     16 C13         5.9341   -1.9262   -0.0638 C.2       1 <0>        -0.0491
     17 C14         4.6824   -1.2309   -0.0486 C.1       1 <0>        -0.1163
     18 C15         3.6562   -0.6608   -0.0361 C.1       1 <0>        -0.1291
     19 C16         2.4045    0.0346   -0.0208 C.ar      1 <0>         0.0155
     20 C17         1.2036   -0.6808   -0.0131 C.ar      1 <0>        -0.0954
     21 C18         0.0021   -0.0041    0.0020 C.ar      1 <0>        -0.1189
     22 C19        -0.0167    1.3797    0.0096 C.ar      1 <0>        -0.1117
     23 C20         1.1681    2.0948    0.0022 C.ar      1 <0>        -0.1195
     24 C21         2.3774    1.4322   -0.0130 C.ar      1 <0>        -0.0959
     25 C22        13.0733  -10.1808    0.3805 C.2       1 <0>         0.4447
     26 O3         13.0806  -11.3208    0.7806 O.co2     1 <0>        -0.6223
     27 H2          8.2097  -11.1997    0.6366 H         1 <0>         0.0558
     28 H3          8.4893  -12.3430   -0.6987 H         1 <0>         0.0609
     29 H4          9.3495  -12.5508    0.8457 H         1 <0>         0.0625
     30 H5          9.6966  -10.2117   -1.0844 H         1 <0>         0.0329
     31 H6         10.8364  -11.5628   -0.8753 H         1 <0>         0.0458
     32 H7         12.7463   -7.6260    1.0913 H         1 <0>         0.0912
     33 H8         11.9482   -8.6098    2.3416 H         1 <0>         0.0750
     34 H9          9.5504   -8.4762    2.6852 H         1 <0>         0.1315
     35 H10         7.5242   -7.0926    2.4866 H         1 <0>         0.1259
     36 H11         9.4368   -4.7370   -0.5231 H         1 <0>         0.1229
     37 H12        11.4628   -6.1188   -0.3110 H         1 <0>         0.1257
     38 H13         7.4525   -4.3940   -1.0832 H         1 <0>         0.0790
     39 H14         8.0756   -3.3001    0.1751 H         1 <0>         0.0723
     40 H15         5.0299   -3.8136   -0.0649 H         1 <0>         0.1257
     41 H16         6.8604   -1.3709   -0.0697 H         1 <0>         0.1400
     42 H17         1.2167   -1.7607   -0.0194 H         1 <0>         0.1275
     43 H18        -0.9266   -0.5554    0.0076 H         1 <0>         0.1284
     44 H19        -0.9608    1.9041    0.0169 H         1 <0>         0.1257
     45 H20         1.1455    3.1746    0.0078 H         1 <0>         0.1281
     46 H21         3.3012    1.9916   -0.0193 H         1 <0>         0.1272
     47 O4         14.2143   -9.6072   -0.0328 O.co2     1 <0>        -0.7689
@<TRIPOS>BOND
     1    1    2 1
     2    1   27 1
     3    1   28 1
     4    1   29 1
     5    2    3 1
     6    2   30 1
     7    2   31 1
     8    3    4 1
     9    4    5 1
    10    4    6 1
    11    4   25 1
    12    6    7 1
    13    6   32 1
    14    6   33 1
    15    7   12 ar
    16    7    8 ar
    17    8    9 ar
    18    8   34 1
    19    9   10 ar
    20    9   35 1
    21   10   11 ar
    22   10   13 1
    23   11   12 ar
    24   11   36 1
    25   12   37 1
    26   13   14 1
    27   14   15 1
    28   14   38 1
    29   14   39 1
    30   15   16 2
    31   15   40 1
    32   16   17 1
    33   16   41 1
    34   17   18 3
    35   18   19 1
    36   19   24 ar
    37   19   20 ar
    38   20   21 ar
    39   20   42 1
    40   21   22 ar
    41   21   43 1
    42   22   23 ar
    43   22   44 1
    44   23   24 ar
    45   23   45 1
    46   24   46 1
    47   25   26 2
    48   25   47 1
