@<TRIPOS>MOLECULE
ZINC13209838
   26    27     0     0     0
SMALL
USER_CHARGES

@<TRIPOS>ATOM
      1 C1         -0.0169    1.3955    0.0097 C.ar      1 <0>        -0.0655
      2 C2          1.1666    2.0997    0.0022 C.ar      1 <0>        -0.1412
      3 C3          2.3803    1.4250   -0.0130 C.ar      1 <0>         0.1204
      4 C4          2.4077    0.0300   -0.0208 C.ar      1 <0>         0.0717
      5 C5          1.2268   -0.6837   -0.0133 C.ar      1 <0>        -0.0675
      6 C6          0.0021   -0.0041    0.0020 C.ar      1 <0>        -0.1649
      7 C7         -1.2584   -0.7577    0.0100 C.2       1 <0>         0.3791
      8 O1         -1.2399   -1.9705    0.0033 O.2       1 <0>        -0.4230
      9 C8         -2.5747   -0.0243    0.0265 C.3       1 <0>         0.0621
     10 N1         -3.6736   -0.9932    0.0318 N.pl3     1 <0>        -0.4557
     11 C9         -4.2896   -1.5287   -1.0670 C.2       1 <0>        -0.0511
     12 C10        -5.2379   -2.3692   -0.6112 C.2       1 <0>        -0.0247
     13 N2         -5.2019   -2.3476    0.7294 N.2       1 <0>        -0.4910
     14 C11        -4.2639   -1.5294    1.1216 C.2       1 <0>         0.1893
     15 O2          3.5987   -0.6264   -0.0361 O.3       1 <0>        -0.4831
     16 O3          3.5435    2.1248   -0.0208 O.3       1 <0>        -0.4849
     17 H1         -0.9592    1.9229    0.0261 H         1 <0>         0.1412
     18 H2          1.1507    3.1796    0.0078 H         1 <0>         0.1448
     19 H3          1.2468   -1.7635   -0.0197 H         1 <0>         0.1462
     20 H4         -2.6335    0.5966    0.9204 H         1 <0>         0.1316
     21 H5         -2.6505    0.6062   -0.8594 H         1 <0>         0.1295
     22 H6         -4.0596   -1.3174   -2.1009 H         1 <0>         0.1738
     23 H7         -5.9097   -2.9575   -1.2186 H         1 <0>         0.1712
     24 H8         -4.0045   -1.3147    2.1478 H         1 <0>         0.2035
     25 H9          3.9519   -0.8210    0.8428 H         1 <0>         0.3920
     26 H10         3.8891    2.3231    0.8603 H         1 <0>         0.3962
@<TRIPOS>BOND
     1    1    6 ar
     2    1    2 ar
     3    1   17 1
     4    2    3 ar
     5    2   18 1
     6    3    4 ar
     7    3   16 1
     8    4    5 ar
     9    4   15 1
    10    5    6 ar
    11    5   19 1
    12    6    7 1
    13    7    8 2
    14    7    9 1
    15    9   10 1
    16    9   20 1
    17    9   21 1
    18   10   14 1
    19   10   11 1
    20   11   12 2
    21   11   22 1
    22   12   13 1
    23   12   23 1
    24   13   14 2
    25   14   24 1
    26   15   25 1
    27   16   26 1
@<TRIPOS>MOLECULE
ZINC13209838
   27    28     0     0     0
SMALL
USER_CHARGES

@<TRIPOS>ATOM
      1 C1         -0.0169    1.3955    0.0097 C.ar      1 <0>        -0.0643
      2 C2          1.1666    2.0997    0.0022 C.ar      1 <0>        -0.1407
      3 C3          2.3803    1.4250   -0.0130 C.ar      1 <0>         0.1370
      4 C4          2.4077    0.0300   -0.0208 C.ar      1 <0>         0.0747
      5 C5          1.2268   -0.6837   -0.0133 C.ar      1 <0>        -0.0602
      6 C6          0.0021   -0.0041    0.0020 C.ar      1 <0>        -0.1806
      7 C7         -1.2584   -0.7577    0.0100 C.2       1 <0>         0.3897
      8 O1         -1.2399   -1.9705    0.0033 O.2       1 <0>        -0.4303
      9 C8         -2.5747   -0.0243    0.0265 C.3       1 <0>         0.0487
     10 N1         -3.6736   -0.9932    0.0318 N.pl3     1 <0>        -0.4058
     11 C9         -4.2893   -1.5290   -1.0670 C.2       1 <0>         0.0320
     12 C10        -5.2378   -2.3694   -0.6112 C.2       1 <0>         0.0071
     13 N2         -5.2021   -2.3473    0.7294 N.pl3     1 <0>        -0.4730
     14 C11        -4.2642   -1.5291    1.1216 C.cat     1 <0>         0.2973
     15 O2          3.5987   -0.6264   -0.0361 O.3       1 <0>        -0.4804
     16 O3          3.5435    2.1248   -0.0208 O.3       1 <0>        -0.4822
     17 H1         -0.9592    1.9229    0.0261 H         1 <0>         0.1404
     18 H2          1.1507    3.1796    0.0078 H         1 <0>         0.1493
     19 H3          1.2468   -1.7635   -0.0197 H         1 <0>         0.1480
     20 H4         -2.6335    0.5966    0.9204 H         1 <0>         0.1579
     21 H5         -2.6505    0.6062   -0.8594 H         1 <0>         0.1604
     22 H6         -4.0590   -1.3181   -2.1009 H         1 <0>         0.2234
     23 H7         -5.9094   -2.9579   -1.2186 H         1 <0>         0.2259
     24 H8         -4.0051   -1.3140    2.1478 H         1 <0>         0.2603
     25 H9          3.9519   -0.8210    0.8428 H         1 <0>         0.3964
     26 H10         3.8891    2.3231    0.8603 H         1 <0>         0.4025
     27 H11        -5.7798   -2.8614    1.3150 H         1 <0>         0.4665
@<TRIPOS>BOND
     1    1    6 ar
     2    1    2 ar
     3    1   17 1
     4    2    3 ar
     5    2   18 1
     6    3    4 ar
     7    3   16 1
     8    4    5 ar
     9    4   15 1
    10    5    6 ar
    11    5   19 1
    12    6    7 1
    13    7    8 2
    14    7    9 1
    15    9   10 1
    16    9   20 1
    17    9   21 1
    18   10   14 1
    19   10   11 1
    20   11   12 2
    21   11   22 1
    22   12   13 1
    23   12   23 1
    24   13   14 2
    25   13   27 1
    26   14   24 1
    27   15   25 1
    28   16   26 1
@<TRIPOS>MOLECULE
ZINC00111949
   34    35     0     0     0
SMALL
USER_CHARGES

@<TRIPOS>ATOM
      1 C1         -0.0184    1.5028    0.0103 C.3       1 <0>        -0.1073
      2 C2          0.0021   -0.0041    0.0020 C.ar      1 <0>         0.1925
      3 C3          0.0059   -0.6989   -1.1975 C.ar      1 <0>        -0.2387
      4 C4          0.0249   -2.0845   -1.1608 C.ar      1 <0>         0.1956
      5 N1          0.0386   -2.6990    0.0103 N.ar      1 <0>        -0.5061
      6 C5          0.0345   -2.0049    1.1396 C.ar      1 <0>         0.2961
      7 N2          0.0220   -0.6794    1.1390 N.ar      1 <0>        -0.5382
      8 S1          0.0533   -2.8644    2.6776 S.3       1 <0>         0.0630
      9 C6          0.0411   -1.5421    3.9194 C.3       1 <0>        -0.1738
     10 C7          0.0558   -2.1484    5.2990 C.2       1 <0>         0.4175
     11 O1          0.0727   -3.3540    5.4314 O.2       1 <0>        -0.4281
     12 C8          0.0495   -1.2796    6.4830 C.ar      1 <0>        -0.1583
     13 C9          0.0241    0.1122    6.3325 C.ar      1 <0>        -0.0614
     14 C10         0.0178    0.9243    7.4442 C.ar      1 <0>        -0.1426
     15 C11         0.0370    0.3667    8.7165 C.ar      1 <0>         0.1195
     16 C12         0.0624   -1.0189    8.8748 C.ar      1 <0>         0.0700
     17 C13         0.0631   -1.8408    7.7659 C.ar      1 <0>        -0.0666
     18 O2          0.0817   -1.5602   10.1223 O.3       1 <0>        -0.4830
     19 O3          0.0316    1.1727    9.8087 O.3       1 <0>        -0.4853
     20 C14         0.0292   -2.8812   -2.4401 C.3       1 <0>        -0.1085
     21 H1          1.0042    1.8801    0.0026 H         1 <0>         0.0878
     22 H2         -0.5455    1.8639   -0.8728 H         1 <0>         0.0836
     23 H3         -0.5286    1.8543    0.9071 H         1 <0>         0.0827
     24 H4         -0.0060   -0.1721   -2.1402 H         1 <0>         0.1493
     25 H5          0.9221   -0.9135    3.7894 H         1 <0>         0.1308
     26 H6         -0.8577   -0.9376    3.7977 H         1 <0>         0.1307
     27 H7          0.0098    0.5485    5.3447 H         1 <0>         0.1425
     28 H8         -0.0018    1.9977    7.3269 H         1 <0>         0.1436
     29 H9          0.0786   -2.9139    7.8873 H         1 <0>         0.1480
     30 H10        -0.7960   -1.7322   10.4900 H         1 <0>         0.3910
     31 H11        -0.8532    1.3911   10.1320 H         1 <0>         0.3952
     32 H12         1.0578   -3.0593   -2.7536 H         1 <0>         0.0889
     33 H13        -0.4709   -3.8356   -2.2754 H         1 <0>         0.0855
     34 H14        -0.4961   -2.3248   -3.2163 H         1 <0>         0.0839
@<TRIPOS>BOND
     1    1    2 1
     2    1   21 1
     3    1   22 1
     4    1   23 1
     5    2    7 ar
     6    2    3 ar
     7    3    4 ar
     8    3   24 1
     9    4    5 ar
    10    4   20 1
    11    5    6 ar
    12    6    7 ar
    13    6    8 1
    14    8    9 1
    15    9   10 1
    16    9   25 1
    17    9   26 1
    18   10   11 2
    19   10   12 1
    20   12   17 ar
    21   12   13 ar
    22   13   14 ar
    23   13   27 1
    24   14   15 ar
    25   14   28 1
    26   15   16 ar
    27   15   19 1
    28   16   17 ar
    29   16   18 1
    30   17   29 1
    31   18   30 1
    32   19   31 1
    33   20   32 1
    34   20   33 1
    35   20   34 1
