@<TRIPOS>MOLECULE
ZINC00597385
   39    42     0     0     0
SMALL
USER_CHARGES
(4-bromo-2-fluoro-phenyl)methyl-fluoro-BLAHtetrone
@<TRIPOS>ATOM
      1 C1         -1.2451    3.1423    0.0294 C.ar      1 <0>        -0.1501
      2 C2         -0.0662    3.8582    0.0223 C.ar      1 <0>        -0.0062
      3 C3          1.1534    3.1821    0.0083 C.ar      1 <0>        -0.1420
      4 C4          1.1646    1.7799    0.0005 C.ar      1 <0>        -0.0083
      5 C5         -0.0126    1.0758    0.0080 C.ar      1 <0>        -0.1498
      6 C6         -1.2236    1.7561    0.0174 C.ar      1 <0>         0.1532
      7 F1         -2.3843    1.0646    0.0194 F         1 <0>        -0.1201
      8 C7          2.5045    1.0991   -0.0156 C.3       1 <0>        -0.0917
      9 C8          2.5599    0.1820   -1.2457 C.3       1 <0>        -0.1447
     10 C9          2.6593   -1.2041   -0.6423 C.2       1 <0>         0.5381
     11 O1          2.7275   -2.2399   -1.2685 O.2       1 <0>        -0.4574
     12 N1          2.6606   -1.1028    0.6938 N.am      1 <0>        -0.6717
     13 C10         2.5770    0.1543    1.1543 C.2       1 <0>         0.5582
     14 O2          2.5627    0.4771    2.3227 O.2       1 <0>        -0.4439
     15 C11         3.7451    1.9528   -0.0159 C.2       1 <0>         0.5513
     16 O3          4.8433    1.4393   -0.0230 O.2       1 <0>        -0.4400
     17 N2          3.6195    3.2947   -0.0078 N.am      1 <0>        -0.5537
     18 C12         2.4309    3.9144    0.0016 C.2       1 <0>         0.5723
     19 O4          2.4067    5.1294    0.0051 O.2       1 <0>        -0.4772
     20 C13         4.8355    4.1118   -0.0098 C.3       1 <0>         0.1361
     21 C14         5.2448    4.3999   -1.4312 C.ar      1 <0>        -0.1410
     22 C15         5.0305    5.6541   -1.9715 C.ar      1 <0>        -0.0549
     23 C16         5.4065    5.9193   -3.2748 C.ar      1 <0>        -0.1047
     24 C17         5.9972    4.9297   -4.0403 C.ar      1 <0>        -0.0546
     25 C18         6.2119    3.6745   -3.5017 C.ar      1 <0>        -0.1331
     26 C19         5.8406    3.4102   -2.1942 C.ar      1 <0>         0.1218
     27 F2          6.0548    2.1857   -1.6651 F         1 <0>        -0.1099
     28 Br1         6.5117    5.2941   -5.8231 Br        1 <0>        -0.0289
     29 H1         -2.1904    3.6646    0.0401 H         1 <0>         0.1568
     30 H2         -0.0875    4.9380    0.0272 H         1 <0>         0.1604
     31 H3          0.0021   -0.0041    0.0020 H         1 <0>         0.1470
     32 H4          1.6506    0.2789   -1.8388 H         1 <0>         0.1417
     33 H5          3.4398    0.4023   -1.8502 H         1 <0>         0.1385
     34 H6          2.7172   -1.8742    1.2792 H         1 <0>         0.4283
     35 H7          4.6434    5.0503    0.5103 H         1 <0>         0.1215
     36 H8          5.6362    3.5730    0.4968 H         1 <0>         0.1159
     37 H9          4.5695    6.4272   -1.3748 H         1 <0>         0.1498
     38 H10         5.2387    6.8995   -3.6960 H         1 <0>         0.1446
     39 H11         6.6730    2.9019   -4.0991 H         1 <0>         0.1485
@<TRIPOS>BOND
     1    1    6 ar
     2    1    2 ar
     3    1   29 1
     4    2    3 ar
     5    2   30 1
     6    3   18 1
     7    3    4 ar
     8    4    5 ar
     9    4    8 1
    10    5    6 ar
    11    5   31 1
    12    6    7 1
    13    8   13 1
    14    8    9 1
    15    8   15 1
    16    9   10 1
    17    9   32 1
    18    9   33 1
    19   10   11 2
    20   10   12 am
    21   12   13 am
    22   12   34 1
    23   13   14 2
    24   15   16 2
    25   15   17 am
    26   17   18 am
    27   17   20 1
    28   18   19 2
    29   20   21 1
    30   20   35 1
    31   20   36 1
    32   21   26 ar
    33   21   22 ar
    34   22   23 ar
    35   22   37 1
    36   23   24 ar
    37   23   38 1
    38   24   25 ar
    39   24   28 1
    40   25   26 ar
    41   25   39 1
    42   26   27 1
@<TRIPOS>MOLECULE
ZINC03780343
   37    38     0     0     0
SMALL
USER_CHARGES

@<TRIPOS>ATOM
      1 C1          2.4337   -0.6161   -1.2464 C.3       1 <0>         0.0561
      2 N1          1.1760   -1.0005   -0.6009 N.pl3     1 <0>        -0.4647
      3 C2          1.1956   -1.8358    0.6025 C.3       1 <0>         0.0136
      4 C3          1.2610   -0.9556    1.8240 C.2       1 <0>         0.5006
      5 O1          1.2886    0.2571    1.7007 O.co2     1 <0>        -0.6791
      6 O2          1.2863   -1.4562    2.9354 O.co2     1 <0>        -0.6856
      7 C4          0.0008   -0.5856   -1.1141 C.2       1 <0>         0.3683
      8 S1         -1.4605   -0.9226   -0.2883 S.2       1 <0>        -0.5802
      9 C5         -0.0262    0.1575   -2.3849 C.ar      1 <0>        -0.0334
     10 C6          0.1653    1.5335   -2.4062 C.ar      1 <0>        -0.0908
     11 C7          0.1393    2.2316   -3.6056 C.ar      1 <0>        -0.0750
     12 C8         -0.0720    1.6062   -4.7961 C.ar      1 <0>        -0.1240
     13 C9         -0.2731    0.2166   -4.8500 C.ar      1 <0>         0.0285
     14 C10        -0.2489   -0.5377   -3.6510 C.ar      1 <0>        -0.0605
     15 C11        -0.4428   -1.9239   -3.6991 C.ar      1 <0>        -0.0158
     16 C12        -0.6474   -2.5353   -4.8989 C.ar      1 <0>        -0.2023
     17 C13        -0.6665   -1.7970   -6.0856 C.ar      1 <0>         0.1946
     18 C14        -0.4927   -0.4420   -6.0714 C.ar      1 <0>        -0.2313
     19 C15        -0.5163    0.3389   -7.3601 C.3       1 <0>         0.5200
     20 F1          0.6708    1.0685   -7.4851 F         1 <0>        -0.1789
     21 F2         -0.6365   -0.5444   -8.4384 F         1 <0>        -0.1637
     22 F3         -1.6050    1.2174   -7.3533 F         1 <0>        -0.1779
     23 O3         -0.8728   -2.4340   -7.2681 O.3       1 <0>        -0.2991
     24 C16        -1.0609   -3.8497   -7.2182 C.3       1 <0>         0.0201
     25 H1          2.7474   -1.4053   -1.9297 H         1 <0>         0.0700
     26 H2          2.2883    0.3098   -1.8029 H         1 <0>         0.0820
     27 H3          3.2011   -0.4668   -0.4869 H         1 <0>         0.0912
     28 H4          0.2902   -2.4415    0.6391 H         1 <0>         0.1126
     29 H5          2.0685   -2.4882    0.5776 H         1 <0>         0.0861
     30 H6          0.3354    2.0646   -1.4813 H         1 <0>         0.1406
     31 H7          0.2906    3.3009   -3.5941 H         1 <0>         0.1360
     32 H8         -0.0855    2.1840   -5.7084 H         1 <0>         0.1314
     33 H9         -0.4298   -2.5054   -2.7891 H         1 <0>         0.1394
     34 H10        -0.7963   -3.6044   -4.9338 H         1 <0>         0.1441
     35 H11        -1.2149   -4.2316   -8.2275 H         1 <0>         0.1051
     36 H12        -0.1782   -4.3184   -6.7832 H         1 <0>         0.0604
     37 H13        -1.9330   -4.0791   -6.6060 H         1 <0>         0.0615
@<TRIPOS>BOND
     1    1    2 1
     2    1   25 1
     3    1   26 1
     4    1   27 1
     5    2    3 1
     6    2    7 1
     7    3    4 1
     8    3   28 1
     9    3   29 1
    10    4    5 2
    11    4    6 1
    12    7    8 2
    13    7    9 1
    14    9   14 ar
    15    9   10 ar
    16   10   11 ar
    17   10   30 1
    18   11   12 ar
    19   11   31 1
    20   12   13 ar
    21   12   32 1
    22   13   18 ar
    23   13   14 ar
    24   14   15 ar
    25   15   16 ar
    26   15   33 1
    27   16   17 ar
    28   16   34 1
    29   17   18 ar
    30   17   23 1
    31   18   19 1
    32   19   20 1
    33   19   21 1
    34   19   22 1
    35   23   24 1
    36   24   35 1
    37   24   36 1
    38   24   37 1
