@<TRIPOS>MOLECULE
ZINC00057064
   44    46     0     0     0
SMALL
USER_CHARGES
benzyl 2-pyrrolidin-1-ylcarbonylpyrrolidine-1-carboxylate
@<TRIPOS>ATOM
      1 C1          5.7176    0.7180    4.1712 C.ar      1 <0>        -0.1073
      2 C2          5.3332    2.0055    3.8463 C.ar      1 <0>        -0.1238
      3 C3          3.9913    2.3320    3.7870 C.ar      1 <0>        -0.0933
      4 C4          3.0338    1.3710    4.0526 C.ar      1 <0>        -0.1004
      5 C5          3.4182    0.0849    4.3826 C.ar      1 <0>        -0.0923
      6 C6          4.7600   -0.2430    4.4367 C.ar      1 <0>        -0.1230
      7 C7          1.5708    1.7271    3.9883 C.3       1 <0>         0.1302
      8 O1          1.0761    1.5001    2.6423 O.3       1 <0>        -0.3588
      9 C8         -0.2229    1.7714    2.4146 C.2       1 <0>         0.6743
     10 O2         -0.9239    2.1867    3.3161 O.2       1 <0>        -0.5639
     11 N1         -0.7456    1.5825    1.1868 N.am      1 <0>        -0.5876
     12 C9         -0.0127    1.0858    0.0080 C.3       1 <0>         0.1029
     13 C10        -0.8063    1.6209   -1.2100 C.3       1 <0>        -0.1303
     14 C11        -2.2686    1.5042   -0.7047 C.3       1 <0>        -0.1207
     15 C12        -2.1430    1.8370    0.7970 C.3       1 <0>         0.1442
     16 H1         -2.3896    2.8852    0.9663 H         1 <0>         0.1015
     17 C13        -3.0695    0.9573    1.5962 C.2       1 <0>         0.5253
     18 O3         -2.6354   -0.0219    2.1651 O.2       1 <0>        -0.5230
     19 N2         -4.3806    1.2586    1.6787 N.am      1 <0>        -0.6184
     20 C14        -5.0358    2.4133    1.0470 C.3       1 <0>         0.0951
     21 C15        -6.5284    2.3623    1.4355 C.3       1 <0>        -0.1316
     22 C16        -6.5193    1.5076    2.7304 C.3       1 <0>        -0.1347
     23 C17        -5.3940    0.4885    2.4225 C.3       1 <0>         0.1053
     24 H2          6.7660    0.4629    4.2178 H         1 <0>         0.1253
     25 H3          6.0814    2.7563    3.6392 H         1 <0>         0.1263
     26 H4          3.6910    3.3380    3.5335 H         1 <0>         0.1246
     27 H5          2.6701   -0.6648    4.5943 H         1 <0>         0.1252
     28 H6          5.0603   -1.2488    4.6909 H         1 <0>         0.1265
     29 H7          1.4406    2.7770    4.2510 H         1 <0>         0.0805
     30 H8          1.0144    1.1054    4.6897 H         1 <0>         0.0808
     31 H9          0.0021   -0.0041    0.0020 H         1 <0>         0.0746
     32 H10         1.0041    1.4783    0.0004 H         1 <0>         0.0878
     33 H11        -0.5471    2.6587   -1.4199 H         1 <0>         0.0841
     34 H12        -0.6449    0.9945   -2.0873 H         1 <0>         0.0945
     35 H13        -2.9095    2.2282   -1.2079 H         1 <0>         0.0972
     36 H14        -2.6464    0.4919   -0.8478 H         1 <0>         0.0851
     37 H15        -4.5877    3.3382    1.4101 H         1 <0>         0.0706
     38 H16        -4.9343    2.3502   -0.0364 H         1 <0>         0.0715
     39 H17        -7.1169    1.8767    0.6571 H         1 <0>         0.0793
     40 H18        -6.9093    3.3635    1.6369 H         1 <0>         0.0849
     41 H19        -7.4751    1.0033    2.8724 H         1 <0>         0.0867
     42 H20        -6.2683    2.1162    3.5992 H         1 <0>         0.0775
     43 H21        -5.7776   -0.3261    1.8083 H         1 <0>         0.0690
     44 H22        -4.9700    0.0980    3.3477 H         1 <0>         0.0783
@<TRIPOS>BOND
     1    1    6 ar
     2    1    2 ar
     3    1   24 1
     4    2    3 ar
     5    2   25 1
     6    3    4 ar
     7    3   26 1
     8    4    5 ar
     9    4    7 1
    10    5    6 ar
    11    5   27 1
    12    6   28 1
    13    7    8 1
    14    7   29 1
    15    7   30 1
    16    8    9 1
    17    9   10 2
    18    9   11 am
    19   11   15 1
    20   11   12 1
    21   12   13 1
    22   12   31 1
    23   12   32 1
    24   13   14 1
    25   13   33 1
    26   13   34 1
    27   14   15 1
    28   14   35 1
    29   14   36 1
    30   15   16 1
    31   15   17 1
    32   17   18 2
    33   17   19 am
    34   19   23 1
    35   19   20 1
    36   20   21 1
    37   20   37 1
    38   20   38 1
    39   21   22 1
    40   21   39 1
    41   21   40 1
    42   22   23 1
    43   22   41 1
    44   22   42 1
    45   23   43 1
    46   23   44 1
@<TRIPOS>MOLECULE
ZINC13491619
   49    51     0     0     0
SMALL
USER_CHARGES
4-phenyl-1-[(2S)-2-(pyrrolidine-1-carbonyl)pyrrolidin-1-yl]butan-1-one
@<TRIPOS>ATOM
      1 C1         -7.0232   -1.1382    0.0292 C.ar      1 <0>        -0.1255
      2 C2         -6.4981   -0.6887    1.2263 C.ar      1 <0>        -0.1182
      3 C3         -5.4597    0.2238    1.2263 C.ar      1 <0>        -0.1170
      4 C4         -4.9462    0.6865    0.0292 C.ar      1 <0>        -0.0810
      5 C5         -5.4748    0.2411   -1.1678 C.ar      1 <0>        -0.1177
      6 C6         -6.5106   -0.6744   -1.1679 C.ar      1 <0>        -0.1187
      7 C7         -3.8141    1.6813    0.0293 C.3       1 <0>        -0.0808
      8 C8         -2.4789    0.9344    0.0189 C.3       1 <0>        -0.0981
      9 C9         -1.3296    1.9443    0.0189 C.3       1 <0>        -0.1324
     10 C10        -0.0144    1.2086    0.0087 C.2       1 <0>         0.5363
     11 O1          0.0021   -0.0041    0.0020 O.2       1 <0>        -0.5233
     12 N1          1.1435    1.8983    0.0013 N.am      1 <0>        -0.6083
     13 C11         1.2687    3.3672    0.0085 C.3       1 <0>         0.0980
     14 C12         2.6585    3.6498   -0.6147 C.3       1 <0>        -0.1313
     15 C13         3.4999    2.4778   -0.0441 C.3       1 <0>        -0.1241
     16 C14         2.4910    1.3104   -0.0088 C.3       1 <0>         0.1248
     17 H1          2.6169    0.6871   -0.8941 H         1 <0>         0.0997
     18 C15         2.7000    0.4863    1.2355 C.2       1 <0>         0.5232
     19 O2          1.8131    0.3937    2.0576 O.2       1 <0>        -0.5180
     20 N2          3.8725   -0.1477    1.4349 N.am      1 <0>        -0.6213
     21 C16         5.0244   -0.1261    0.5215 C.3       1 <0>         0.0946
     22 C17         6.1240   -1.0079    1.1498 C.3       1 <0>        -0.1322
     23 C18         5.3215   -1.9373    2.0982 C.3       1 <0>        -0.1348
     24 C19         4.2101   -0.9829    2.6019 C.3       1 <0>         0.1054
     25 H2         -7.8342   -1.8514    0.0291 H         1 <0>         0.1206
     26 H3         -6.8988   -1.0508    2.1616 H         1 <0>         0.1213
     27 H4         -5.0494    0.5749    2.1616 H         1 <0>         0.1209
     28 H5         -5.0765    0.6059   -2.1031 H         1 <0>         0.1206
     29 H6         -6.9211   -1.0252   -2.1032 H         1 <0>         0.1212
     30 H7         -3.8761    2.3022    0.9230 H         1 <0>         0.0734
     31 H8         -3.8846    2.3119   -0.8570 H         1 <0>         0.0731
     32 H9         -2.4169    0.3134   -0.8748 H         1 <0>         0.0713
     33 H10        -2.4084    0.3037    0.9051 H         1 <0>         0.0727
     34 H11        -1.3916    2.5653    0.9126 H         1 <0>         0.0941
     35 H12        -1.4000    2.5749   -0.8673 H         1 <0>         0.0930
     36 H13         0.4826    3.8179   -0.5972 H         1 <0>         0.0842
     37 H14         1.2266    3.7465    1.0295 H         1 <0>         0.0719
     38 H15         2.6148    3.6059   -1.7030 H         1 <0>         0.0827
     39 H16         3.0490    4.6106   -0.2794 H         1 <0>         0.0912
     40 H17         4.3369    2.2473   -0.7032 H         1 <0>         0.0932
     41 H18         3.8543    2.7105    0.9600 H         1 <0>         0.0813
     42 H19         4.7349   -0.5271   -0.4498 H         1 <0>         0.0690
     43 H20         5.3896    0.8948    0.4095 H         1 <0>         0.0724
     44 H21         6.8341   -0.4025    1.7130 H         1 <0>         0.0788
     45 H22         6.6373   -1.5891    0.3837 H         1 <0>         0.0844
     46 H23         5.9430   -2.2835    2.9240 H         1 <0>         0.0863
     47 H24         4.8957   -2.7795    1.5528 H         1 <0>         0.0770
     48 H25         4.5832   -0.3629    3.4170 H         1 <0>         0.0679
     49 H26         3.3389   -1.5525    2.9255 H         1 <0>         0.0780
@<TRIPOS>BOND
     1    1    6 ar
     2    1    2 ar
     3    1   25 1
     4    2    3 ar
     5    2   26 1
     6    3    4 ar
     7    3   27 1
     8    4    5 ar
     9    4    7 1
    10    5    6 ar
    11    5   28 1
    12    6   29 1
    13    7    8 1
    14    7   30 1
    15    7   31 1
    16    8    9 1
    17    8   32 1
    18    8   33 1
    19    9   10 1
    20    9   34 1
    21    9   35 1
    22   10   11 2
    23   10   12 am
    24   12   16 1
    25   12   13 1
    26   13   14 1
    27   13   36 1
    28   13   37 1
    29   14   15 1
    30   14   38 1
    31   14   39 1
    32   15   16 1
    33   15   40 1
    34   15   41 1
    35   16   17 1
    36   16   18 1
    37   18   19 2
    38   18   20 am
    39   20   24 1
    40   20   21 1
    41   21   22 1
    42   21   42 1
    43   21   43 1
    44   22   23 1
    45   22   44 1
    46   22   45 1
    47   23   24 1
    48   23   46 1
    49   23   47 1
    50   24   48 1
    51   24   49 1
@<TRIPOS>MOLECULE
ZINC03803443
   46    48     0     0     0
SMALL
USER_CHARGES

@<TRIPOS>ATOM
      1 C1         -0.0167    1.3781    0.0096 C.ar      1 <0>        -0.1074
      2 C2          1.1709    2.0855    0.0021 C.ar      1 <0>        -0.1236
      3 C3          2.3773    1.4107   -0.0130 C.ar      1 <0>        -0.0937
      4 C4          2.3960    0.0285   -0.0201 C.ar      1 <0>        -0.0995
      5 C5          1.2084   -0.6789   -0.0117 C.ar      1 <0>        -0.0926
      6 C6          0.0021   -0.0041    0.0020 C.ar      1 <0>        -0.1227
      7 C7          3.7112   -0.7071   -0.0376 C.3       1 <0>         0.1284
      8 O1          4.1410   -0.9464    1.3041 O.3       1 <0>        -0.3532
      9 C8          5.3077   -1.5988    1.4650 C.2       1 <0>         0.6739
     10 O2          5.9435   -1.9553    0.4929 O.2       1 <0>        -0.5617
     11 N1          5.7703   -1.8565    2.7044 N.am      1 <0>        -0.5872
     12 C9          5.1008   -1.4883    3.9652 C.3       1 <0>         0.1024
     13 C10         6.2391   -1.4208    5.0137 C.3       1 <0>        -0.1300
     14 C11         7.1497   -2.5926    4.5607 C.3       1 <0>        -0.1218
     15 C12         7.0230   -2.5570    3.0230 C.3       1 <0>         0.1460
     16 H1          7.8683   -2.0176    2.5956 H         1 <0>         0.1042
     17 C13         6.9783   -3.9609    2.4770 C.2       1 <0>         0.5222
     18 O3          5.9144   -4.4642    2.1845 O.2       1 <0>        -0.5117
     19 N2          8.1207   -4.6572    2.3139 N.am      1 <0>        -0.6089
     20 C14         9.4757   -4.1720    2.6333 C.3       1 <0>         0.0930
     21 C15        10.3103   -5.4550    2.8720 C.3       1 <0>        -0.1330
     22 C16         9.7151   -6.4161    1.8092 C.3       1 <0>        -0.1201
     23 C17         8.2214   -6.0287    1.7939 C.3       1 <0>         0.0717
     24 H2          7.8410   -6.0670    0.7732 H         1 <0>         0.0979
     25 C18         7.4365   -6.9687    2.6721 C.2       1 <0>         0.3418
     26 O4          6.5825   -7.6736    2.1904 O.2       1 <0>        -0.4382
     27 H3         -0.9591    1.9053    0.0259 H         1 <0>         0.1253
     28 H4          1.1563    3.1654    0.0076 H         1 <0>         0.1263
     29 H5          3.3051    1.9634   -0.0196 H         1 <0>         0.1244
     30 H6          1.2231   -1.7588   -0.0176 H         1 <0>         0.1250
     31 H7         -0.9258   -0.5567    0.0082 H         1 <0>         0.1265
     32 H8          3.5884   -1.6586   -0.5549 H         1 <0>         0.0782
     33 H9          4.4573   -0.1052   -0.5563 H         1 <0>         0.0780
     34 H10         4.6166   -0.5166    3.8679 H         1 <0>         0.0890
     35 H11         4.3725   -2.2497    4.2444 H         1 <0>         0.0752
     36 H12         6.7683   -0.4697    4.9552 H         1 <0>         0.0850
     37 H13         5.8546   -1.5910    6.0193 H         1 <0>         0.0953
     38 H14         8.1810   -2.4211    4.8691 H         1 <0>         0.0995
     39 H15         6.7815   -3.5408    4.9525 H         1 <0>         0.0852
     40 H16         9.8827   -3.6050    1.7960 H         1 <0>         0.0776
     41 H17         9.4565   -3.5588    3.5342 H         1 <0>         0.0832
     42 H18        11.3686   -5.2731    2.6851 H         1 <0>         0.0936
     43 H19        10.1537   -5.8412    3.8792 H         1 <0>         0.0825
     44 H20        10.1719   -6.2439    0.8347 H         1 <0>         0.0906
     45 H21         9.8386   -7.4546    2.1162 H         1 <0>         0.0886
     46 H22         7.6377   -7.0119    3.7324 H         1 <0>         0.0949
@<TRIPOS>BOND
     1    1    6 ar
     2    1    2 ar
     3    1   27 1
     4    2    3 ar
     5    2   28 1
     6    3    4 ar
     7    3   29 1
     8    4    5 ar
     9    4    7 1
    10    5    6 ar
    11    5   30 1
    12    6   31 1
    13    7    8 1
    14    7   32 1
    15    7   33 1
    16    8    9 1
    17    9   10 2
    18    9   11 am
    19   11   15 1
    20   11   12 1
    21   12   13 1
    22   12   34 1
    23   12   35 1
    24   13   14 1
    25   13   36 1
    26   13   37 1
    27   14   15 1
    28   14   38 1
    29   14   39 1
    30   15   16 1
    31   15   17 1
    32   17   18 2
    33   17   19 am
    34   19   23 1
    35   19   20 1
    36   20   21 1
    37   20   40 1
    38   20   41 1
    39   21   22 1
    40   21   42 1
    41   21   43 1
    42   22   23 1
    43   22   44 1
    44   22   45 1
    45   23   24 1
    46   23   25 1
    47   25   26 2
    48   25   46 1
