@<TRIPOS>MOLECULE
ZINC13491619
   49    51     0     0     0
SMALL
USER_CHARGES
4-phenyl-1-[(2S)-2-(pyrrolidine-1-carbonyl)pyrrolidin-1-yl]butan-1-one
@<TRIPOS>ATOM
      1 C1         -7.0232   -1.1382    0.0292 C.ar      1 <0>        -0.1255
      2 C2         -6.4981   -0.6887    1.2263 C.ar      1 <0>        -0.1182
      3 C3         -5.4597    0.2238    1.2263 C.ar      1 <0>        -0.1170
      4 C4         -4.9462    0.6865    0.0292 C.ar      1 <0>        -0.0810
      5 C5         -5.4748    0.2411   -1.1678 C.ar      1 <0>        -0.1177
      6 C6         -6.5106   -0.6744   -1.1679 C.ar      1 <0>        -0.1187
      7 C7         -3.8141    1.6813    0.0293 C.3       1 <0>        -0.0808
      8 C8         -2.4789    0.9344    0.0189 C.3       1 <0>        -0.0981
      9 C9         -1.3296    1.9443    0.0189 C.3       1 <0>        -0.1324
     10 C10        -0.0144    1.2086    0.0087 C.2       1 <0>         0.5363
     11 O1          0.0021   -0.0041    0.0020 O.2       1 <0>        -0.5233
     12 N1          1.1435    1.8983    0.0013 N.am      1 <0>        -0.6083
     13 C11         1.2687    3.3672    0.0085 C.3       1 <0>         0.0980
     14 C12         2.6585    3.6498   -0.6147 C.3       1 <0>        -0.1313
     15 C13         3.4999    2.4778   -0.0441 C.3       1 <0>        -0.1241
     16 C14         2.4910    1.3104   -0.0088 C.3       1 <0>         0.1248
     17 H1          2.6169    0.6871   -0.8941 H         1 <0>         0.0997
     18 C15         2.7000    0.4863    1.2355 C.2       1 <0>         0.5232
     19 O2          1.8131    0.3937    2.0576 O.2       1 <0>        -0.5180
     20 N2          3.8725   -0.1477    1.4349 N.am      1 <0>        -0.6213
     21 C16         5.0244   -0.1261    0.5215 C.3       1 <0>         0.0946
     22 C17         6.1240   -1.0079    1.1498 C.3       1 <0>        -0.1322
     23 C18         5.3215   -1.9373    2.0982 C.3       1 <0>        -0.1348
     24 C19         4.2101   -0.9829    2.6019 C.3       1 <0>         0.1054
     25 H2         -7.8342   -1.8514    0.0291 H         1 <0>         0.1206
     26 H3         -6.8988   -1.0508    2.1616 H         1 <0>         0.1213
     27 H4         -5.0494    0.5749    2.1616 H         1 <0>         0.1209
     28 H5         -5.0765    0.6059   -2.1031 H         1 <0>         0.1206
     29 H6         -6.9211   -1.0252   -2.1032 H         1 <0>         0.1212
     30 H7         -3.8761    2.3022    0.9230 H         1 <0>         0.0734
     31 H8         -3.8846    2.3119   -0.8570 H         1 <0>         0.0731
     32 H9         -2.4169    0.3134   -0.8748 H         1 <0>         0.0713
     33 H10        -2.4084    0.3037    0.9051 H         1 <0>         0.0727
     34 H11        -1.3916    2.5653    0.9126 H         1 <0>         0.0941
     35 H12        -1.4000    2.5749   -0.8673 H         1 <0>         0.0930
     36 H13         0.4826    3.8179   -0.5972 H         1 <0>         0.0842
     37 H14         1.2266    3.7465    1.0295 H         1 <0>         0.0719
     38 H15         2.6148    3.6059   -1.7030 H         1 <0>         0.0827
     39 H16         3.0490    4.6106   -0.2794 H         1 <0>         0.0912
     40 H17         4.3369    2.2473   -0.7032 H         1 <0>         0.0932
     41 H18         3.8543    2.7105    0.9600 H         1 <0>         0.0813
     42 H19         4.7349   -0.5271   -0.4498 H         1 <0>         0.0690
     43 H20         5.3896    0.8948    0.4095 H         1 <0>         0.0724
     44 H21         6.8341   -0.4025    1.7130 H         1 <0>         0.0788
     45 H22         6.6373   -1.5891    0.3837 H         1 <0>         0.0844
     46 H23         5.9430   -2.2835    2.9240 H         1 <0>         0.0863
     47 H24         4.8957   -2.7795    1.5528 H         1 <0>         0.0770
     48 H25         4.5832   -0.3629    3.4170 H         1 <0>         0.0679
     49 H26         3.3389   -1.5525    2.9255 H         1 <0>         0.0780
@<TRIPOS>BOND
     1    1    6 ar
     2    1    2 ar
     3    1   25 1
     4    2    3 ar
     5    2   26 1
     6    3    4 ar
     7    3   27 1
     8    4    5 ar
     9    4    7 1
    10    5    6 ar
    11    5   28 1
    12    6   29 1
    13    7    8 1
    14    7   30 1
    15    7   31 1
    16    8    9 1
    17    8   32 1
    18    8   33 1
    19    9   10 1
    20    9   34 1
    21    9   35 1
    22   10   11 2
    23   10   12 am
    24   12   16 1
    25   12   13 1
    26   13   14 1
    27   13   36 1
    28   13   37 1
    29   14   15 1
    30   14   38 1
    31   14   39 1
    32   15   16 1
    33   15   40 1
    34   15   41 1
    35   16   17 1
    36   16   18 1
    37   18   19 2
    38   18   20 am
    39   20   24 1
    40   20   21 1
    41   21   22 1
    42   21   42 1
    43   21   43 1
    44   22   23 1
    45   22   44 1
    46   22   45 1
    47   23   24 1
    48   23   46 1
    49   23   47 1
    50   24   48 1
    51   24   49 1
@<TRIPOS>MOLECULE
ZINC34306416
   49    51     0     0     0
SMALL
USER_CHARGES

@<TRIPOS>ATOM
      1 C1         -0.0167    1.3781    0.0096 C.ar      1 <0>        -0.1255
      2 C2          1.1709    2.0855    0.0021 C.ar      1 <0>        -0.1187
      3 C3          2.3773    1.4107   -0.0130 C.ar      1 <0>        -0.1176
      4 C4          2.3960    0.0285   -0.0201 C.ar      1 <0>        -0.0810
      5 C5          1.2084   -0.6789   -0.0117 C.ar      1 <0>        -0.1170
      6 C6          0.0021   -0.0041    0.0020 C.ar      1 <0>        -0.1182
      7 C7          3.7112   -0.7071   -0.0376 C.3       1 <0>        -0.0808
      8 C8          4.1714   -0.9633    1.3989 C.3       1 <0>        -0.0981
      9 C9          5.5066   -1.7102    1.3812 C.3       1 <0>        -0.1324
     10 C10         5.9598   -1.9625    2.7961 C.2       1 <0>         0.5361
     11 O1          5.2817   -1.5823    3.7270 O.2       1 <0>        -0.5232
     12 N1          7.1188   -2.6105    3.0270 N.am      1 <0>        -0.6085
     13 C11         8.0394   -3.1190    1.9939 C.3       1 <0>         0.0981
     14 C12         9.4197   -3.1910    2.6935 C.3       1 <0>        -0.1316
     15 C13         9.0212   -3.6452    4.1226 C.3       1 <0>        -0.1241
     16 C14         7.6774   -2.9218    4.3509 C.3       1 <0>         0.1248
     17 H1          7.8404   -2.0007    4.9104 H         1 <0>         0.0998
     18 C15         6.7348   -3.8234    5.1057 C.2       1 <0>         0.5231
     19 O2          5.6936   -4.1769    4.5941 O.2       1 <0>        -0.5179
     20 N2          7.0490   -4.2368    6.3495 N.am      1 <0>        -0.6215
     21 C16         8.2693   -3.8808    7.0881 C.3       1 <0>         0.0940
     22 C17         8.2073   -4.6030    8.4506 C.3       1 <0>        -0.1327
     23 C18         7.2273   -5.7747    8.1785 C.3       1 <0>        -0.1336
     24 C19         6.2228   -5.1158    7.1970 C.3       1 <0>         0.1053
     25 H2         -0.9591    1.9053    0.0259 H         1 <0>         0.1206
     26 H3          1.1563    3.1654    0.0076 H         1 <0>         0.1212
     27 H4          3.3051    1.9634   -0.0196 H         1 <0>         0.1206
     28 H5          1.2231   -1.7588   -0.0176 H         1 <0>         0.1210
     29 H6         -0.9258   -0.5567    0.0082 H         1 <0>         0.1213
     30 H7          3.5884   -1.6586   -0.5549 H         1 <0>         0.0734
     31 H8          4.4573   -0.1052   -0.5563 H         1 <0>         0.0731
     32 H9          4.2941   -0.0118    1.9163 H         1 <0>         0.0713
     33 H10         3.4252   -1.5652    1.9176 H         1 <0>         0.0727
     34 H11         5.3838   -2.6617    0.8639 H         1 <0>         0.0941
     35 H12         6.2527   -1.1082    0.8625 H         1 <0>         0.0930
     36 H13         7.7292   -4.1105    1.6641 H         1 <0>         0.0721
     37 H14         8.0779   -2.4319    1.1487 H         1 <0>         0.0840
     38 H15        10.0627   -3.9291    2.2141 H         1 <0>         0.0912
     39 H16         9.8988   -2.2122    2.7140 H         1 <0>         0.0827
     40 H17         8.8926   -4.7269    4.1617 H         1 <0>         0.0821
     41 H18         9.7618   -3.3172    4.8521 H         1 <0>         0.0931
     42 H19         9.1478   -4.2105    6.5335 H         1 <0>         0.0727
     43 H20         8.3084   -2.8024    7.2416 H         1 <0>         0.0689
     44 H21         9.1905   -4.9800    8.7323 H         1 <0>         0.0848
     45 H22         7.8120   -3.9405    9.2206 H         1 <0>         0.0784
     46 H23         7.7421   -6.6141    7.7110 H         1 <0>         0.0770
     47 H24         6.7274   -6.0868    9.0954 H         1 <0>         0.0859
     48 H25         5.4835   -4.5303    7.7435 H         1 <0>         0.0683
     49 H26         5.7321   -5.8764    6.5897 H         1 <0>         0.0776
@<TRIPOS>BOND
     1    1    6 ar
     2    1    2 ar
     3    1   25 1
     4    2    3 ar
     5    2   26 1
     6    3    4 ar
     7    3   27 1
     8    4    5 ar
     9    4    7 1
    10    5    6 ar
    11    5   28 1
    12    6   29 1
    13    7    8 1
    14    7   30 1
    15    7   31 1
    16    8    9 1
    17    8   32 1
    18    8   33 1
    19    9   10 1
    20    9   34 1
    21    9   35 1
    22   10   11 2
    23   10   12 am
    24   12   16 1
    25   12   13 1
    26   13   14 1
    27   13   36 1
    28   13   37 1
    29   14   15 1
    30   14   38 1
    31   14   39 1
    32   15   16 1
    33   15   40 1
    34   15   41 1
    35   16   17 1
    36   16   18 1
    37   18   19 2
    38   18   20 am
    39   20   24 1
    40   20   21 1
    41   21   22 1
    42   21   42 1
    43   21   43 1
    44   22   23 1
    45   22   44 1
    46   22   45 1
    47   23   24 1
    48   23   46 1
    49   23   47 1
    50   24   48 1
    51   24   49 1
@<TRIPOS>MOLECULE
ZINC13584669
   50    52     0     0     0
SMALL
USER_CHARGES
(2S)-1-[(2S)-1-(4-phenylbutanoyl)pyrrolidine-2-carbonyl]pyrrolidine-2-carbonitrile
@<TRIPOS>ATOM
      1 C1         -0.2578   13.5123    2.5067 C.ar      1 <0>        -0.1253
      2 C2         -1.5454   13.0540    2.2993 C.ar      1 <0>        -0.1181
      3 C3         -1.9801   11.9042    2.9317 C.ar      1 <0>        -0.1170
      4 C4         -1.1271   11.2125    3.7713 C.ar      1 <0>        -0.0812
      5 C5          0.1588   11.6737    3.9828 C.ar      1 <0>        -0.1175
      6 C6          0.5947   12.8214    3.3473 C.ar      1 <0>        -0.1186
      7 C7         -1.6009    9.9591    4.4607 C.3       1 <0>        -0.0809
      8 C8         -1.3012    8.7466    3.5770 C.3       1 <0>        -0.0975
      9 C9         -1.7823    7.4740    4.2770 C.3       1 <0>        -0.1322
     10 C10        -1.4871    6.2797    3.4066 C.2       1 <0>         0.5306
     11 O1         -0.9453    6.4314    2.3322 O.2       1 <0>        -0.5152
     12 N1         -1.8252    5.0430    3.8221 N.am      1 <0>        -0.6125
     13 C11        -2.5683    4.7223    5.0515 C.3       1 <0>         0.1010
     14 C12        -2.7412    3.1895    5.0965 C.3       1 <0>        -0.1291
     15 C13        -2.5836    2.7782    3.6087 C.3       1 <0>        -0.1227
     16 C14        -1.5128    3.7851    3.1195 C.3       1 <0>         0.1237
     17 H1         -0.5150    3.4383    3.3881 H         1 <0>         0.0973
     18 C15        -1.6164    3.9777    1.6284 C.2       1 <0>         0.5349
     19 O2         -2.3772    4.8064    1.1754 O.2       1 <0>        -0.4990
     20 N2         -0.8635    3.2289    0.7984 N.am      1 <0>        -0.6155
     21 C16         0.0993    2.1916    1.2126 C.3       1 <0>         0.0946
     22 C17         1.1017    2.0892    0.0360 C.3       1 <0>        -0.1302
     23 C18         0.1689    2.2904   -1.1875 C.3       1 <0>        -0.1213
     24 C19        -0.8650    3.3123   -0.6695 C.3       1 <0>         0.2369
     25 H2         -0.5843    4.3167   -0.9863 H         1 <0>         0.1205
     26 C20        -2.2016    2.9791   -1.1885 C.1       1 <0>         0.1968
     27 N3         -3.2330    2.7219   -1.5890 N.1       1 <0>        -0.4124
     28 H3          0.0819   14.4104    2.0123 H         1 <0>         0.1207
     29 H4         -2.2116   13.5940    1.6428 H         1 <0>         0.1213
     30 H5         -2.9860   11.5462    2.7697 H         1 <0>         0.1207
     31 H6          0.8238   11.1358    4.6421 H         1 <0>         0.1206
     32 H7          1.6006   13.1796    3.5096 H         1 <0>         0.1213
     33 H8         -2.6748   10.0245    4.6358 H         1 <0>         0.0731
     34 H9         -1.0833    9.8508    5.4139 H         1 <0>         0.0731
     35 H10        -0.2274    8.6811    3.4020 H         1 <0>         0.0714
     36 H11        -1.8188    8.8548    2.6239 H         1 <0>         0.0726
     37 H12        -2.8562    7.5394    4.4521 H         1 <0>         0.0931
     38 H13        -1.2647    7.3657    5.2302 H         1 <0>         0.0937
     39 H14        -3.5453    5.2052    5.0321 H         1 <0>         0.0730
     40 H15        -2.0041    5.0574    5.9219 H         1 <0>         0.0764
     41 H16        -3.7312    2.9238    5.4672 H         1 <0>         0.0903
     42 H17        -1.9636    2.7314    5.7077 H         1 <0>         0.0838
     43 H18        -3.5197    2.9089    3.0660 H         1 <0>         0.0830
     44 H19        -2.2238    1.7529    3.5228 H         1 <0>         0.0931
     45 H20        -0.4099    1.2393    1.3611 H         1 <0>         0.0758
     46 H21         0.6144    2.4935    2.1245 H         1 <0>         0.0850
     47 H22         1.5743    1.1073    0.0096 H         1 <0>         0.0948
     48 H23         1.8504    2.8795    0.0906 H         1 <0>         0.0862
     49 H24         0.7238    2.6978   -2.0326 H         1 <0>         0.1005
     50 H25        -0.3176    1.3538   -1.4597 H         1 <0>         0.0862
@<TRIPOS>BOND
     1    1    6 ar
     2    1    2 ar
     3    1   28 1
     4    2    3 ar
     5    2   29 1
     6    3    4 ar
     7    3   30 1
     8    4    5 ar
     9    4    7 1
    10    5    6 ar
    11    5   31 1
    12    6   32 1
    13    7    8 1
    14    7   33 1
    15    7   34 1
    16    8    9 1
    17    8   35 1
    18    8   36 1
    19    9   10 1
    20    9   37 1
    21    9   38 1
    22   10   11 2
    23   10   12 am
    24   12   16 1
    25   12   13 1
    26   13   14 1
    27   13   39 1
    28   13   40 1
    29   14   15 1
    30   14   41 1
    31   14   42 1
    32   15   16 1
    33   15   43 1
    34   15   44 1
    35   16   17 1
    36   16   18 1
    37   18   19 2
    38   18   20 am
    39   20   24 1
    40   20   21 1
    41   21   22 1
    42   21   45 1
    43   21   46 1
    44   22   23 1
    45   22   47 1
    46   22   48 1
    47   23   24 1
    48   23   49 1
    49   23   50 1
    50   24   25 1
    51   24   26 1
    52   26   27 3
@<TRIPOS>MOLECULE
ZINC13648185
   43    44     0     0     0
SMALL
USER_CHARGES
tert-butyl (2S)-2-(pyrrolidine-1-carbonyl)pyrrolidine-1-carboxylate
@<TRIPOS>ATOM
      1 C1          0.7898    0.8544    4.9728 C.3       1 <0>        -0.1828
      2 C2          1.5708    1.7271    3.9883 C.3       1 <0>         0.1364
      3 C3          3.0561    1.3656    4.0535 C.3       1 <0>        -0.1404
      4 C4          1.3880    3.2007    4.3571 C.3       1 <0>        -0.1830
      5 O1          1.0761    1.5001    2.6423 O.3       1 <0>        -0.3589
      6 C5         -0.2229    1.7714    2.4146 C.2       1 <0>         0.6776
      7 O2         -0.9239    2.1867    3.3161 O.2       1 <0>        -0.5595
      8 N1         -0.7456    1.5825    1.1868 N.am      1 <0>        -0.5899
      9 C6         -0.0127    1.0858    0.0080 C.3       1 <0>         0.1027
     10 C7         -0.8063    1.6209   -1.2100 C.3       1 <0>        -0.1304
     11 C8         -2.2686    1.5042   -0.7047 C.3       1 <0>        -0.1210
     12 C9         -2.1430    1.8370    0.7970 C.3       1 <0>         0.1443
     13 H1         -2.3922    2.8845    0.9666 H         1 <0>         0.1007
     14 C10        -3.0667    0.9547    1.5965 C.2       1 <0>         0.5256
     15 O3         -2.6297   -0.0235    2.1649 O.2       1 <0>        -0.5225
     16 N2         -4.3785    1.2525    1.6799 N.am      1 <0>        -0.6186
     17 C11        -5.0371    2.4056    1.0489 C.3       1 <0>         0.0954
     18 C12        -6.5294    2.3507    1.4382 C.3       1 <0>        -0.1316
     19 C13        -6.5173    1.4957    2.7329 C.3       1 <0>        -0.1345
     20 C14        -5.3895    0.4796    2.4241 C.3       1 <0>         0.1055
     21 H2          0.9201   -0.1955    4.7101 H         1 <0>         0.0600
     22 H3          1.1612    1.0248    5.9833 H         1 <0>         0.0704
     23 H4         -0.2683    1.1119    4.9264 H         1 <0>         0.0867
     24 H5          3.6125    1.9874    3.3522 H         1 <0>         0.0666
     25 H6          3.4275    1.5361    5.0640 H         1 <0>         0.0818
     26 H7          3.1863    0.3158    3.7908 H         1 <0>         0.0671
     27 H8          0.3299    3.4583    4.3106 H         1 <0>         0.0858
     28 H9          1.7594    3.3712    5.3676 H         1 <0>         0.0716
     29 H10         1.9444    3.8225    3.6557 H         1 <0>         0.0594
     30 H11         0.0021   -0.0041    0.0020 H         1 <0>         0.0737
     31 H12         1.0041    1.4783    0.0004 H         1 <0>         0.0870
     32 H13        -0.5471    2.6587   -1.4199 H         1 <0>         0.0838
     33 H14        -0.6449    0.9945   -2.0873 H         1 <0>         0.0940
     34 H15        -2.9095    2.2282   -1.2079 H         1 <0>         0.0967
     35 H16        -2.6454    0.4911   -0.8450 H         1 <0>         0.0846
     36 H17        -4.5913    3.3316    1.4119 H         1 <0>         0.0704
     37 H18        -4.9362    2.3430   -0.0346 H         1 <0>         0.0712
     38 H19        -7.1170    1.8637    0.6600 H         1 <0>         0.0792
     39 H20        -6.9128    3.3508    1.6400 H         1 <0>         0.0847
     40 H21        -7.4717    0.9888    2.8753 H         1 <0>         0.0865
     41 H22        -6.2673    2.1048    3.6016 H         1 <0>         0.0773
     42 H23        -5.7713   -0.3359    1.8100 H         1 <0>         0.0687
     43 H24        -4.9640    0.0900    3.3489 H         1 <0>         0.0781
@<TRIPOS>BOND
     1    1    2 1
     2    1   21 1
     3    1   22 1
     4    1   23 1
     5    2    3 1
     6    2    4 1
     7    2    5 1
     8    3   24 1
     9    3   25 1
    10    3   26 1
    11    4   27 1
    12    4   28 1
    13    4   29 1
    14    5    6 1
    15    6    7 2
    16    6    8 am
    17    8   12 1
    18    8    9 1
    19    9   10 1
    20    9   30 1
    21    9   31 1
    22   10   11 1
    23   10   32 1
    24   10   33 1
    25   11   12 1
    26   11   34 1
    27   11   35 1
    28   12   13 1
    29   12   14 1
    30   14   15 2
    31   14   16 am
    32   16   20 1
    33   16   17 1
    34   17   18 1
    35   17   36 1
    36   17   37 1
    37   18   19 1
    38   18   38 1
    39   18   39 1
    40   19   20 1
    41   19   40 1
    42   19   41 1
    43   20   42 1
    44   20   43 1
@<TRIPOS>MOLECULE
ZINC13491618
   40    42     0     0     0
SMALL
USER_CHARGES
phenyl-[(2S)-2-(pyrrolidine-1-carbonyl)pyrrolidin-1-yl]methanone
@<TRIPOS>ATOM
      1 C1          3.7034   -2.0862    0.0903 C.ar      1 <0>        -0.1024
      2 C2          3.5675   -0.9560   -0.6963 C.ar      1 <0>        -0.1190
      3 C3          2.3680   -0.2753   -0.7297 C.ar      1 <0>        -0.0559
      4 C4          1.2903   -0.7289    0.0326 C.ar      1 <0>        -0.1028
      5 C5          1.4359   -1.8663    0.8283 C.ar      1 <0>        -0.1077
      6 C6          2.6390   -2.5410    0.8483 C.ar      1 <0>        -0.1212
      7 C7          0.0021   -0.0041    0.0020 C.2       1 <0>         0.5897
      8 O1         -0.0139    1.2099    0.0620 O.2       1 <0>        -0.5279
      9 N1         -1.1546   -0.6893   -0.0924 N.am      1 <0>        -0.5988
     10 C8         -2.5003   -0.0947   -0.1868 C.3       1 <0>         0.1055
     11 C9         -3.3637   -1.1813   -0.8799 C.3       1 <0>        -0.1335
     12 C10        -2.7854   -2.4793   -0.2571 C.3       1 <0>        -0.1287
     13 C11        -1.2839   -2.1537   -0.1118 C.3       1 <0>         0.1127
     14 H1         -0.9023   -2.5720    0.8197 H         1 <0>         0.1044
     15 C12        -0.5180   -2.7204   -1.2794 C.2       1 <0>         0.5201
     16 O2          0.0814   -1.9787   -2.0288 O.2       1 <0>        -0.5141
     17 N2         -0.4992   -4.0513   -1.4909 N.am      1 <0>        -0.6171
     18 C13        -1.1734   -5.0604   -0.6611 C.3       1 <0>         0.0914
     19 C14        -0.8532   -6.4421   -1.2692 C.3       1 <0>        -0.1323
     20 C15         0.4504   -6.1747   -2.0668 C.3       1 <0>        -0.1339
     21 C16         0.2062   -4.7369   -2.5890 C.3       1 <0>         0.1063
     22 H2          4.6446   -2.6154    0.1129 H         1 <0>         0.1255
     23 H3          4.4022   -0.6061   -1.2856 H         1 <0>         0.1287
     24 H4          2.2632    0.6067   -1.3440 H         1 <0>         0.1278
     25 H5          0.6071   -2.2200    1.4236 H         1 <0>         0.1210
     26 H6          2.7516   -3.4239    1.4601 H         1 <0>         0.1254
     27 H7         -2.8888    0.1244    0.8078 H         1 <0>         0.0762
     28 H8         -2.4732    0.8111   -0.7924 H         1 <0>         0.0843
     29 H9         -3.2201   -1.1687   -1.9604 H         1 <0>         0.0788
     30 H10        -4.4169   -1.0617   -0.6260 H         1 <0>         0.0936
     31 H11        -2.9332   -3.3271   -0.9260 H         1 <0>         0.0914
     32 H12        -3.2341   -2.6726    0.7173 H         1 <0>         0.0937
     33 H13        -0.8007   -5.0082    0.3619 H         1 <0>         0.0704
     34 H14        -2.2502   -4.8921   -0.6746 H         1 <0>         0.0747
     35 H15        -1.6522   -6.7692   -1.9345 H         1 <0>         0.0790
     36 H16        -0.6810   -7.1787   -0.4844 H         1 <0>         0.0849
     37 H17         0.5542   -6.8781   -2.8930 H         1 <0>         0.0861
     38 H18         1.3228   -6.2105   -1.4142 H         1 <0>         0.0771
     39 H19        -0.4156   -4.7589   -3.4840 H         1 <0>         0.0681
     40 H20         1.1542   -4.2415   -2.7987 H         1 <0>         0.0786
@<TRIPOS>BOND
     1    1    6 ar
     2    1    2 ar
     3    1   22 1
     4    2    3 ar
     5    2   23 1
     6    3    4 ar
     7    3   24 1
     8    4    5 ar
     9    4    7 1
    10    5    6 ar
    11    5   25 1
    12    6   26 1
    13    7    8 2
    14    7    9 am
    15    9   13 1
    16    9   10 1
    17   10   11 1
    18   10   27 1
    19   10   28 1
    20   11   12 1
    21   11   29 1
    22   11   30 1
    23   12   13 1
    24   12   31 1
    25   12   32 1
    26   13   14 1
    27   13   15 1
    28   15   16 2
    29   15   17 am
    30   17   21 1
    31   17   18 1
    32   18   19 1
    33   18   33 1
    34   18   34 1
    35   19   20 1
    36   19   35 1
    37   19   36 1
    38   20   21 1
    39   20   37 1
    40   20   38 1
    41   21   39 1
    42   21   40 1
@<TRIPOS>MOLECULE
ZINC03807687
   51    53     0     0     0
SMALL
USER_CHARGES
N-benzyl-2-[2-(2-hydroxyacetyl)pyrrolidin-1-yl]carbonyl-pyrrolidine-1-carboxamide
@<TRIPOS>ATOM
      1 C1         -7.1393   -3.7787   -2.7472 C.ar      1 <0>        -0.1116
      2 C2         -6.8813   -2.6888   -3.5575 C.ar      1 <0>        -0.1224
      3 C3         -5.6609   -2.0442   -3.4810 C.ar      1 <0>        -0.1001
      4 C4         -4.6983   -2.4897   -2.5945 C.ar      1 <0>        -0.1097
      5 C5         -4.9542   -3.5830   -1.7883 C.ar      1 <0>        -0.0993
      6 C6         -6.1765   -4.2245   -1.8611 C.ar      1 <0>        -0.1217
      7 C7         -3.3676   -1.7872   -2.5115 C.3       1 <0>         0.1828
      8 N1         -3.4415   -0.7177   -1.5130 N.am      1 <0>        -0.7402
      9 C8         -2.3616    0.0501   -1.2667 C.2       1 <0>         0.7269
     10 O1         -1.3260   -0.1449   -1.8732 O.2       1 <0>        -0.5638
     11 N2         -2.4296    1.0339   -0.3481 N.am      1 <0>        -0.6251
     12 C9         -3.6132    1.3777    0.4534 C.3       1 <0>         0.0995
     13 C10        -3.2151    2.5445    1.3816 C.3       1 <0>        -0.1272
     14 C11        -1.6702    2.4198    1.4533 C.3       1 <0>        -0.1227
     15 C12        -1.3296    1.9443    0.0189 C.3       1 <0>         0.1463
     16 H1         -1.2938    2.7933   -0.6637 H         1 <0>         0.0945
     17 C13        -0.0144    1.2086    0.0087 C.2       1 <0>         0.5340
     18 O2          0.0021   -0.0041    0.0020 O.2       1 <0>        -0.4919
     19 N3          1.1435    1.8983    0.0013 N.am      1 <0>        -0.6125
     20 C14         1.2687    3.3672    0.0016 C.3       1 <0>         0.0965
     21 C15         2.6700    3.6434    0.6069 C.3       1 <0>        -0.1331
     22 C16         3.5004    2.4775    0.0082 C.3       1 <0>        -0.1212
     23 C17         2.4910    1.3104   -0.0147 C.3       1 <0>         0.1098
     24 H2          2.6043    0.7590   -0.8412 H         1 <0>         0.0933
     25 C18         2.6852    0.4408    1.2007 C.2       1 <0>         0.3413
     26 O3          1.9203    0.5243    2.1314 O.2       1 <0>        -0.4113
     27 C19         3.8341   -0.5330    1.2546 C.3       1 <0>         0.0409
     28 O4          3.8047   -1.2358    2.4985 O.3       1 <0>        -0.5545
     29 H3         -8.0930   -4.2821   -2.8067 H         1 <0>         0.1236
     30 H4         -7.6334   -2.3407   -4.2500 H         1 <0>         0.1244
     31 H5         -5.4594   -1.1927   -4.1140 H         1 <0>         0.1237
     32 H6         -4.2005   -3.9338   -1.0989 H         1 <0>         0.1241
     33 H7         -6.3780   -5.0762   -1.2283 H         1 <0>         0.1245
     34 H8         -3.1208   -1.3603   -3.4835 H         1 <0>         0.0739
     35 H9         -2.5970   -2.5017   -2.2222 H         1 <0>         0.0747
     36 H10        -4.2677   -0.5622   -1.0291 H         1 <0>         0.3951
     37 H11        -3.9199    0.5180    1.0492 H         1 <0>         0.0681
     38 H12        -4.4276    1.6866   -0.2019 H         1 <0>         0.0712
     39 H13        -3.6583    2.4199    2.3695 H         1 <0>         0.0896
     40 H14        -3.5050    3.5004    0.9454 H         1 <0>         0.0830
     41 H15        -1.3721    1.6762    2.1925 H         1 <0>         0.0859
     42 H16        -1.2097    3.3849    1.6647 H         1 <0>         0.0930
     43 H17         1.2097    3.7532   -1.0161 H         1 <0>         0.0753
     44 H18         0.4927    3.8140    0.6232 H         1 <0>         0.0799
     45 H19         2.6470    3.5881    1.6953 H         1 <0>         0.0807
     46 H20         3.0542    4.6077    0.2743 H         1 <0>         0.0927
     47 H21         4.3497    2.2402    0.6489 H         1 <0>         0.0878
     48 H22         3.8355    2.7174   -1.0008 H         1 <0>         0.0939
     49 H23         3.7537   -1.1854    0.5010 H         1 <0>         0.0722
     50 H24         4.7751    0.0100    1.1662 H         1 <0>         0.0798
     51 H25         4.5174   -1.8811    2.6025 H         1 <0>         0.3856
@<TRIPOS>BOND
     1    1    6 ar
     2    1    2 ar
     3    1   29 1
     4    2    3 ar
     5    2   30 1
     6    3    4 ar
     7    3   31 1
     8    4    5 ar
     9    4    7 1
    10    5    6 ar
    11    5   32 1
    12    6   33 1
    13    7    8 1
    14    7   34 1
    15    7   35 1
    16    8    9 am
    17    8   36 1
    18    9   10 2
    19    9   11 am
    20   11   15 1
    21   11   12 1
    22   12   13 1
    23   12   37 1
    24   12   38 1
    25   13   14 1
    26   13   39 1
    27   13   40 1
    28   14   15 1
    29   14   41 1
    30   14   42 1
    31   15   16 1
    32   15   17 1
    33   17   18 2
    34   17   19 am
    35   19   23 1
    36   19   20 1
    37   20   21 1
    38   20   43 1
    39   20   44 1
    40   21   22 1
    41   21   45 1
    42   21   46 1
    43   22   23 1
    44   22   47 1
    45   22   48 1
    46   23   24 1
    47   23   25 1
    48   25   26 2
    49   25   27 1
    50   27   28 1
    51   27   49 1
    52   27   50 1
    53   28   51 1
@<TRIPOS>MOLECULE
ZINC03803443
   46    48     0     0     0
SMALL
USER_CHARGES

@<TRIPOS>ATOM
      1 C1         -0.0167    1.3781    0.0096 C.ar      1 <0>        -0.1074
      2 C2          1.1709    2.0855    0.0021 C.ar      1 <0>        -0.1236
      3 C3          2.3773    1.4107   -0.0130 C.ar      1 <0>        -0.0937
      4 C4          2.3960    0.0285   -0.0201 C.ar      1 <0>        -0.0995
      5 C5          1.2084   -0.6789   -0.0117 C.ar      1 <0>        -0.0926
      6 C6          0.0021   -0.0041    0.0020 C.ar      1 <0>        -0.1227
      7 C7          3.7112   -0.7071   -0.0376 C.3       1 <0>         0.1284
      8 O1          4.1410   -0.9464    1.3041 O.3       1 <0>        -0.3532
      9 C8          5.3077   -1.5988    1.4650 C.2       1 <0>         0.6739
     10 O2          5.9435   -1.9553    0.4929 O.2       1 <0>        -0.5617
     11 N1          5.7703   -1.8565    2.7044 N.am      1 <0>        -0.5872
     12 C9          5.1008   -1.4883    3.9652 C.3       1 <0>         0.1024
     13 C10         6.2391   -1.4208    5.0137 C.3       1 <0>        -0.1300
     14 C11         7.1497   -2.5926    4.5607 C.3       1 <0>        -0.1218
     15 C12         7.0230   -2.5570    3.0230 C.3       1 <0>         0.1460
     16 H1          7.8683   -2.0176    2.5956 H         1 <0>         0.1042
     17 C13         6.9783   -3.9609    2.4770 C.2       1 <0>         0.5222
     18 O3          5.9144   -4.4642    2.1845 O.2       1 <0>        -0.5117
     19 N2          8.1207   -4.6572    2.3139 N.am      1 <0>        -0.6089
     20 C14         9.4757   -4.1720    2.6333 C.3       1 <0>         0.0930
     21 C15        10.3103   -5.4550    2.8720 C.3       1 <0>        -0.1330
     22 C16         9.7151   -6.4161    1.8092 C.3       1 <0>        -0.1201
     23 C17         8.2214   -6.0287    1.7939 C.3       1 <0>         0.0717
     24 H2          7.8410   -6.0670    0.7732 H         1 <0>         0.0979
     25 C18         7.4365   -6.9687    2.6721 C.2       1 <0>         0.3418
     26 O4          6.5825   -7.6736    2.1904 O.2       1 <0>        -0.4382
     27 H3         -0.9591    1.9053    0.0259 H         1 <0>         0.1253
     28 H4          1.1563    3.1654    0.0076 H         1 <0>         0.1263
     29 H5          3.3051    1.9634   -0.0196 H         1 <0>         0.1244
     30 H6          1.2231   -1.7588   -0.0176 H         1 <0>         0.1250
     31 H7         -0.9258   -0.5567    0.0082 H         1 <0>         0.1265
     32 H8          3.5884   -1.6586   -0.5549 H         1 <0>         0.0782
     33 H9          4.4573   -0.1052   -0.5563 H         1 <0>         0.0780
     34 H10         4.6166   -0.5166    3.8679 H         1 <0>         0.0890
     35 H11         4.3725   -2.2497    4.2444 H         1 <0>         0.0752
     36 H12         6.7683   -0.4697    4.9552 H         1 <0>         0.0850
     37 H13         5.8546   -1.5910    6.0193 H         1 <0>         0.0953
     38 H14         8.1810   -2.4211    4.8691 H         1 <0>         0.0995
     39 H15         6.7815   -3.5408    4.9525 H         1 <0>         0.0852
     40 H16         9.8827   -3.6050    1.7960 H         1 <0>         0.0776
     41 H17         9.4565   -3.5588    3.5342 H         1 <0>         0.0832
     42 H18        11.3686   -5.2731    2.6851 H         1 <0>         0.0936
     43 H19        10.1537   -5.8412    3.8792 H         1 <0>         0.0825
     44 H20        10.1719   -6.2439    0.8347 H         1 <0>         0.0906
     45 H21         9.8386   -7.4546    2.1162 H         1 <0>         0.0886
     46 H22         7.6377   -7.0119    3.7324 H         1 <0>         0.0949
@<TRIPOS>BOND
     1    1    6 ar
     2    1    2 ar
     3    1   27 1
     4    2    3 ar
     5    2   28 1
     6    3    4 ar
     7    3   29 1
     8    4    5 ar
     9    4    7 1
    10    5    6 ar
    11    5   30 1
    12    6   31 1
    13    7    8 1
    14    7   32 1
    15    7   33 1
    16    8    9 1
    17    9   10 2
    18    9   11 am
    19   11   15 1
    20   11   12 1
    21   12   13 1
    22   12   34 1
    23   12   35 1
    24   13   14 1
    25   13   36 1
    26   13   37 1
    27   14   15 1
    28   14   38 1
    29   14   39 1
    30   15   16 1
    31   15   17 1
    32   17   18 2
    33   17   19 am
    34   19   23 1
    35   19   20 1
    36   20   21 1
    37   20   40 1
    38   20   41 1
    39   21   22 1
    40   21   42 1
    41   21   43 1
    42   22   23 1
    43   22   44 1
    44   22   45 1
    45   23   24 1
    46   23   25 1
    47   25   26 2
    48   25   46 1
