@<TRIPOS>MOLECULE
ZINC03803443
   46    48     0     0     0
SMALL
USER_CHARGES

@<TRIPOS>ATOM
      1 C1         -0.0167    1.3781    0.0096 C.ar      1 <0>        -0.1074
      2 C2          1.1709    2.0855    0.0021 C.ar      1 <0>        -0.1236
      3 C3          2.3773    1.4107   -0.0130 C.ar      1 <0>        -0.0937
      4 C4          2.3960    0.0285   -0.0201 C.ar      1 <0>        -0.0995
      5 C5          1.2084   -0.6789   -0.0117 C.ar      1 <0>        -0.0926
      6 C6          0.0021   -0.0041    0.0020 C.ar      1 <0>        -0.1227
      7 C7          3.7112   -0.7071   -0.0376 C.3       1 <0>         0.1284
      8 O1          4.1410   -0.9464    1.3041 O.3       1 <0>        -0.3532
      9 C8          5.3077   -1.5988    1.4650 C.2       1 <0>         0.6739
     10 O2          5.9435   -1.9553    0.4929 O.2       1 <0>        -0.5617
     11 N1          5.7703   -1.8565    2.7044 N.am      1 <0>        -0.5872
     12 C9          5.1008   -1.4883    3.9652 C.3       1 <0>         0.1024
     13 C10         6.2391   -1.4208    5.0137 C.3       1 <0>        -0.1300
     14 C11         7.1497   -2.5926    4.5607 C.3       1 <0>        -0.1218
     15 C12         7.0230   -2.5570    3.0230 C.3       1 <0>         0.1460
     16 H1          7.8683   -2.0176    2.5956 H         1 <0>         0.1042
     17 C13         6.9783   -3.9609    2.4770 C.2       1 <0>         0.5222
     18 O3          5.9144   -4.4642    2.1845 O.2       1 <0>        -0.5117
     19 N2          8.1207   -4.6572    2.3139 N.am      1 <0>        -0.6089
     20 C14         9.4757   -4.1720    2.6333 C.3       1 <0>         0.0930
     21 C15        10.3103   -5.4550    2.8720 C.3       1 <0>        -0.1330
     22 C16         9.7151   -6.4161    1.8092 C.3       1 <0>        -0.1201
     23 C17         8.2214   -6.0287    1.7939 C.3       1 <0>         0.0717
     24 H2          7.8410   -6.0670    0.7732 H         1 <0>         0.0979
     25 C18         7.4365   -6.9687    2.6721 C.2       1 <0>         0.3418
     26 O4          6.5825   -7.6736    2.1904 O.2       1 <0>        -0.4382
     27 H3         -0.9591    1.9053    0.0259 H         1 <0>         0.1253
     28 H4          1.1563    3.1654    0.0076 H         1 <0>         0.1263
     29 H5          3.3051    1.9634   -0.0196 H         1 <0>         0.1244
     30 H6          1.2231   -1.7588   -0.0176 H         1 <0>         0.1250
     31 H7         -0.9258   -0.5567    0.0082 H         1 <0>         0.1265
     32 H8          3.5884   -1.6586   -0.5549 H         1 <0>         0.0782
     33 H9          4.4573   -0.1052   -0.5563 H         1 <0>         0.0780
     34 H10         4.6166   -0.5166    3.8679 H         1 <0>         0.0890
     35 H11         4.3725   -2.2497    4.2444 H         1 <0>         0.0752
     36 H12         6.7683   -0.4697    4.9552 H         1 <0>         0.0850
     37 H13         5.8546   -1.5910    6.0193 H         1 <0>         0.0953
     38 H14         8.1810   -2.4211    4.8691 H         1 <0>         0.0995
     39 H15         6.7815   -3.5408    4.9525 H         1 <0>         0.0852
     40 H16         9.8827   -3.6050    1.7960 H         1 <0>         0.0776
     41 H17         9.4565   -3.5588    3.5342 H         1 <0>         0.0832
     42 H18        11.3686   -5.2731    2.6851 H         1 <0>         0.0936
     43 H19        10.1537   -5.8412    3.8792 H         1 <0>         0.0825
     44 H20        10.1719   -6.2439    0.8347 H         1 <0>         0.0906
     45 H21         9.8386   -7.4546    2.1162 H         1 <0>         0.0886
     46 H22         7.6377   -7.0119    3.7324 H         1 <0>         0.0949
@<TRIPOS>BOND
     1    1    6 ar
     2    1    2 ar
     3    1   27 1
     4    2    3 ar
     5    2   28 1
     6    3    4 ar
     7    3   29 1
     8    4    5 ar
     9    4    7 1
    10    5    6 ar
    11    5   30 1
    12    6   31 1
    13    7    8 1
    14    7   32 1
    15    7   33 1
    16    8    9 1
    17    9   10 2
    18    9   11 am
    19   11   15 1
    20   11   12 1
    21   12   13 1
    22   12   34 1
    23   12   35 1
    24   13   14 1
    25   13   36 1
    26   13   37 1
    27   14   15 1
    28   14   38 1
    29   14   39 1
    30   15   16 1
    31   15   17 1
    32   17   18 2
    33   17   19 am
    34   19   23 1
    35   19   20 1
    36   20   21 1
    37   20   40 1
    38   20   41 1
    39   21   22 1
    40   21   42 1
    41   21   43 1
    42   22   23 1
    43   22   44 1
    44   22   45 1
    45   23   24 1
    46   23   25 1
    47   25   26 2
    48   25   46 1
