@<TRIPOS>MOLECULE
ZINC03825778
   55    59     0     0     0
SMALL
USER_CHARGES
(2-phenylcyclopropyl)-(2-thiazolidin-3-ylcarbonyl-2,3,3a,4,5,6,7,7a-octahydroindol-1-yl)-methanone
@<TRIPOS>ATOM
      1 C1         -3.2669   -0.2090    3.7102 C.ar      1 <0>        -0.1222
      2 C2         -2.2853    0.5299    4.3438 C.ar      1 <0>        -0.1157
      3 C3         -1.3775    1.2572    3.5971 C.ar      1 <0>        -0.1065
      4 C4         -1.4514    1.2461    2.2168 C.ar      1 <0>        -0.0530
      5 C5         -2.4365    0.5117    1.5833 C.ar      1 <0>        -0.1208
      6 C6         -3.3412   -0.2198    2.3299 C.ar      1 <0>        -0.1178
      7 C7         -0.4620    2.0394    1.4028 C.3       1 <0>        -0.0764
      8 H1         -0.0234    2.9015    1.9053 H         1 <0>         0.1277
      9 C8         -0.7138    2.1518   -0.1029 C.3       1 <0>        -0.1482
     10 C9          0.4220    1.2697    0.4193 C.3       1 <0>        -0.1768
     11 H2          0.2879    0.1896    0.3611 H         1 <0>         0.1206
     12 C10         1.8326    1.7612    0.2201 C.2       1 <0>         0.5772
     13 O1          2.2283    2.7320    0.8299 O.2       1 <0>        -0.5230
     14 N1          2.6544    1.1219   -0.6358 N.am      1 <0>        -0.5879
     15 C11         4.0434    1.4840   -0.9294 C.3       1 <0>         0.1483
     16 H3          4.0486    2.1869   -1.7625 H         1 <0>         0.0710
     17 C12         4.7482    2.1238    0.2451 C.3       1 <0>        -0.1355
     18 C13         4.9243    1.1304    1.3936 C.3       1 <0>        -0.1115
     19 C14         5.7439   -0.0596    0.8830 C.3       1 <0>        -0.1148
     20 C15         4.9540   -0.7600   -0.2199 C.3       1 <0>        -0.1374
     21 C16         4.7250    0.1809   -1.3860 C.3       1 <0>        -0.0924
     22 H4          5.6364    0.3621   -1.9557 H         1 <0>         0.1053
     23 C17         3.5813   -0.4566   -2.2332 C.3       1 <0>        -0.1296
     24 C18         2.3161   -0.0685   -1.4365 C.3       1 <0>         0.1162
     25 H5          1.5039    0.1658   -2.1248 H         1 <0>         0.1045
     26 C19         1.9120   -1.2004   -0.5274 C.2       1 <0>         0.5133
     27 O2          2.1176   -1.1231    0.6654 O.2       1 <0>        -0.4985
     28 N2          1.3220   -2.2985   -1.0398 N.am      1 <0>        -0.6150
     29 C20         0.8238   -3.3659   -0.1889 C.3       1 <0>         0.0992
     30 C21         0.1979   -4.5568   -0.9557 C.3       1 <0>        -0.0639
     31 S1          0.9799   -4.3156   -2.6132 S.3       1 <0>        -0.2695
     32 C22         1.1427   -2.4769   -2.4971 C.3       1 <0>         0.1473
     33 H6         -3.9760   -0.7776    4.2936 H         1 <0>         0.1222
     34 H7         -2.2276    0.5386    5.4222 H         1 <0>         0.1238
     35 H8         -0.6106    1.8345    4.0921 H         1 <0>         0.1236
     36 H9         -2.4970    0.5066    0.5050 H         1 <0>         0.1200
     37 H10        -4.1083   -0.7968    1.8349 H         1 <0>         0.1219
     38 H11        -0.4408    3.0877   -0.5903 H         1 <0>         0.1065
     39 H12        -1.5950    1.6519   -0.5051 H         1 <0>         0.1078
     40 H13         5.7285    2.4764   -0.0755 H         1 <0>         0.0680
     41 H14         4.1610    2.9731    0.5945 H         1 <0>         0.0977
     42 H15         5.4506    1.6118    2.2178 H         1 <0>         0.0591
     43 H16         3.9478    0.7853    1.7333 H         1 <0>         0.0658
     44 H17         6.6940    0.2952    0.4835 H         1 <0>         0.0590
     45 H18         5.9284   -0.7548    1.7019 H         1 <0>         0.0589
     46 H19         5.5110   -1.6323   -0.5620 H         1 <0>         0.0590
     47 H20         3.9915   -1.0826    0.1772 H         1 <0>         0.0880
     48 H21         3.5580   -0.0285   -3.2354 H         1 <0>         0.0952
     49 H22         3.6924   -1.5399   -2.2797 H         1 <0>         0.0897
     50 H23         1.6496   -3.7398    0.4164 H         1 <0>         0.0842
     51 H24         0.0703   -2.9512    0.4808 H         1 <0>         0.0818
     52 H25         0.4903   -5.5097   -0.5146 H         1 <0>         0.1262
     53 H26        -0.8868   -4.4654   -1.0123 H         1 <0>         0.1053
     54 H27         0.2377   -1.9785   -2.8446 H         1 <0>         0.1021
     55 H28         2.0167   -2.1257   -3.0455 H         1 <0>         0.1200
@<TRIPOS>BOND
     1    1    6 ar
     2    1    2 ar
     3    1   33 1
     4    2    3 ar
     5    2   34 1
     6    3    4 ar
     7    3   35 1
     8    4    5 ar
     9    4    7 1
    10    5    6 ar
    11    5   36 1
    12    6   37 1
    13    7    8 1
    14    7   10 1
    15    7    9 1
    16    9   10 1
    17    9   38 1
    18    9   39 1
    19   10   11 1
    20   10   12 1
    21   12   13 2
    22   12   14 am
    23   14   24 1
    24   14   15 1
    25   15   16 1
    26   15   21 1
    27   15   17 1
    28   17   18 1
    29   17   40 1
    30   17   41 1
    31   18   19 1
    32   18   42 1
    33   18   43 1
    34   19   20 1
    35   19   44 1
    36   19   45 1
    37   20   21 1
    38   20   46 1
    39   20   47 1
    40   21   22 1
    41   21   23 1
    42   23   24 1
    43   23   48 1
    44   23   49 1
    45   24   25 1
    46   24   26 1
    47   26   27 2
    48   26   28 am
    49   28   32 1
    50   28   29 1
    51   29   30 1
    52   29   50 1
    53   29   51 1
    54   30   31 1
    55   30   52 1
    56   30   53 1
    57   31   32 1
    58   32   54 1
    59   32   55 1
@<TRIPOS>MOLECULE
ZINC13491619
   49    51     0     0     0
SMALL
USER_CHARGES
4-phenyl-1-[(2S)-2-(pyrrolidine-1-carbonyl)pyrrolidin-1-yl]butan-1-one
@<TRIPOS>ATOM
      1 C1         -7.0232   -1.1382    0.0292 C.ar      1 <0>        -0.1255
      2 C2         -6.4981   -0.6887    1.2263 C.ar      1 <0>        -0.1182
      3 C3         -5.4597    0.2238    1.2263 C.ar      1 <0>        -0.1170
      4 C4         -4.9462    0.6865    0.0292 C.ar      1 <0>        -0.0810
      5 C5         -5.4748    0.2411   -1.1678 C.ar      1 <0>        -0.1177
      6 C6         -6.5106   -0.6744   -1.1679 C.ar      1 <0>        -0.1187
      7 C7         -3.8141    1.6813    0.0293 C.3       1 <0>        -0.0808
      8 C8         -2.4789    0.9344    0.0189 C.3       1 <0>        -0.0981
      9 C9         -1.3296    1.9443    0.0189 C.3       1 <0>        -0.1324
     10 C10        -0.0144    1.2086    0.0087 C.2       1 <0>         0.5363
     11 O1          0.0021   -0.0041    0.0020 O.2       1 <0>        -0.5233
     12 N1          1.1435    1.8983    0.0013 N.am      1 <0>        -0.6083
     13 C11         1.2687    3.3672    0.0085 C.3       1 <0>         0.0980
     14 C12         2.6585    3.6498   -0.6147 C.3       1 <0>        -0.1313
     15 C13         3.4999    2.4778   -0.0441 C.3       1 <0>        -0.1241
     16 C14         2.4910    1.3104   -0.0088 C.3       1 <0>         0.1248
     17 H1          2.6169    0.6871   -0.8941 H         1 <0>         0.0997
     18 C15         2.7000    0.4863    1.2355 C.2       1 <0>         0.5232
     19 O2          1.8131    0.3937    2.0576 O.2       1 <0>        -0.5180
     20 N2          3.8725   -0.1477    1.4349 N.am      1 <0>        -0.6213
     21 C16         5.0244   -0.1261    0.5215 C.3       1 <0>         0.0946
     22 C17         6.1240   -1.0079    1.1498 C.3       1 <0>        -0.1322
     23 C18         5.3215   -1.9373    2.0982 C.3       1 <0>        -0.1348
     24 C19         4.2101   -0.9829    2.6019 C.3       1 <0>         0.1054
     25 H2         -7.8342   -1.8514    0.0291 H         1 <0>         0.1206
     26 H3         -6.8988   -1.0508    2.1616 H         1 <0>         0.1213
     27 H4         -5.0494    0.5749    2.1616 H         1 <0>         0.1209
     28 H5         -5.0765    0.6059   -2.1031 H         1 <0>         0.1206
     29 H6         -6.9211   -1.0252   -2.1032 H         1 <0>         0.1212
     30 H7         -3.8761    2.3022    0.9230 H         1 <0>         0.0734
     31 H8         -3.8846    2.3119   -0.8570 H         1 <0>         0.0731
     32 H9         -2.4169    0.3134   -0.8748 H         1 <0>         0.0713
     33 H10        -2.4084    0.3037    0.9051 H         1 <0>         0.0727
     34 H11        -1.3916    2.5653    0.9126 H         1 <0>         0.0941
     35 H12        -1.4000    2.5749   -0.8673 H         1 <0>         0.0930
     36 H13         0.4826    3.8179   -0.5972 H         1 <0>         0.0842
     37 H14         1.2266    3.7465    1.0295 H         1 <0>         0.0719
     38 H15         2.6148    3.6059   -1.7030 H         1 <0>         0.0827
     39 H16         3.0490    4.6106   -0.2794 H         1 <0>         0.0912
     40 H17         4.3369    2.2473   -0.7032 H         1 <0>         0.0932
     41 H18         3.8543    2.7105    0.9600 H         1 <0>         0.0813
     42 H19         4.7349   -0.5271   -0.4498 H         1 <0>         0.0690
     43 H20         5.3896    0.8948    0.4095 H         1 <0>         0.0724
     44 H21         6.8341   -0.4025    1.7130 H         1 <0>         0.0788
     45 H22         6.6373   -1.5891    0.3837 H         1 <0>         0.0844
     46 H23         5.9430   -2.2835    2.9240 H         1 <0>         0.0863
     47 H24         4.8957   -2.7795    1.5528 H         1 <0>         0.0770
     48 H25         4.5832   -0.3629    3.4170 H         1 <0>         0.0679
     49 H26         3.3389   -1.5525    2.9255 H         1 <0>         0.0780
@<TRIPOS>BOND
     1    1    6 ar
     2    1    2 ar
     3    1   25 1
     4    2    3 ar
     5    2   26 1
     6    3    4 ar
     7    3   27 1
     8    4    5 ar
     9    4    7 1
    10    5    6 ar
    11    5   28 1
    12    6   29 1
    13    7    8 1
    14    7   30 1
    15    7   31 1
    16    8    9 1
    17    8   32 1
    18    8   33 1
    19    9   10 1
    20    9   34 1
    21    9   35 1
    22   10   11 2
    23   10   12 am
    24   12   16 1
    25   12   13 1
    26   13   14 1
    27   13   36 1
    28   13   37 1
    29   14   15 1
    30   14   38 1
    31   14   39 1
    32   15   16 1
    33   15   40 1
    34   15   41 1
    35   16   17 1
    36   16   18 1
    37   18   19 2
    38   18   20 am
    39   20   24 1
    40   20   21 1
    41   21   22 1
    42   21   42 1
    43   21   43 1
    44   22   23 1
    45   22   44 1
    46   22   45 1
    47   23   24 1
    48   23   46 1
    49   23   47 1
    50   24   48 1
    51   24   49 1
@<TRIPOS>MOLECULE
ZINC03803304
   63    64     0     0     0
SMALL
USER_CHARGES
[2-(8-dimethylaminooctylsulfanyl)-6-isopropyl-3-pyridyl]-(2-thienyl)methanone
@<TRIPOS>ATOM
      1 C1         -0.9720   10.0719    1.9661 C.3       1 <0>        -0.1425
      2 C2         -1.2315    9.7167    0.5007 C.3       1 <0>        -0.0499
      3 C3         -0.0133   10.1019   -0.3409 C.3       1 <0>        -0.1510
      4 C4         -1.4780    8.2350    0.3789 C.ar      1 <0>         0.1898
      5 C5         -0.4000    7.3745    0.2633 C.ar      1 <0>        -0.1853
      6 C6         -0.6226    6.0134    0.1572 C.ar      1 <0>        -0.0092
      7 C7         -1.9447    5.5534    0.1594 C.ar      1 <0>        -0.2092
      8 C8         -2.9870    6.4898    0.2800 C.ar      1 <0>         0.1633
      9 N1         -2.7162    7.7827    0.3842 N.ar      1 <0>        -0.4930
     10 S1         -4.6614    5.9412    0.2921 S.3       1 <0>         0.0283
     11 C9         -5.5115    7.5299    0.4635 C.3       1 <0>        -0.1410
     12 C10        -7.0234    7.2982    0.4977 C.3       1 <0>        -0.1062
     13 C11        -7.7421    8.6411    0.6426 C.3       1 <0>        -0.1131
     14 C12        -9.2540    8.4094    0.6769 C.3       1 <0>        -0.1217
     15 C13        -9.9726    9.7524    0.8217 C.3       1 <0>        -0.1205
     16 C14       -11.4846    9.5206    0.8560 C.3       1 <0>        -0.1186
     17 C15       -12.2032   10.8636    1.0009 C.3       1 <0>        -0.1508
     18 C16       -13.7152   10.6319    1.0351 C.3       1 <0>        -0.0072
     19 C17       -14.2064   12.7560   -0.0182 C.3       1 <0>        -0.0466
     20 C18       -15.8352   11.7263    1.4480 C.3       1 <0>        -0.0428
     21 C19        -2.2389    4.1130    0.0436 C.2       1 <0>         0.4786
     22 O1         -3.3881    3.7357   -0.0985 O.2       1 <0>        -0.4180
     23 C20        -1.1487    3.1359    0.0995 C.2       1 <0>        -0.2653
     24 C21        -1.1907    1.7650   -0.1136 C.2       1 <0>        -0.0592
     25 C22        -0.0093    1.0782    0.0062 C.2       1 <0>        -0.1821
     26 C23         1.1269    1.7598    0.3120 C.2       1 <0>        -0.1826
     27 S2          0.5803    3.3990    0.4520 S.3       1 <0>         0.1488
     28 H1         -0.7938   11.1436    2.0541 H         1 <0>         0.0683
     29 H2         -1.8400    9.7975    2.5656 H         1 <0>         0.0578
     30 H3         -0.0975    9.5276    2.3224 H         1 <0>         0.0603
     31 H4         -2.1061   10.2610    0.1443 H         1 <0>         0.0923
     32 H5         -0.1981    9.8489   -1.3849 H         1 <0>         0.0600
     33 H6          0.1650   11.1737   -0.2529 H         1 <0>         0.0688
     34 H7          0.8613    9.5577    0.0154 H         1 <0>         0.0639
     35 H8          0.6079    7.7626    0.2601 H         1 <0>         0.1498
     36 H9          0.2033    5.3228    0.0704 H         1 <0>         0.1429
     37 H10        -5.1968    8.0124    1.3888 H         1 <0>         0.0897
     38 H11        -5.2610    8.1692   -0.3830 H         1 <0>         0.0905
     39 H12        -7.3381    6.8157   -0.4276 H         1 <0>         0.0713
     40 H13        -7.2740    6.6589    1.3443 H         1 <0>         0.0708
     41 H14        -7.4274    9.1236    1.5680 H         1 <0>         0.0649
     42 H15        -7.4915    9.2804   -0.2039 H         1 <0>         0.0650
     43 H16        -9.5687    7.9269   -0.2485 H         1 <0>         0.0653
     44 H17        -9.5045    7.7701    1.5234 H         1 <0>         0.0653
     45 H18        -9.6580   10.2349    1.7471 H         1 <0>         0.0661
     46 H19        -9.7221   10.3917   -0.0248 H         1 <0>         0.0658
     47 H20       -11.7993    9.0381   -0.0694 H         1 <0>         0.0736
     48 H21       -11.7351    8.8813    1.7025 H         1 <0>         0.0739
     49 H22       -11.8885   11.3461    1.9262 H         1 <0>         0.0860
     50 H23       -11.9527   11.5029    0.1543 H         1 <0>         0.0864
     51 H24       -14.0299   10.1494    0.1097 H         1 <0>         0.1305
     52 H25       -13.9657    9.9926    1.8816 H         1 <0>         0.1288
     53 H26       -14.6026   12.2402   -0.8929 H         1 <0>         0.1230
     54 H27       -14.7277   13.7045    0.1114 H         1 <0>         0.1222
     55 H28       -13.1416   12.9427   -0.1577 H         1 <0>         0.1219
     56 H29       -15.9545   11.1644    2.3743 H         1 <0>         0.1213
     57 H30       -16.3219   12.6966    1.5464 H         1 <0>         0.1223
     58 H31       -16.2903   11.1732    0.6263 H         1 <0>         0.1226
     59 H32        -2.1136    1.2607   -0.3593 H         1 <0>         0.1491
     60 H33         0.0189    0.0093   -0.1451 H         1 <0>         0.1424
     61 H34         2.1277    1.3735    0.4369 H         1 <0>         0.1919
     62 N2        -14.3936   11.9350    1.1966 N.4       1 <0>        -0.3990
     63 H35       -13.9832   12.4276    1.9986 H         1 <0>         0.4308
@<TRIPOS>BOND
     1    1    2 1
     2    1   28 1
     3    1   29 1
     4    1   30 1
     5    2    3 1
     6    2    4 1
     7    2   31 1
     8    3   32 1
     9    3   33 1
    10    3   34 1
    11    4    9 ar
    12    4    5 ar
    13    5    6 ar
    14    5   35 1
    15    6    7 ar
    16    6   36 1
    17    7    8 ar
    18    7   21 1
    19    8    9 ar
    20    8   10 1
    21   10   11 1
    22   11   12 1
    23   11   37 1
    24   11   38 1
    25   12   13 1
    26   12   39 1
    27   12   40 1
    28   13   14 1
    29   13   41 1
    30   13   42 1
    31   14   15 1
    32   14   43 1
    33   14   44 1
    34   15   16 1
    35   15   45 1
    36   15   46 1
    37   16   17 1
    38   16   47 1
    39   16   48 1
    40   17   18 1
    41   17   49 1
    42   17   50 1
    43   18   51 1
    44   18   52 1
    45   18   62 1
    46   19   53 1
    47   19   54 1
    48   19   55 1
    49   19   62 1
    50   20   56 1
    51   20   57 1
    52   20   58 1
    53   20   62 1
    54   21   22 2
    55   21   23 1
    56   23   27 1
    57   23   24 2
    58   24   25 1
    59   24   59 1
    60   25   26 2
    61   25   60 1
    62   26   27 1
    63   26   61 1
    64   62   63 1
@<TRIPOS>MOLECULE
ZINC29406073
   46    47     0     0     0
SMALL
USER_CHARGES
1-[(4R)-4-(pyrrolidine-1-carbonyl)thiazolidin-3-yl]heptan-1-one
@<TRIPOS>ATOM
      1 C1         -0.0187    1.5258    0.0104 C.3       1 <0>        -0.1559
      2 C2          0.0021   -0.0041    0.0020 C.3       1 <0>        -0.1257
      3 C3          0.7182   -0.4975   -1.2568 C.3       1 <0>        -0.1217
      4 C4          0.7390   -2.0273   -1.2652 C.3       1 <0>        -0.1203
      5 C5          1.4551   -2.5207   -2.5240 C.3       1 <0>        -0.1053
      6 C6          1.4758   -4.0506   -2.5324 C.3       1 <0>        -0.1362
      7 C7          2.1812   -4.5366   -3.7723 C.2       1 <0>         0.5344
      8 O1          2.6238   -3.7380   -4.5706 O.2       1 <0>        -0.5129
      9 N1          2.3203   -5.8587   -3.9940 N.am      1 <0>        -0.6156
     10 C8          1.7951   -6.8658   -3.0466 C.3       1 <0>         0.1537
     11 S1          2.8399   -8.3307   -3.4644 S.3       1 <0>        -0.2580
     12 C9          3.0776   -7.9133   -5.2494 C.3       1 <0>        -0.0659
     13 C10         2.9886   -6.3687   -5.1792 C.3       1 <0>         0.1234
     14 H1          4.0043   -5.9538   -5.1010 H         1 <0>         0.1163
     15 C11         2.2503   -5.8723   -6.3956 C.2       1 <0>         0.5300
     16 O2          1.2716   -5.1680   -6.2653 O.2       1 <0>        -0.5113
     17 N2          2.6776   -6.2110   -7.6281 N.am      1 <0>        -0.6199
     18 C12         3.8476   -7.0488   -7.9292 C.3       1 <0>         0.0856
     19 C13         3.9606   -7.1431   -9.4653 C.3       1 <0>        -0.1345
     20 C14         3.1900   -5.8852   -9.9462 C.3       1 <0>        -0.1290
     21 C15         2.0530   -5.7974   -8.8978 C.3       1 <0>         0.1093
     22 H2         -0.5336    1.8805    0.9154 H         1 <0>         0.0537
     23 H3         -0.5508    1.8901   -0.8808 H         1 <0>         0.0540
     24 H4          1.0133    1.9066    0.0026 H         1 <0>         0.0539
     25 H5          0.5342   -0.3684    0.8932 H         1 <0>         0.0607
     26 H6         -1.0299   -0.3849    0.0099 H         1 <0>         0.0608
     27 H7          0.1861   -0.1331   -2.1479 H         1 <0>         0.0627
     28 H8          1.7502   -0.1167   -1.2647 H         1 <0>         0.0625
     29 H9          1.2711   -2.3916   -0.3740 H         1 <0>         0.0627
     30 H10        -0.2930   -2.4081   -1.2573 H         1 <0>         0.0629
     31 H11         0.9231   -2.1563   -3.4151 H         1 <0>         0.0718
     32 H12         2.4871   -2.1400   -2.5319 H         1 <0>         0.0702
     33 H13         2.0078   -4.4150   -1.6412 H         1 <0>         0.0953
     34 H14         0.4438   -4.4313   -2.5246 H         1 <0>         0.0963
     35 H15         1.9356   -6.5080   -2.0160 H         1 <0>         0.1229
     36 H16         0.7233   -7.0243   -3.2368 H         1 <0>         0.0992
     37 H17         4.0545   -8.2897   -5.5870 H         1 <0>         0.1355
     38 H18         2.2791   -8.3803   -5.8447 H         1 <0>         0.1092
     39 H19         4.7497   -6.5854   -7.5032 H         1 <0>         0.0706
     40 H20         3.7062   -8.0475   -7.4902 H         1 <0>         0.0725
     41 H21         5.0212   -7.1276   -9.7566 H         1 <0>         0.0853
     42 H22         3.4994   -8.0803   -9.8101 H         1 <0>         0.0790
     43 H23         3.8628   -5.0151   -9.9313 H         1 <0>         0.0791
     44 H24         2.8245   -6.0485  -10.9708 H         1 <0>         0.0882
     45 H25         1.2240   -6.4794   -9.1378 H         1 <0>         0.0703
     46 H26         1.6675   -4.7718   -8.7998 H         1 <0>         0.0802
@<TRIPOS>BOND
     1    1    2 1
     2    1   22 1
     3    1   23 1
     4    1   24 1
     5    2    3 1
     6    2   25 1
     7    2   26 1
     8    3    4 1
     9    3   27 1
    10    3   28 1
    11    4    5 1
    12    4   29 1
    13    4   30 1
    14    5    6 1
    15    5   31 1
    16    5   32 1
    17    6    7 1
    18    6   33 1
    19    6   34 1
    20    7    8 2
    21    7    9 am
    22    9   13 1
    23    9   10 1
    24   10   11 1
    25   10   35 1
    26   10   36 1
    27   11   12 1
    28   12   13 1
    29   12   37 1
    30   12   38 1
    31   13   14 1
    32   13   15 1
    33   15   16 2
    34   15   17 am
    35   17   21 1
    36   17   18 1
    37   18   19 1
    38   18   39 1
    39   18   40 1
    40   19   20 1
    41   19   41 1
    42   19   42 1
    43   20   21 1
    44   20   43 1
    45   20   44 1
    46   21   45 1
    47   21   46 1
@<TRIPOS>MOLECULE
ZINC29406076
   40    41     0     0     0
SMALL
USER_CHARGES
1-[(4R)-4-(pyrrolidine-1-carbonyl)thiazolidin-3-yl]pentan-1-one
@<TRIPOS>ATOM
      1 C1          0.7182   -0.4975   -1.2568 C.3       1 <0>        -0.1550
      2 C2          0.0021   -0.0041    0.0020 C.3       1 <0>        -0.1249
      3 C3         -0.0187    1.5258    0.0104 C.3       1 <0>        -0.1061
      4 C4         -0.7348    2.0192    1.2692 C.3       1 <0>        -0.1366
      5 C5         -0.7552    3.5260    1.2775 C.2       1 <0>         0.5344
      6 O1         -0.2471    4.1444    0.3663 O.2       1 <0>        -0.5129
      7 N1         -1.3383    4.1865    2.2975 N.am      1 <0>        -0.6157
      8 C6         -1.9688    3.4711    3.4282 C.3       1 <0>         0.1536
      9 S1         -3.1336    4.7572    4.0617 S.3       1 <0>        -0.2580
     10 C7         -2.1103    6.2191    3.5794 C.3       1 <0>        -0.0658
     11 C8         -1.3747    5.6383    2.3465 C.3       1 <0>         0.1234
     12 H1         -1.9277    5.9133    1.4362 H         1 <0>         0.1164
     13 C9          0.0418    6.1526    2.3434 C.2       1 <0>         0.5299
     14 O2          0.9700    5.3730    2.3041 O.2       1 <0>        -0.5114
     15 N2          0.2772    7.4791    2.3843 N.am      1 <0>        -0.6199
     16 C10        -0.7494    8.5306    2.4276 C.3       1 <0>         0.0856
     17 C11        -0.0151    9.8877    2.4401 C.3       1 <0>        -0.1345
     18 C12         1.3656    9.5391    1.8240 C.3       1 <0>        -0.1290
     19 C13         1.6067    8.1161    2.3865 C.3       1 <0>         0.1093
     20 H2          0.7331   -1.5974   -1.2628 H         1 <0>         0.0553
     21 H3          1.7502   -0.1167   -1.2646 H         1 <0>         0.0554
     22 H4          0.1861   -0.1331   -2.1479 H         1 <0>         0.0551
     23 H5         -1.0299   -0.3849    0.0098 H         1 <0>         0.0623
     24 H6          0.5341   -0.3685    0.8932 H         1 <0>         0.0626
     25 H7          1.0133    1.9066    0.0026 H         1 <0>         0.0719
     26 H8         -0.5507    1.8902   -0.8808 H         1 <0>         0.0703
     27 H9         -1.7668    1.6385    1.2770 H         1 <0>         0.0954
     28 H10        -0.2028    1.6548    2.1604 H         1 <0>         0.0965
     29 H11        -2.4747    2.5686    3.0547 H         1 <0>         0.1229
     30 H12        -1.1964    3.1835    4.1567 H         1 <0>         0.0992
     31 H13        -2.7702    7.0680    3.3471 H         1 <0>         0.1356
     32 H14        -1.4432    6.4902    4.4110 H         1 <0>         0.1092
     33 H15        -1.3954    8.4491    1.5410 H         1 <0>         0.0706
     34 H16        -1.3576    8.4121    3.3365 H         1 <0>         0.0725
     35 H17        -0.5776   10.6145    1.8357 H         1 <0>         0.0853
     36 H18         0.0625   10.2531    3.4747 H         1 <0>         0.0790
     37 H19         1.2948    9.5662    0.7266 H         1 <0>         0.0791
     38 H20         2.1133   10.2720    2.1614 H         1 <0>         0.0883
     39 H21         1.9976    8.1451    3.4143 H         1 <0>         0.0703
     40 H22         2.2918    7.5370    1.7499 H         1 <0>         0.0802
@<TRIPOS>BOND
     1    1    2 1
     2    1   20 1
     3    1   21 1
     4    1   22 1
     5    2    3 1
     6    2   23 1
     7    2   24 1
     8    3    4 1
     9    3   25 1
    10    3   26 1
    11    4    5 1
    12    4   27 1
    13    4   28 1
    14    5    6 2
    15    5    7 am
    16    7   11 1
    17    7    8 1
    18    8    9 1
    19    8   29 1
    20    8   30 1
    21    9   10 1
    22   10   11 1
    23   10   31 1
    24   10   32 1
    25   11   12 1
    26   11   13 1
    27   13   14 2
    28   13   15 am
    29   15   19 1
    30   15   16 1
    31   16   17 1
    32   16   33 1
    33   16   34 1
    34   17   18 1
    35   17   35 1
    36   17   36 1
    37   18   19 1
    38   18   37 1
    39   18   38 1
    40   19   39 1
    41   19   40 1
@<TRIPOS>MOLECULE
ZINC29410849
   43    44     0     0     0
SMALL
USER_CHARGES
1-[(4R)-4-(pyrrolidine-1-carbonyl)thiazolidin-3-yl]hexan-1-one
@<TRIPOS>ATOM
      1 C1         -0.7766    1.6061   -3.7298 C.3       1 <0>        -0.1549
      2 C2         -0.0366    1.0992   -2.4903 C.3       1 <0>        -0.1264
      3 C3         -0.7527    1.5927   -1.2315 C.3       1 <0>        -0.1204
      4 C4         -0.0127    1.0858    0.0080 C.3       1 <0>        -0.1058
      5 C5         -0.7288    1.5792    1.2668 C.3       1 <0>        -0.1363
      6 C6          0.0000    1.0800    2.4877 C.2       1 <0>         0.5344
      7 O1          0.9944    0.3969    2.3633 O.2       1 <0>        -0.5129
      8 N1         -0.4531    1.3927    3.7179 N.am      1 <0>        -0.6156
      9 C7         -1.6617    2.2225    3.9141 C.3       1 <0>         0.1536
     10 S1         -1.3798    2.8691    5.6213 S.3       1 <0>        -0.2580
     11 C8         -0.4313    1.4090    6.2418 C.3       1 <0>        -0.0659
     12 C9          0.2169    0.9272    4.9203 C.3       1 <0>         0.1235
     13 H1          1.2253    1.3586    4.8370 H         1 <0>         0.1163
     14 C10         0.2268   -0.5798    4.9093 C.2       1 <0>         0.5299
     15 O2         -0.2776   -1.1828    3.9858 O.2       1 <0>        -0.5114
     16 N2          0.7962   -1.2574    5.9257 N.am      1 <0>        -0.6199
     17 C11         1.4462   -0.6555    7.0991 C.3       1 <0>         0.0856
     18 C12         1.9694   -1.8119    7.9767 C.3       1 <0>        -0.1345
     19 C13         2.0912   -2.9838    6.9672 C.3       1 <0>        -0.1290
     20 C14         0.8761   -2.7249    6.0419 C.3       1 <0>         0.1093
     21 H2         -0.2618    1.2513   -4.6348 H         1 <0>         0.0542
     22 H3         -0.7914    2.7060   -3.7237 H         1 <0>         0.0537
     23 H4         -1.8086    1.2254   -3.7219 H         1 <0>         0.0538
     24 H5         -0.0218   -0.0007   -2.4964 H         1 <0>         0.0625
     25 H6          0.9954    1.4798   -2.4981 H         1 <0>         0.0622
     26 H7         -0.7675    2.6926   -1.2255 H         1 <0>         0.0627
     27 H8         -1.7847    1.2121   -1.2237 H         1 <0>         0.0629
     28 H9          0.0022   -0.0141    0.0019 H         1 <0>         0.0719
     29 H10         1.0193    1.4665    0.0002 H         1 <0>         0.0703
     30 H11        -0.7437    2.6791    1.2728 H         1 <0>         0.0953
     31 H12        -1.7608    1.1985    1.2746 H         1 <0>         0.0964
     32 H13        -1.6937    3.0107    3.1475 H         1 <0>         0.1229
     33 H14        -2.5581    1.5908    3.8281 H         1 <0>         0.0992
     34 H15         0.2935    1.7383    7.0009 H         1 <0>         0.1356
     35 H16        -1.1265    0.6833    6.6891 H         1 <0>         0.1092
     36 H17         2.2770   -0.0144    6.7694 H         1 <0>         0.0706
     37 H18         0.7140   -0.0504    7.6538 H         1 <0>         0.0725
     38 H19         2.9371   -1.5293    8.4169 H         1 <0>         0.0853
     39 H20         1.2472   -2.0180    8.7804 H         1 <0>         0.0789
     40 H21         3.0569   -2.9186    6.4445 H         1 <0>         0.0791
     41 H22         2.0302   -3.9404    7.5068 H         1 <0>         0.0882
     42 H23        -0.0575   -3.1095    6.4782 H         1 <0>         0.0703
     43 H24         1.0228   -3.1643    5.0442 H         1 <0>         0.0802
@<TRIPOS>BOND
     1    1    2 1
     2    1   21 1
     3    1   22 1
     4    1   23 1
     5    2    3 1
     6    2   24 1
     7    2   25 1
     8    3    4 1
     9    3   26 1
    10    3   27 1
    11    4    5 1
    12    4   28 1
    13    4   29 1
    14    5    6 1
    15    5   30 1
    16    5   31 1
    17    6    7 2
    18    6    8 am
    19    8   12 1
    20    8    9 1
    21    9   10 1
    22    9   32 1
    23    9   33 1
    24   10   11 1
    25   11   12 1
    26   11   34 1
    27   11   35 1
    28   12   13 1
    29   12   14 1
    30   14   15 2
    31   14   16 am
    32   16   20 1
    33   16   17 1
    34   17   18 1
    35   17   36 1
    36   17   37 1
    37   18   19 1
    38   18   38 1
    39   18   39 1
    40   19   20 1
    41   19   40 1
    42   19   41 1
    43   20   42 1
    44   20   43 1
@<TRIPOS>MOLECULE
ZINC03807687
   51    53     0     0     0
SMALL
USER_CHARGES
N-benzyl-2-[2-(2-hydroxyacetyl)pyrrolidin-1-yl]carbonyl-pyrrolidine-1-carboxamide
@<TRIPOS>ATOM
      1 C1         -7.1393   -3.7787   -2.7472 C.ar      1 <0>        -0.1116
      2 C2         -6.8813   -2.6888   -3.5575 C.ar      1 <0>        -0.1224
      3 C3         -5.6609   -2.0442   -3.4810 C.ar      1 <0>        -0.1001
      4 C4         -4.6983   -2.4897   -2.5945 C.ar      1 <0>        -0.1097
      5 C5         -4.9542   -3.5830   -1.7883 C.ar      1 <0>        -0.0993
      6 C6         -6.1765   -4.2245   -1.8611 C.ar      1 <0>        -0.1217
      7 C7         -3.3676   -1.7872   -2.5115 C.3       1 <0>         0.1828
      8 N1         -3.4415   -0.7177   -1.5130 N.am      1 <0>        -0.7402
      9 C8         -2.3616    0.0501   -1.2667 C.2       1 <0>         0.7269
     10 O1         -1.3260   -0.1449   -1.8732 O.2       1 <0>        -0.5638
     11 N2         -2.4296    1.0339   -0.3481 N.am      1 <0>        -0.6251
     12 C9         -3.6132    1.3777    0.4534 C.3       1 <0>         0.0995
     13 C10        -3.2151    2.5445    1.3816 C.3       1 <0>        -0.1272
     14 C11        -1.6702    2.4198    1.4533 C.3       1 <0>        -0.1227
     15 C12        -1.3296    1.9443    0.0189 C.3       1 <0>         0.1463
     16 H1         -1.2938    2.7933   -0.6637 H         1 <0>         0.0945
     17 C13        -0.0144    1.2086    0.0087 C.2       1 <0>         0.5340
     18 O2          0.0021   -0.0041    0.0020 O.2       1 <0>        -0.4919
     19 N3          1.1435    1.8983    0.0013 N.am      1 <0>        -0.6125
     20 C14         1.2687    3.3672    0.0016 C.3       1 <0>         0.0965
     21 C15         2.6700    3.6434    0.6069 C.3       1 <0>        -0.1331
     22 C16         3.5004    2.4775    0.0082 C.3       1 <0>        -0.1212
     23 C17         2.4910    1.3104   -0.0147 C.3       1 <0>         0.1098
     24 H2          2.6043    0.7590   -0.8412 H         1 <0>         0.0933
     25 C18         2.6852    0.4408    1.2007 C.2       1 <0>         0.3413
     26 O3          1.9203    0.5243    2.1314 O.2       1 <0>        -0.4113
     27 C19         3.8341   -0.5330    1.2546 C.3       1 <0>         0.0409
     28 O4          3.8047   -1.2358    2.4985 O.3       1 <0>        -0.5545
     29 H3         -8.0930   -4.2821   -2.8067 H         1 <0>         0.1236
     30 H4         -7.6334   -2.3407   -4.2500 H         1 <0>         0.1244
     31 H5         -5.4594   -1.1927   -4.1140 H         1 <0>         0.1237
     32 H6         -4.2005   -3.9338   -1.0989 H         1 <0>         0.1241
     33 H7         -6.3780   -5.0762   -1.2283 H         1 <0>         0.1245
     34 H8         -3.1208   -1.3603   -3.4835 H         1 <0>         0.0739
     35 H9         -2.5970   -2.5017   -2.2222 H         1 <0>         0.0747
     36 H10        -4.2677   -0.5622   -1.0291 H         1 <0>         0.3951
     37 H11        -3.9199    0.5180    1.0492 H         1 <0>         0.0681
     38 H12        -4.4276    1.6866   -0.2019 H         1 <0>         0.0712
     39 H13        -3.6583    2.4199    2.3695 H         1 <0>         0.0896
     40 H14        -3.5050    3.5004    0.9454 H         1 <0>         0.0830
     41 H15        -1.3721    1.6762    2.1925 H         1 <0>         0.0859
     42 H16        -1.2097    3.3849    1.6647 H         1 <0>         0.0930
     43 H17         1.2097    3.7532   -1.0161 H         1 <0>         0.0753
     44 H18         0.4927    3.8140    0.6232 H         1 <0>         0.0799
     45 H19         2.6470    3.5881    1.6953 H         1 <0>         0.0807
     46 H20         3.0542    4.6077    0.2743 H         1 <0>         0.0927
     47 H21         4.3497    2.2402    0.6489 H         1 <0>         0.0878
     48 H22         3.8355    2.7174   -1.0008 H         1 <0>         0.0939
     49 H23         3.7537   -1.1854    0.5010 H         1 <0>         0.0722
     50 H24         4.7751    0.0100    1.1662 H         1 <0>         0.0798
     51 H25         4.5174   -1.8811    2.6025 H         1 <0>         0.3856
@<TRIPOS>BOND
     1    1    6 ar
     2    1    2 ar
     3    1   29 1
     4    2    3 ar
     5    2   30 1
     6    3    4 ar
     7    3   31 1
     8    4    5 ar
     9    4    7 1
    10    5    6 ar
    11    5   32 1
    12    6   33 1
    13    7    8 1
    14    7   34 1
    15    7   35 1
    16    8    9 am
    17    8   36 1
    18    9   10 2
    19    9   11 am
    20   11   15 1
    21   11   12 1
    22   12   13 1
    23   12   37 1
    24   12   38 1
    25   13   14 1
    26   13   39 1
    27   13   40 1
    28   14   15 1
    29   14   41 1
    30   14   42 1
    31   15   16 1
    32   15   17 1
    33   17   18 2
    34   17   19 am
    35   19   23 1
    36   19   20 1
    37   20   21 1
    38   20   43 1
    39   20   44 1
    40   21   22 1
    41   21   45 1
    42   21   46 1
    43   22   23 1
    44   22   47 1
    45   22   48 1
    46   23   24 1
    47   23   25 1
    48   25   26 2
    49   25   27 1
    50   27   28 1
    51   27   49 1
    52   27   50 1
    53   28   51 1
@<TRIPOS>MOLECULE
ZINC03803443
   46    48     0     0     0
SMALL
USER_CHARGES

@<TRIPOS>ATOM
      1 C1         -0.0167    1.3781    0.0096 C.ar      1 <0>        -0.1074
      2 C2          1.1709    2.0855    0.0021 C.ar      1 <0>        -0.1236
      3 C3          2.3773    1.4107   -0.0130 C.ar      1 <0>        -0.0937
      4 C4          2.3960    0.0285   -0.0201 C.ar      1 <0>        -0.0995
      5 C5          1.2084   -0.6789   -0.0117 C.ar      1 <0>        -0.0926
      6 C6          0.0021   -0.0041    0.0020 C.ar      1 <0>        -0.1227
      7 C7          3.7112   -0.7071   -0.0376 C.3       1 <0>         0.1284
      8 O1          4.1410   -0.9464    1.3041 O.3       1 <0>        -0.3532
      9 C8          5.3077   -1.5988    1.4650 C.2       1 <0>         0.6739
     10 O2          5.9435   -1.9553    0.4929 O.2       1 <0>        -0.5617
     11 N1          5.7703   -1.8565    2.7044 N.am      1 <0>        -0.5872
     12 C9          5.1008   -1.4883    3.9652 C.3       1 <0>         0.1024
     13 C10         6.2391   -1.4208    5.0137 C.3       1 <0>        -0.1300
     14 C11         7.1497   -2.5926    4.5607 C.3       1 <0>        -0.1218
     15 C12         7.0230   -2.5570    3.0230 C.3       1 <0>         0.1460
     16 H1          7.8683   -2.0176    2.5956 H         1 <0>         0.1042
     17 C13         6.9783   -3.9609    2.4770 C.2       1 <0>         0.5222
     18 O3          5.9144   -4.4642    2.1845 O.2       1 <0>        -0.5117
     19 N2          8.1207   -4.6572    2.3139 N.am      1 <0>        -0.6089
     20 C14         9.4757   -4.1720    2.6333 C.3       1 <0>         0.0930
     21 C15        10.3103   -5.4550    2.8720 C.3       1 <0>        -0.1330
     22 C16         9.7151   -6.4161    1.8092 C.3       1 <0>        -0.1201
     23 C17         8.2214   -6.0287    1.7939 C.3       1 <0>         0.0717
     24 H2          7.8410   -6.0670    0.7732 H         1 <0>         0.0979
     25 C18         7.4365   -6.9687    2.6721 C.2       1 <0>         0.3418
     26 O4          6.5825   -7.6736    2.1904 O.2       1 <0>        -0.4382
     27 H3         -0.9591    1.9053    0.0259 H         1 <0>         0.1253
     28 H4          1.1563    3.1654    0.0076 H         1 <0>         0.1263
     29 H5          3.3051    1.9634   -0.0196 H         1 <0>         0.1244
     30 H6          1.2231   -1.7588   -0.0176 H         1 <0>         0.1250
     31 H7         -0.9258   -0.5567    0.0082 H         1 <0>         0.1265
     32 H8          3.5884   -1.6586   -0.5549 H         1 <0>         0.0782
     33 H9          4.4573   -0.1052   -0.5563 H         1 <0>         0.0780
     34 H10         4.6166   -0.5166    3.8679 H         1 <0>         0.0890
     35 H11         4.3725   -2.2497    4.2444 H         1 <0>         0.0752
     36 H12         6.7683   -0.4697    4.9552 H         1 <0>         0.0850
     37 H13         5.8546   -1.5910    6.0193 H         1 <0>         0.0953
     38 H14         8.1810   -2.4211    4.8691 H         1 <0>         0.0995
     39 H15         6.7815   -3.5408    4.9525 H         1 <0>         0.0852
     40 H16         9.8827   -3.6050    1.7960 H         1 <0>         0.0776
     41 H17         9.4565   -3.5588    3.5342 H         1 <0>         0.0832
     42 H18        11.3686   -5.2731    2.6851 H         1 <0>         0.0936
     43 H19        10.1537   -5.8412    3.8792 H         1 <0>         0.0825
     44 H20        10.1719   -6.2439    0.8347 H         1 <0>         0.0906
     45 H21         9.8386   -7.4546    2.1162 H         1 <0>         0.0886
     46 H22         7.6377   -7.0119    3.7324 H         1 <0>         0.0949
@<TRIPOS>BOND
     1    1    6 ar
     2    1    2 ar
     3    1   27 1
     4    2    3 ar
     5    2   28 1
     6    3    4 ar
     7    3   29 1
     8    4    5 ar
     9    4    7 1
    10    5    6 ar
    11    5   30 1
    12    6   31 1
    13    7    8 1
    14    7   32 1
    15    7   33 1
    16    8    9 1
    17    9   10 2
    18    9   11 am
    19   11   15 1
    20   11   12 1
    21   12   13 1
    22   12   34 1
    23   12   35 1
    24   13   14 1
    25   13   36 1
    26   13   37 1
    27   14   15 1
    28   14   38 1
    29   14   39 1
    30   15   16 1
    31   15   17 1
    32   17   18 2
    33   17   19 am
    34   19   23 1
    35   19   20 1
    36   20   21 1
    37   20   40 1
    38   20   41 1
    39   21   22 1
    40   21   42 1
    41   21   43 1
    42   22   23 1
    43   22   44 1
    44   22   45 1
    45   23   24 1
    46   23   25 1
    47   25   26 2
    48   25   46 1
