@<TRIPOS>MOLECULE
ZINC04428529
   53    56     0     0     0
SMALL
USER_CHARGES

@<TRIPOS>ATOM
      1 C1          0.4282    0.7651    1.2384 C.3       1 <0>        -0.2080
      2 C2          0.0050   -0.0027    0.0127 C.2       1 <0>         0.3647
      3 O1          0.7040   -0.0010   -0.9721 O.2       1 <0>        -0.4542
      4 C3         -1.2905   -0.7727    0.0158 C.3       1 <0>        -0.1325
      5 H1         -2.0415   -0.2446    0.6034 H         1 <0>         0.0972
      6 C4         -1.7935   -0.9827   -1.4341 C.3       1 <0>        -0.1186
      7 C5         -1.9305   -2.5169   -1.6323 C.3       1 <0>        -0.1151
      8 C6         -2.1068   -3.0336   -0.2000 C.3       1 <0>        -0.0796
      9 H2         -3.1156   -2.8264    0.1569 H         1 <0>         0.0777
     10 C7         -1.0708   -2.1742    0.5759 C.3       1 <0>        -0.0487
     11 C8         -1.3489   -2.3630    2.0549 C.3       1 <0>        -0.1047
     12 C9         -1.0643   -3.8367    2.3850 C.3       1 <0>        -0.1222
     13 C10        -1.9046   -4.7802    1.5293 C.3       1 <0>        -0.0680
     14 H3         -2.9551   -4.6575    1.7928 H         1 <0>         0.0704
     15 C11        -1.7585   -4.4942    0.0214 C.3       1 <0>        -0.0776
     16 H4         -0.7305   -4.6831   -0.2877 H         1 <0>         0.0863
     17 C12        -2.7266   -5.3822   -0.7660 C.3       1 <0>        -0.1118
     18 C13        -2.3186   -6.8466   -0.5915 C.3       1 <0>        -0.0977
     19 C14        -2.2642   -7.1658    0.8913 C.2       1 <0>        -0.0206
     20 C15        -2.8820   -8.2703    1.3099 C.2       1 <0>        -0.2434
     21 H5         -3.4070   -8.8958    0.6032 H         1 <0>         0.1337
     22 C16        -2.8495   -8.6362    2.7300 C.2       1 <0>         0.3882
     23 O2         -3.6756   -9.3796    3.2168 O.2       1 <0>        -0.4580
     24 C17        -1.7290   -8.0371    3.5574 C.3       1 <0>        -0.1668
     25 H6         -1.9153   -8.2141    4.6167 H         1 <0>         0.0925
     26 H7         -0.7768   -8.4825    3.2693 H         1 <0>         0.0997
     27 C18        -1.7074   -6.5351    3.2776 C.3       1 <0>        -0.1069
     28 C19        -1.4839   -6.2270    1.8163 C.3       1 <0>        -0.0241
     29 C20         0.0121   -6.3503    1.5204 C.3       1 <0>        -0.1492
     30 C21         0.3461   -2.6481    0.2465 C.3       1 <0>        -0.1572
     31 H8          1.3837    1.2542    1.0489 H         1 <0>         0.0809
     32 H9         -0.3247    1.5173    1.4738 H         1 <0>         0.0918
     33 H10         0.5316    0.0791    2.0791 H         1 <0>         0.0918
     34 H11        -2.7617   -0.5002   -1.5678 H         1 <0>         0.0675
     35 H12        -1.0717   -0.5769   -2.1430 H         1 <0>         0.0790
     36 H13        -2.8065   -2.7509   -2.2372 H         1 <0>         0.0676
     37 H14        -1.0279   -2.9297   -2.0829 H         1 <0>         0.0698
     38 H15        -0.6944   -1.7180    2.6411 H         1 <0>         0.0661
     39 H16        -2.3917   -2.1291    2.2695 H         1 <0>         0.0682
     40 H17        -0.0085   -4.0427    2.2091 H         1 <0>         0.0749
     41 H18        -1.2894   -4.0152    3.4365 H         1 <0>         0.0667
     42 H19        -3.7398   -5.2390   -0.3905 H         1 <0>         0.0659
     43 H20        -2.6874   -5.1165   -1.8224 H         1 <0>         0.0725
     44 H21        -3.0518   -7.4905   -1.0771 H         1 <0>         0.0771
     45 H22        -1.3365   -7.0077   -1.0361 H         1 <0>         0.0840
     46 H23        -2.6504   -6.0986    3.6068 H         1 <0>         0.0701
     47 H24        -0.8915   -6.0806    3.8396 H         1 <0>         0.0811
     48 H25         0.5667   -5.6628    2.1591 H         1 <0>         0.0702
     49 H26         0.3383   -7.3717    1.7166 H         1 <0>         0.0587
     50 H27         0.1972   -6.1043    0.4748 H         1 <0>         0.0638
     51 H28         1.0689   -2.0310    0.7800 H         1 <0>         0.0510
     52 H29         0.4614   -3.6883    0.5512 H         1 <0>         0.0714
     53 H30         0.5175   -2.5628   -0.8266 H         1 <0>         0.0644
@<TRIPOS>BOND
     1    1    2 1
     2    1   31 1
     3    1   32 1
     4    1   33 1
     5    2    3 2
     6    2    4 1
     7    4    5 1
     8    4   10 1
     9    4    6 1
    10    6    7 1
    11    6   34 1
    12    6   35 1
    13    7    8 1
    14    7   36 1
    15    7   37 1
    16    8    9 1
    17    8   15 1
    18    8   10 1
    19   10   11 1
    20   10   30 1
    21   11   12 1
    22   11   38 1
    23   11   39 1
    24   12   13 1
    25   12   40 1
    26   12   41 1
    27   13   14 1
    28   13   28 1
    29   13   15 1
    30   15   16 1
    31   15   17 1
    32   17   18 1
    33   17   42 1
    34   17   43 1
    35   18   19 1
    36   18   44 1
    37   18   45 1
    38   19   28 1
    39   19   20 2
    40   20   21 1
    41   20   22 1
    42   22   23 2
    43   22   24 1
    44   24   25 1
    45   24   26 1
    46   24   27 1
    47   27   28 1
    48   27   46 1
    49   27   47 1
    50   28   29 1
    51   29   48 1
    52   29   49 1
    53   29   50 1
    54   30   51 1
    55   30   52 1
    56   30   53 1
@<TRIPOS>MOLECULE
ZINC03881875
   62    65     0     0     0
SMALL
USER_CHARGES
(17-acetyl-6,10,13-trimethyl-3-oxo-2,6,7,8,9,11,12,14,15,16-decahydro-1H-cyclopenta[a]phenanthren-17-yl) acetate
@<TRIPOS>ATOM
      1 C1         -6.7857    0.2454    7.5623 C.3       1 <0>        -0.1498
      2 C2         -6.2038    1.1780    6.5037 C.3       1 <0>        -0.0659
      3 H1         -5.9025    2.1155    6.9853 H         1 <0>         0.0891
      4 C3         -4.9699    0.5236    5.8919 C.3       1 <0>        -0.1079
      5 C4         -4.2991    1.4580    4.8900 C.3       1 <0>        -0.0622
      6 H2         -3.8974    2.3151    5.4285 H         1 <0>         0.0768
      7 C5         -5.2456    1.9311    3.8092 C.3       1 <0>        -0.0736
      8 H3         -4.8579    2.9153    3.5020 H         1 <0>         0.0702
      9 C6         -5.1277    1.0689    2.5581 C.3       1 <0>        -0.1164
     10 C7         -3.7603    1.2899    1.8860 C.3       1 <0>        -0.1104
     11 C8         -2.6900    1.3922    2.9493 C.3       1 <0>        -0.0326
     12 C9         -3.1652    0.6790    4.2329 C.3       1 <0>        -0.0745
     13 H4         -3.5009   -0.3412    3.9999 H         1 <0>         0.0880
     14 C10        -1.8777    0.6187    5.0707 C.3       1 <0>        -0.1186
     15 C11        -0.7646    0.3584    4.0233 C.3       1 <0>        -0.1334
     16 C12        -1.3953    0.6225    2.6343 C.3       1 <0>         0.0800
     17 C13        -0.4801    1.4671    1.7916 C.2       1 <0>         0.3579
     18 O1          0.3337    2.1866    2.3191 O.2       1 <0>        -0.4334
     19 C14        -0.5785    1.4155    0.2887 C.3       1 <0>        -0.1998
     20 O2         -1.6958   -0.6305    1.9731 O.3       1 <0>        -0.3301
     21 C15        -0.6583   -1.4327    1.6871 C.2       1 <0>         0.4530
     22 O3          0.4612   -1.1096    2.0065 O.2       1 <0>        -0.5036
     23 C16        -0.8900   -2.7365    0.9676 C.3       1 <0>        -0.1486
     24 C17        -2.3216    2.8520    3.2125 C.3       1 <0>        -0.1529
     25 C18        -6.6660    2.2376    4.2029 C.3       1 <0>        -0.0217
     26 C19        -7.1820    1.4830    5.3900 C.2       1 <0>         0.0016
     27 C20        -8.4493    1.0888    5.4802 C.2       1 <0>        -0.2444
     28 C21        -9.4303    1.4104    4.4352 C.2       1 <0>         0.3835
     29 O4        -10.5257    0.8783    4.4282 O.2       1 <0>        -0.4627
     30 C22        -9.0436    2.4155    3.3750 C.3       1 <0>        -0.1601
     31 C23        -7.5872    2.1614    2.9960 C.3       1 <0>        -0.1064
     32 C24        -6.6561    3.7134    4.6283 C.3       1 <0>        -0.1517
     33 H5         -6.0411    0.0666    8.3379 H         1 <0>         0.0636
     34 H6         -7.6690    0.7052    8.0056 H         1 <0>         0.0599
     35 H7         -7.0627   -0.7018    7.0993 H         1 <0>         0.0597
     36 H8         -5.2672   -0.3895    5.3776 H         1 <0>         0.0665
     37 H9         -4.2614    0.2811    6.6815 H         1 <0>         0.0714
     38 H10        -5.9079    1.3342    1.8422 H         1 <0>         0.0749
     39 H11        -5.2349    0.0163    2.8262 H         1 <0>         0.0657
     40 H12        -3.7910    2.2143    1.3012 H         1 <0>         0.0661
     41 H13        -3.5513    0.4563    1.2126 H         1 <0>         0.0804
     42 H14        -1.9276   -0.2082    5.7832 H         1 <0>         0.0708
     43 H15        -1.7065    1.5549    5.5981 H         1 <0>         0.0744
     44 H16        -0.4254   -0.6751    4.0878 H         1 <0>         0.0772
     45 H17         0.0716    1.0370    4.1889 H         1 <0>         0.0930
     46 H18        -1.4993    1.1283    0.0246 H         1 <0>         0.0788
     47 H19         0.1496    0.7029   -0.0988 H         1 <0>         0.0953
     48 H20        -0.3740    2.4039   -0.1229 H         1 <0>         0.0920
     49 H21        -1.9542   -2.8549    0.7637 H         1 <0>         0.0932
     50 H22        -0.3378   -2.7359    0.0278 H         1 <0>         0.1070
     51 H23        -0.5454   -3.5616    1.5909 H         1 <0>         0.1068
     52 H24        -1.9460    3.3032    2.2941 H         1 <0>         0.0571
     53 H25        -3.2049    3.3947    3.5490 H         1 <0>         0.0762
     54 H26        -1.5511    2.8992    3.9820 H         1 <0>         0.0694
     55 H27        -8.8241    0.5205    6.3223 H         1 <0>         0.1346
     56 H28        -9.6268    2.2938    2.5718 H         1 <0>         0.0830
     57 H29        -9.1772    3.4292    3.7483 H         1 <0>         0.1013
     58 H30        -7.5168    1.1627    2.5594 H         1 <0>         0.0748
     59 H31        -7.2727    2.8992    2.2592 H         1 <0>         0.0834
     60 H32        -6.3303    4.3307    3.7911 H         1 <0>         0.0648
     61 H33        -7.6603    4.0113    4.9301 H         1 <0>         0.0590
     62 H34        -5.9708    3.8457    5.4655 H         1 <0>         0.0603
@<TRIPOS>BOND
     1    1    2 1
     2    1   33 1
     3    1   34 1
     4    1   35 1
     5    2    3 1
     6    2   26 1
     7    2    4 1
     8    4    5 1
     9    4   36 1
    10    4   37 1
    11    5    6 1
    12    5   12 1
    13    5    7 1
    14    7    8 1
    15    7    9 1
    16    7   25 1
    17    9   10 1
    18    9   38 1
    19    9   39 1
    20   10   11 1
    21   10   40 1
    22   10   41 1
    23   11   16 1
    24   11   12 1
    25   11   24 1
    26   12   13 1
    27   12   14 1
    28   14   15 1
    29   14   42 1
    30   14   43 1
    31   15   16 1
    32   15   44 1
    33   15   45 1
    34   16   17 1
    35   16   20 1
    36   17   18 2
    37   17   19 1
    38   19   46 1
    39   19   47 1
    40   19   48 1
    41   20   21 1
    42   21   22 2
    43   21   23 1
    44   23   49 1
    45   23   50 1
    46   23   51 1
    47   24   52 1
    48   24   53 1
    49   24   54 1
    50   25   31 1
    51   25   26 1
    52   25   32 1
    53   26   27 2
    54   27   28 1
    55   27   55 1
    56   28   29 2
    57   28   30 1
    58   30   31 1
    59   30   56 1
    60   30   57 1
    61   31   58 1
    62   31   59 1
    63   32   60 1
    64   32   61 1
    65   32   62 1
@<TRIPOS>MOLECULE
ZINC05029557
   62    65     0     0     0
SMALL
USER_CHARGES

@<TRIPOS>ATOM
      1 C1          0.2341    1.5655   -0.0976 C.3       1 <0>        -0.1535
      2 C2          0.1191    0.0403   -0.1367 C.3       1 <0>        -0.0666
      3 H1         -0.9308   -0.2454   -0.2012 H         1 <0>         0.0909
      4 C3          0.8733   -0.4999   -1.3535 C.3       1 <0>        -0.1079
      5 C4          0.8572   -2.0309   -1.3171 C.3       1 <0>        -0.0798
      6 H2         -0.1697   -2.3914   -1.2578 H         1 <0>         0.0881
      7 C5          1.6532   -2.5095   -0.0942 C.3       1 <0>        -0.0658
      8 H3          2.6561   -2.0846   -0.1352 H         1 <0>         0.0740
      9 C6          1.7601   -4.0309   -0.0478 C.3       1 <0>        -0.1247
     10 C7          2.3287   -4.6012   -1.3568 C.3       1 <0>        -0.0974
     11 C8          1.4185   -4.1389   -2.4785 C.3       1 <0>        -0.0440
     12 C9          1.5291   -2.5804   -2.5623 C.3       1 <0>        -0.0758
     13 H4          2.5733   -2.2696   -2.5976 H         1 <0>         0.0846
     14 C10         0.8218   -2.2794   -3.8884 C.3       1 <0>        -0.1168
     15 C11         1.3527   -3.3974   -4.8267 C.3       1 <0>        -0.1266
     16 C12         1.7937   -4.5873   -3.8873 C.3       1 <0>         0.0841
     17 C13         1.0448   -5.8430   -4.2524 C.2       1 <0>         0.3540
     18 O1          0.0153   -5.7714   -4.8795 O.2       1 <0>        -0.4317
     19 C14         1.5806   -7.1882   -3.8348 C.3       1 <0>        -0.2058
     20 O2          3.2029   -4.8059   -3.9785 O.3       1 <0>        -0.3267
     21 C15         3.6891   -5.1541   -5.1802 C.2       1 <0>         0.4503
     22 O3          2.9560   -5.1948   -6.1398 O.2       1 <0>        -0.4997
     23 C16         5.1493   -5.4943   -5.3326 C.3       1 <0>        -0.1484
     24 C17        -0.0258   -4.5412   -2.1735 C.3       1 <0>        -0.1603
     25 C18         0.9595   -2.0277    1.1861 C.3       1 <0>        -0.0285
     26 C19         0.7302   -0.5485    1.1217 C.2       1 <0>        -0.0150
     27 C20         1.0272    0.2880    2.1160 C.2       1 <0>        -0.2482
     28 C21         1.6049   -0.2282    3.3616 C.2       1 <0>         0.3876
     29 O4          2.2302    0.4842    4.1190 O.2       1 <0>        -0.4583
     30 C22         1.3789   -1.6989    3.6528 C.3       1 <0>        -0.1687
     31 C23         1.7675   -2.4782    2.3904 C.3       1 <0>        -0.1037
     32 C24        -0.4136   -2.6986    1.2594 C.3       1 <0>        -0.1520
     33 H5          1.2846    1.8491   -0.0331 H         1 <0>         0.0607
     34 H6         -0.2008    1.9860   -1.0043 H         1 <0>         0.0621
     35 H7         -0.2995    1.9479    0.7725 H         1 <0>         0.0617
     36 H8          0.3889   -0.1523   -2.2660 H         1 <0>         0.0726
     37 H9          1.9040   -0.1459   -1.3298 H         1 <0>         0.0674
     38 H10         2.4126   -4.3164    0.7773 H         1 <0>         0.0695
     39 H11         0.7692   -4.4518    0.1225 H         1 <0>         0.0747
     40 H12         3.3385   -4.2240   -1.5185 H         1 <0>         0.0767
     41 H13         2.3407   -5.6903   -1.3131 H         1 <0>         0.0676
     42 H14        -0.2597   -2.3530   -3.7742 H         1 <0>         0.0746
     43 H15         1.1052   -1.2954   -4.2621 H         1 <0>         0.0743
     44 H16         0.5615   -3.7281   -5.4996 H         1 <0>         0.0908
     45 H17         2.2039   -3.0312   -5.4006 H         1 <0>         0.0753
     46 H18         1.2511   -7.4116   -2.8201 H         1 <0>         0.1007
     47 H19         1.2084   -7.9546   -4.5147 H         1 <0>         0.0889
     48 H20         2.6700   -7.1715   -3.8677 H         1 <0>         0.0825
     49 H21         5.6464   -5.4023   -4.3669 H         1 <0>         0.0934
     50 H22         5.2480   -6.5171   -5.6962 H         1 <0>         0.1071
     51 H23         5.6095   -4.8094   -6.0448 H         1 <0>         0.1069
     52 H24        -0.3253   -4.1200   -1.2138 H         1 <0>         0.0837
     53 H25        -0.6818   -4.1623   -2.9572 H         1 <0>         0.0675
     54 H26        -0.0992   -5.6280   -2.1321 H         1 <0>         0.0558
     55 H27         0.8427    1.3462    2.0044 H         1 <0>         0.1412
     56 H28         2.0062   -2.0120    4.4874 H         1 <0>         0.0917
     57 H29         0.3296   -1.8723    3.8915 H         1 <0>         0.0996
     58 H30         1.5884   -3.5397    2.5616 H         1 <0>         0.0832
     59 H31         2.8271   -2.3266    2.1844 H         1 <0>         0.0698
     60 H32        -0.2883   -3.7811    1.2832 H         1 <0>         0.0695
     61 H33        -0.9295   -2.3726    2.1625 H         1 <0>         0.0591
     62 H34        -1.0012   -2.4200    0.3846 H         1 <0>         0.0635
@<TRIPOS>BOND
     1    1    2 1
     2    1   33 1
     3    1   34 1
     4    1   35 1
     5    2    3 1
     6    2   26 1
     7    2    4 1
     8    4    5 1
     9    4   36 1
    10    4   37 1
    11    5    6 1
    12    5   12 1
    13    5    7 1
    14    7    8 1
    15    7    9 1
    16    7   25 1
    17    9   10 1
    18    9   38 1
    19    9   39 1
    20   10   11 1
    21   10   40 1
    22   10   41 1
    23   11   16 1
    24   11   12 1
    25   11   24 1
    26   12   13 1
    27   12   14 1
    28   14   15 1
    29   14   42 1
    30   14   43 1
    31   15   16 1
    32   15   44 1
    33   15   45 1
    34   16   17 1
    35   16   20 1
    36   17   18 2
    37   17   19 1
    38   19   46 1
    39   19   47 1
    40   19   48 1
    41   20   21 1
    42   21   22 2
    43   21   23 1
    44   23   49 1
    45   23   50 1
    46   23   51 1
    47   24   52 1
    48   24   53 1
    49   24   54 1
    50   25   31 1
    51   25   26 1
    52   25   32 1
    53   26   27 2
    54   27   28 1
    55   27   55 1
    56   28   29 2
    57   28   30 1
    58   30   31 1
    59   30   56 1
    60   30   57 1
    61   31   58 1
    62   31   59 1
    63   32   60 1
    64   32   61 1
    65   32   62 1
@<TRIPOS>MOLECULE
ZINC49778018
   56    60     0     0     0
SMALL
USER_CHARGES

@<TRIPOS>ATOM
      1 C1          2.4627    0.8329    6.2864 C.ar      1 <0>        -0.1070
      2 C2          2.7733   -0.5113    6.3734 C.ar      1 <0>        -0.1169
      3 C3          3.7283   -1.0557    5.5352 C.ar      1 <0>        -0.1049
      4 C4          4.3723   -0.2559    4.6097 C.ar      1 <0>        -0.0978
      5 C5          4.0611    1.0881    4.5222 C.ar      1 <0>        -0.1014
      6 C6          3.1071    1.6327    5.3613 C.ar      1 <0>        -0.1167
      7 C7          5.4141   -0.8491    3.6966 C.3       1 <0>        -0.5796
      8 S1          4.6194   -1.4436    2.1782 S.o2      1 <0>         2.5996
      9 O1          3.8276   -2.5902    2.4568 O.2       1 <0>        -0.9413
     10 O2          4.0798   -0.3505    1.4479 O.2       1 <0>        -0.9370
     11 N1          5.8623   -2.0064    1.2396 N.pl3     1 <0>        -1.0649
     12 C8          6.8492   -1.1281    0.7882 C.ar      1 <0>         0.1173
     13 C9          6.5704   -0.2439   -0.2478 C.ar      1 <0>        -0.0655
     14 C10         7.5434    0.6241   -0.6950 C.ar      1 <0>        -0.0976
     15 C11         8.8077    0.6149   -0.1076 C.ar      1 <0>         0.0267
     16 C12         9.0851   -0.2722    0.9309 C.ar      1 <0>        -0.1693
     17 C13         8.1072   -1.1349    1.3790 C.ar      1 <0>        -0.0709
     18 C14        10.4508   -0.2843    1.5678 C.3       1 <0>         0.5105
     19 F1         10.4624   -1.1957    2.6291 F         1 <0>        -0.1765
     20 F2         11.4052   -0.6629    0.6175 F         1 <0>        -0.1705
     21 F3         10.7527    0.9946    2.0480 F         1 <0>        -0.1681
     22 C15         9.8567    1.5480   -0.5876 C.ar      1 <0>        -0.1164
     23 C16        11.0578    1.0434   -1.1010 C.ar      1 <0>        -0.0527
     24 C17        12.0329    1.8861   -1.5466 C.ar      1 <0>        -0.1369
     25 C18        11.8432    3.2654   -1.4956 C.ar      1 <0>         0.1396
     26 C19        10.6393    3.7865   -0.9820 C.ar      1 <0>        -0.1762
     27 C20         9.6422    2.9163   -0.5318 C.ar      1 <0>        -0.0023
     28 C21        10.7526    5.2399   -1.0644 C.2       1 <0>         0.0938
     29 N2         11.9163    5.5203   -1.5787 N.2       1 <0>        -0.2447
     30 N3         12.6157    4.3416   -1.8572 N.pl3     1 <0>        -0.3563
     31 C22        13.8985    4.2704   -2.4155 C.ar      1 <0>         0.1547
     32 C23        14.7712    3.2627   -2.0263 C.ar      1 <0>        -0.1092
     33 C24        16.0354    3.1943   -2.5778 C.ar      1 <0>        -0.1272
     34 C25        16.4331    4.1296   -3.5186 C.ar      1 <0>         0.0948
     35 C26        15.5643    5.1352   -3.9082 C.ar      1 <0>        -0.1298
     36 C27        14.2972    5.2038   -3.3632 C.ar      1 <0>        -0.0875
     37 F4         17.6704    4.0611   -4.0566 F         1 <0>        -0.1335
     38 H1          1.7134    1.2572    6.9383 H         1 <0>         0.1289
     39 H2          2.2701   -1.1362    7.0964 H         1 <0>         0.1307
     40 H3          3.9714   -2.1057    5.6035 H         1 <0>         0.1309
     41 H4          4.5646    1.7130    3.7994 H         1 <0>         0.1304
     42 H5          2.8643    2.6829    5.2932 H         1 <0>         0.1306
     43 H6          6.1533   -0.0883    3.4459 H         1 <0>         0.1419
     44 H7          5.9061   -1.6819    4.1992 H         1 <0>         0.1451
     45 H8          5.9046   -2.9462    1.0034 H         1 <0>         0.4290
     46 H9          5.5910   -0.2374   -0.7029 H         1 <0>         0.1507
     47 H10         7.3266    1.3105   -1.5001 H         1 <0>         0.1479
     48 H11         8.3203   -1.8195    2.1867 H         1 <0>         0.1489
     49 H12        11.2137   -0.0245   -1.1441 H         1 <0>         0.1491
     50 H13        12.9546    1.4833   -1.9398 H         1 <0>         0.1335
     51 H14         8.7147    3.3067   -0.1400 H         1 <0>         0.1387
     52 H15        10.0048    5.9549   -0.7548 H         1 <0>         0.2063
     53 H16        14.4616    2.5334   -1.2924 H         1 <0>         0.1415
     54 H17        16.7146    2.4110   -2.2751 H         1 <0>         0.1472
     55 H18        15.8763    5.8636   -4.6419 H         1 <0>         0.1466
     56 H19        13.6183    5.9854   -3.6709 H         1 <0>         0.1436
@<TRIPOS>BOND
     1    1    6 ar
     2    1    2 ar
     3    1   38 1
     4    2    3 ar
     5    2   39 1
     6    3    4 ar
     7    3   40 1
     8    4    5 ar
     9    4    7 1
    10    5    6 ar
    11    5   41 1
    12    6   42 1
    13    7    8 1
    14    7   43 1
    15    7   44 1
    16    8    9 2
    17    8   10 2
    18    8   11 1
    19   11   12 1
    20   11   45 1
    21   12   17 ar
    22   12   13 ar
    23   13   14 ar
    24   13   46 1
    25   14   15 ar
    26   14   47 1
    27   15   16 ar
    28   15   22 1
    29   16   17 ar
    30   16   18 1
    31   17   48 1
    32   18   19 1
    33   18   20 1
    34   18   21 1
    35   22   27 ar
    36   22   23 ar
    37   23   24 ar
    38   23   49 1
    39   24   25 ar
    40   24   50 1
    41   25   30 1
    42   25   26 ar
    43   26   27 ar
    44   26   28 1
    45   27   51 1
    46   28   29 2
    47   28   52 1
    48   29   30 1
    49   30   31 1
    50   31   36 ar
    51   31   32 ar
    52   32   33 ar
    53   32   53 1
    54   33   34 ar
    55   33   54 1
    56   34   35 ar
    57   34   37 1
    58   35   36 ar
    59   35   55 1
    60   36   56 1
@<TRIPOS>MOLECULE
ZINC38795962
   52    53     0     0     0
SMALL
USER_CHARGES

@<TRIPOS>ATOM
      1 C1          0.1246    1.4807    0.3670 C.3       1 <0>        -0.1182
      2 C2          0.0719   -0.0133    0.1763 C.2       1 <0>         0.2460
      3 C3         -1.1186   -0.6363    0.1396 C.2       1 <0>        -0.2642
      4 C4         -1.2194   -2.1224   -0.0567 C.3       1 <0>         0.0884
      5 H1         -1.9588   -2.5264    0.6347 H         1 <0>         0.1009
      6 C5          0.1062   -2.7833    0.1950 C.2       1 <0>        -0.2313
      7 C6          1.2476   -2.0741    0.2295 C.2       1 <0>         0.1890
      8 N1          1.2363   -0.7182    0.0369 N.pl3     1 <0>        -0.6297
      9 C7          2.5556   -2.7805    0.4771 C.3       1 <0>        -0.1329
     10 C8          0.1541   -4.1816    0.4006 C.2       1 <0>         0.5348
     11 O1         -0.2294   -4.6552    1.4539 O.2       1 <0>        -0.4891
     12 O2          0.6250   -4.9907   -0.5713 O.3       1 <0>        -0.3390
     13 C9          0.6446   -6.3927   -0.2954 C.3       1 <0>         0.1145
     14 C10        -0.7788   -6.8766   -0.0115 C.3       1 <0>        -0.1865
     15 C11         1.2065   -7.1427   -1.5048 C.3       1 <0>        -0.1402
     16 C12         1.5272   -6.6599    0.9255 C.3       1 <0>        -0.1863
     17 C13        -1.6545   -2.4078   -1.4710 C.ar      1 <0>        -0.0727
     18 C14        -0.8768   -1.9836   -2.5324 C.ar      1 <0>        -0.0491
     19 C15        -1.2759   -2.2454   -3.8295 C.ar      1 <0>        -0.1162
     20 C16        -2.4526   -2.9317   -4.0656 C.ar      1 <0>        -0.0564
     21 C17        -3.2297   -3.3565   -3.0044 C.ar      1 <0>        -0.0465
     22 C18        -2.8283   -3.0984   -1.7068 C.ar      1 <0>        -0.0385
     23 N2         -4.4898   -4.0908   -3.2572 N.pl3     1 <0>         0.0339
     24 O3         -4.8393   -4.3190   -4.3918 O.2       1 <0>        -0.1598
     25 O4         -5.1695   -4.4624   -2.3289 O.3       1 <0>        -0.1565
     26 C19        -2.3019    0.1235    0.2895 C.2       1 <0>         0.5194
     27 O5         -2.2354    1.3279    0.4495 O.2       1 <0>        -0.5194
     28 O6         -3.5048   -0.4873    0.2549 O.3       1 <0>        -0.3507
     29 C20        -4.6580    0.3417    0.4130 C.3       1 <0>         0.0364
     30 H2          1.1635    1.8106    0.3665 H         1 <0>         0.0654
     31 H3         -0.4123    1.9699   -0.4457 H         1 <0>         0.1037
     32 H4         -0.3392    1.7421    1.3181 H         1 <0>         0.1061
     33 H5          2.0564   -0.2549   -0.1949 H         1 <0>         0.4249
     34 H6          2.9612   -3.1364   -0.4700 H         1 <0>         0.0975
     35 H7          3.2608   -2.0885    0.9373 H         1 <0>         0.0853
     36 H8          2.3907   -3.6276    1.1429 H         1 <0>         0.0869
     37 H9         -1.4075   -6.6863   -0.8813 H         1 <0>         0.0594
     38 H10        -0.7638   -7.9460    0.1990 H         1 <0>         0.0727
     39 H11        -1.1791   -6.3423    0.8502 H         1 <0>         0.0841
     40 H12         2.2206   -6.7980   -1.7071 H         1 <0>         0.0664
     41 H13         1.2215   -8.2121   -1.2944 H         1 <0>         0.0794
     42 H14         0.5778   -6.9524   -2.3746 H         1 <0>         0.0654
     43 H15         1.1269   -6.1256    1.7871 H         1 <0>         0.0833
     44 H16         1.5422   -7.7293    1.1360 H         1 <0>         0.0729
     45 H17         2.5413   -6.3152    0.7232 H         1 <0>         0.0609
     46 H18         0.0425   -1.4475   -2.3480 H         1 <0>         0.1322
     47 H19        -0.6687   -1.9134   -4.6587 H         1 <0>         0.1467
     48 H20        -2.7648   -3.1356   -5.0792 H         1 <0>         0.1527
     49 H21        -3.4335   -3.4336   -0.8776 H         1 <0>         0.1523
     50 H22        -5.5568   -0.2732    0.3657 H         1 <0>         0.1015
     51 H23        -4.6133    0.8463    1.3781 H         1 <0>         0.0612
     52 H24        -4.6836    1.0844   -0.3845 H         1 <0>         0.0588
@<TRIPOS>BOND
     1    1    2 1
     2    1   30 1
     3    1   31 1
     4    1   32 1
     5    2    8 1
     6    2    3 2
     7    3    4 1
     8    3   26 1
     9    4    5 1
    10    4    6 1
    11    4   17 1
    12    6    7 2
    13    6   10 1
    14    7    8 1
    15    7    9 1
    16    8   33 1
    17    9   34 1
    18    9   35 1
    19    9   36 1
    20   10   11 2
    21   10   12 1
    22   12   13 1
    23   13   14 1
    24   13   15 1
    25   13   16 1
    26   14   37 1
    27   14   38 1
    28   14   39 1
    29   15   40 1
    30   15   41 1
    31   15   42 1
    32   16   43 1
    33   16   44 1
    34   16   45 1
    35   17   22 ar
    36   17   18 ar
    37   18   19 ar
    38   18   46 1
    39   19   20 ar
    40   19   47 1
    41   20   21 ar
    42   20   48 1
    43   21   22 ar
    44   21   23 1
    45   22   49 1
    46   23   24 2
    47   23   25 1
    48   26   27 2
    49   26   28 1
    50   28   29 1
    51   29   50 1
    52   29   51 1
    53   29   52 1
@<TRIPOS>MOLECULE
ZINC03938677
   65    69     0     0     0
SMALL
USER_CHARGES

@<TRIPOS>ATOM
      1 C1          2.4975    1.0284    0.8552 C.3       1 <0>        -0.1396
      2 C2          1.8419   -0.3032    0.4836 C.3       1 <0>        -0.0798
      3 H1          2.3875   -0.7730   -0.3347 H         1 <0>         0.0894
      4 C3          0.3615   -0.0726    0.0743 C.3       1 <0>        -0.1089
      5 C4         -0.4006   -0.3445    1.3760 C.3       1 <0>        -0.0899
      6 H2         -0.2894    0.4945    2.0628 H         1 <0>         0.0916
      7 C5         -1.8661   -0.7073    1.2198 C.3       1 <0>        -0.0792
      8 H3         -1.9614   -1.5883    0.5851 H         1 <0>         0.1164
      9 C6         -2.6272    0.4637    0.5951 C.3       1 <0>        -0.1191
     10 C7         -4.0977    0.0795    0.4026 C.3       1 <0>        -0.0938
     11 C8         -4.6478   -0.3687    1.7437 C.2       1 <0>        -0.0284
     12 C9         -5.7700    0.1762    2.1924 C.2       1 <0>        -0.2192
     13 C10        -6.3232   -0.2180    3.4973 C.2       1 <0>         0.4089
     14 O1         -7.3728    0.2514    3.8957 O.2       1 <0>        -0.4571
     15 C11        -5.5777   -1.1934    4.3107 C.2       1 <0>        -0.2084
     16 C12        -4.4627   -1.7295    3.8398 C.2       1 <0>        -0.0679
     17 C13        -3.8884   -1.4180    2.5004 C.3       1 <0>        -0.0077
     18 C14        -2.4164   -1.0157    2.6215 C.3       1 <0>         0.0633
     19 C15        -1.6246   -2.1252    3.3066 C.3       1 <0>         0.1152
     20 H4         -1.9887   -2.2438    4.3271 H         1 <0>         0.0685
     21 C16        -0.1208   -1.8098    3.3443 C.3       1 <0>        -0.1529
     22 C17         0.3432   -1.5933    1.9210 C.3       1 <0>        -0.0643
     23 C18         1.8148   -1.2441    1.7139 C.3       1 <0>         0.1004
     24 C19         2.6142   -2.4908    1.4354 C.2       1 <0>         0.3320
     25 O2          2.0989   -3.5768    1.5506 O.2       1 <0>        -0.3714
     26 C20         4.0568   -2.3823    1.0133 C.3       1 <0>        -0.0957
     27 Cl1         4.6917   -4.0223    0.6156 Cl        1 <0>        -0.1360
     28 O3          2.3306   -0.5705    2.8638 O.3       1 <0>        -0.3108
     29 C21         2.4971   -1.3070    3.9816 C.2       1 <0>         0.5424
     30 O4          2.3144   -2.5091    3.9507 O.2       1 <0>        -0.4632
     31 C22         2.8980   -0.6592    5.2326 C.2       1 <0>        -0.0746
     32 C23         3.1059   -1.2840    6.4298 C.2       1 <0>        -0.0968
     33 C24         3.4741   -0.2874    7.3462 C.2       1 <0>        -0.2278
     34 C25         3.4750    0.8874    6.6777 C.2       1 <0>         0.0155
     35 O5          3.1323    0.6587    5.4035 O.3       1 <0>        -0.1496
     36 C26        -0.0241   -2.8215    1.0858 C.3       1 <0>        -0.1455
     37 O6         -1.8251   -3.3484    2.5954 O.3       1 <0>        -0.5424
     38 Cl2        -2.3143    0.4694    3.6388 Cl        1 <0>        -0.1544
     39 C27        -3.9129   -2.7029    1.6701 C.3       1 <0>        -0.1348
     40 H5          3.4926    0.8431    1.2596 H         1 <0>         0.0614
     41 H6          2.5771    1.6546   -0.0334 H         1 <0>         0.0642
     42 H7          1.8897    1.5361    1.6042 H         1 <0>         0.0674
     43 H8          0.2080    0.9550   -0.2551 H         1 <0>         0.0831
     44 H9          0.0620   -0.7765   -0.7022 H         1 <0>         0.0780
     45 H10        -2.5619    1.3308    1.2524 H         1 <0>         0.0779
     46 H11        -2.1867    0.7083   -0.3715 H         1 <0>         0.0808
     47 H12        -4.6595    0.9419    0.0440 H         1 <0>         0.0841
     48 H13        -4.1739   -0.7354   -0.3173 H         1 <0>         0.0870
     49 H14        -6.2822    0.9161    1.5951 H         1 <0>         0.1381
     50 H15        -5.9397   -1.4706    5.2897 H         1 <0>         0.1396
     51 H16        -3.9367   -2.4359    4.4648 H         1 <0>         0.1262
     52 H17         0.0536   -0.9016    3.9213 H         1 <0>         0.0731
     53 H18         0.4224   -2.6435    3.7891 H         1 <0>         0.1035
     54 H19         4.1311   -1.7411    0.1349 H         1 <0>         0.1254
     55 H20         4.6422   -1.9535    1.8267 H         1 <0>         0.1209
     56 H21         3.0062   -2.3403    6.6316 H         1 <0>         0.1653
     57 H22         3.7118   -0.4317    8.3898 H         1 <0>         0.1636
     58 H23         3.7159    1.8515    7.1007 H         1 <0>         0.2168
     59 H24         0.5159   -2.7921    0.1394 H         1 <0>         0.0361
     60 H25         0.2469   -3.7257    1.6308 H         1 <0>         0.0878
     61 H26        -1.0967   -2.8217    0.8922 H         1 <0>         0.0878
     62 H27        -1.3525   -4.1038    2.9711 H         1 <0>         0.3801
     63 H28        -3.1479   -2.6495    0.8955 H         1 <0>         0.0793
     64 H29        -3.7158   -3.5575    2.3172 H         1 <0>         0.0939
     65 H30        -4.8926   -2.8169    1.2060 H         1 <0>         0.0539
@<TRIPOS>BOND
     1    1    2 1
     2    1   40 1
     3    1   41 1
     4    1   42 1
     5    2    3 1
     6    2   23 1
     7    2    4 1
     8    4    5 1
     9    4   43 1
    10    4   44 1
    11    5    6 1
    12    5   22 1
    13    5    7 1
    14    7    8 1
    15    7   18 1
    16    7    9 1
    17    9   10 1
    18    9   45 1
    19    9   46 1
    20   10   11 1
    21   10   47 1
    22   10   48 1
    23   11   17 1
    24   11   12 2
    25   12   13 1
    26   12   49 1
    27   13   14 2
    28   13   15 1
    29   15   16 2
    30   15   50 1
    31   16   17 1
    32   16   51 1
    33   17   18 1
    34   17   39 1
    35   18   19 1
    36   18   38 1
    37   19   20 1
    38   19   21 1
    39   19   37 1
    40   21   22 1
    41   21   52 1
    42   21   53 1
    43   22   23 1
    44   22   36 1
    45   23   24 1
    46   23   28 1
    47   24   25 2
    48   24   26 1
    49   26   27 1
    50   26   54 1
    51   26   55 1
    52   28   29 1
    53   29   30 2
    54   29   31 1
    55   31   35 1
    56   31   32 2
    57   32   33 1
    58   32   56 1
    59   33   34 2
    60   33   57 1
    61   34   35 1
    62   34   58 1
    63   36   59 1
    64   36   60 1
    65   36   61 1
    66   37   62 1
    67   39   63 1
    68   39   64 1
    69   39   65 1
@<TRIPOS>MOLECULE
ZINC16291824
   47    49     0     0     0
SMALL
USER_CHARGES
(3R)-3-[(4-nitrophenyl)amino]-3-phenyl-1-(p-tolyl)propan-1-one
@<TRIPOS>ATOM
      1 C1          1.3135    0.1806    6.4426 C.3       1 <0>        -0.1243
      2 C2          0.7810    0.5454    5.0809 C.ar      1 <0>        -0.0487
      3 C3         -0.3561    1.3270    4.9731 C.ar      1 <0>        -0.1339
      4 C4         -0.8495    1.6651    3.7307 C.ar      1 <0>        -0.0539
      5 C5         -0.1978    1.2160    2.5777 C.ar      1 <0>        -0.1816
      6 C6          0.9477    0.4222    2.6950 C.ar      1 <0>        -0.0691
      7 C7          1.4320    0.0975    3.9446 C.ar      1 <0>        -0.1344
      8 C8         -0.7181    1.5718    1.2479 C.2       1 <0>         0.3937
      9 O1         -1.7143    2.2560    1.1498 O.2       1 <0>        -0.4369
     10 C9         -0.0127    1.0858    0.0080 C.3       1 <0>        -0.1613
     11 C10        -0.7527    1.5927   -1.2315 C.3       1 <0>         0.1978
     12 H1         -1.7985    1.2898   -1.1795 H         1 <0>         0.1012
     13 C11        -0.1210    1.0071   -2.4681 C.ar      1 <0>        -0.1115
     14 C12         1.0366    1.5613   -2.9816 C.ar      1 <0>        -0.0991
     15 C13         1.6184    1.0214   -4.1134 C.ar      1 <0>        -0.1184
     16 C14         1.0373   -0.0667   -4.7372 C.ar      1 <0>        -0.1131
     17 C15        -0.1229   -0.6180   -4.2265 C.ar      1 <0>        -0.1157
     18 C16        -0.7024   -0.0808   -3.0922 C.ar      1 <0>        -0.1085
     19 N1         -0.6697    3.0543   -1.2862 N.pl3     1 <0>        -0.7131
     20 C17        -1.6461    3.7842   -1.9680 C.ar      1 <0>         0.2803
     21 C18        -2.6933    3.1254   -2.5996 C.ar      1 <0>        -0.1922
     22 C19        -3.6601    3.8506   -3.2680 C.ar      1 <0>        -0.0038
     23 C20        -3.5803    5.2302   -3.3186 C.ar      1 <0>        -0.1082
     24 C21        -2.5360    5.8888   -2.6957 C.ar      1 <0>        -0.0042
     25 C22        -1.5689    5.1702   -2.0208 C.ar      1 <0>        -0.1955
     26 N2         -4.6152    6.0037   -4.0406 N.pl3     1 <0>         0.0405
     27 O2         -4.5464    7.2189   -4.0857 O.2       1 <0>        -0.1766
     28 O3         -5.5356    5.4250   -4.5897 O.3       1 <0>        -0.1766
     29 H2          0.8598   -0.7542    6.7717 H         1 <0>         0.0779
     30 H3          2.3956    0.0603    6.3894 H         1 <0>         0.0717
     31 H4          1.0704    0.9719    7.1518 H         1 <0>         0.0716
     32 H5         -0.8585    1.6727    5.8645 H         1 <0>         0.1303
     33 H6         -1.7368    2.2753    3.6483 H         1 <0>         0.1338
     34 H7          1.4539    0.0679    1.8092 H         1 <0>         0.1313
     35 H8          2.3192   -0.5114    4.0368 H         1 <0>         0.1304
     36 H9          0.0008    0.0859    0.0025 H         1 <0>         0.1071
     37 H10         1.0099    1.4631    0.0003 H         1 <0>         0.1088
     38 H11         1.4883    2.4140   -2.4965 H         1 <0>         0.1186
     39 H12         2.5250    1.4519   -4.5122 H         1 <0>         0.1232
     40 H13         1.4900   -0.4864   -5.6234 H         1 <0>         0.1237
     41 H14        -0.5769   -1.4682   -4.7138 H         1 <0>         0.1254
     42 H15        -1.6090   -0.5113   -2.6934 H         1 <0>         0.1236
     43 H16         0.0633    3.5151   -0.8489 H         1 <0>         0.4048
     44 H17        -2.7538    2.0477   -2.5642 H         1 <0>         0.1412
     45 H18        -4.4773    3.3393   -3.7552 H         1 <0>         0.1503
     46 H19        -2.4768    6.9664   -2.7369 H         1 <0>         0.1511
     47 H20        -0.7538    5.6851   -1.5342 H         1 <0>         0.1421
@<TRIPOS>BOND
     1    1    2 1
     2    1   29 1
     3    1   30 1
     4    1   31 1
     5    2    7 ar
     6    2    3 ar
     7    3    4 ar
     8    3   32 1
     9    4    5 ar
    10    4   33 1
    11    5    6 ar
    12    5    8 1
    13    6    7 ar
    14    6   34 1
    15    7   35 1
    16    8    9 2
    17    8   10 1
    18   10   11 1
    19   10   36 1
    20   10   37 1
    21   11   12 1
    22   11   13 1
    23   11   19 1
    24   13   18 ar
    25   13   14 ar
    26   14   15 ar
    27   14   38 1
    28   15   16 ar
    29   15   39 1
    30   16   17 ar
    31   16   40 1
    32   17   18 ar
    33   17   41 1
    34   18   42 1
    35   19   20 1
    36   19   43 1
    37   20   25 ar
    38   20   21 ar
    39   21   22 ar
    40   21   44 1
    41   22   23 ar
    42   22   45 1
    43   23   24 ar
    44   23   26 1
    45   24   25 ar
    46   24   46 1
    47   25   47 1
    48   26   27 2
    49   26   28 1
@<TRIPOS>MOLECULE
ZINC16291826
   47    49     0     0     0
SMALL
USER_CHARGES
(3S)-3-[(4-nitrophenyl)amino]-3-phenyl-1-(p-tolyl)propan-1-one
@<TRIPOS>ATOM
      1 C1          7.4635    5.4259    6.3220 C.3       1 <0>        -0.1243
      2 C2          6.9090    4.8724    5.0347 C.ar      1 <0>        -0.0488
      3 C3          7.6453    4.9758    3.8673 C.ar      1 <0>        -0.1339
      4 C4          7.1448    4.4718    2.6854 C.ar      1 <0>        -0.0540
      5 C5          5.8898    3.8550    2.6684 C.ar      1 <0>        -0.1815
      6 C6          5.1497    3.7591    3.8511 C.ar      1 <0>        -0.0691
      7 C7          5.6665    4.2629    5.0261 C.ar      1 <0>        -0.1344
      8 C8          5.3481    3.3149    1.4111 C.2       1 <0>         0.3936
      9 O1          5.9902    3.4042    0.3864 O.2       1 <0>        -0.4370
     10 C9          3.9953    2.6509    1.3972 C.3       1 <0>        -0.1623
     11 C10         3.6720    2.1819   -0.0228 C.3       1 <0>         0.1974
     12 H1          4.4750    1.5400   -0.3851 H         1 <0>         0.1014
     13 C11         2.3773    1.4107   -0.0145 C.ar      1 <0>        -0.1111
     14 C12         1.1710    2.0855    0.0021 C.ar      1 <0>        -0.0992
     15 C13        -0.0167    1.3781    0.0096 C.ar      1 <0>        -0.1184
     16 C14         0.0021   -0.0041    0.0020 C.ar      1 <0>        -0.1131
     17 C15         1.2084   -0.6789   -0.0132 C.ar      1 <0>        -0.1157
     18 C16         2.3960    0.0285   -0.0217 C.ar      1 <0>        -0.1085
     19 N1          3.5418    3.3453   -0.9036 N.pl3     1 <0>        -0.7135
     20 C17         3.7680    3.2115   -2.2754 C.ar      1 <0>         0.2805
     21 C18         4.1221    1.9772   -2.8054 C.ar      1 <0>        -0.1920
     22 C19         4.3394    1.8472   -4.1630 C.ar      1 <0>        -0.0038
     23 C20         4.2161    2.9464   -4.9930 C.ar      1 <0>        -0.1082
     24 C21         3.8693    4.1777   -4.4679 C.ar      1 <0>        -0.0042
     25 C22         3.6450    4.3136   -3.1120 C.ar      1 <0>        -0.1956
     26 N2          4.4562    2.8046   -6.4465 N.pl3     1 <0>         0.0405
     27 O2          4.3484    3.7720   -7.1787 O.2       1 <0>        -0.1767
     28 O3          4.7617    1.7207   -6.9105 O.3       1 <0>        -0.1764
     29 H2          7.1546    6.4652    6.4335 H         1 <0>         0.0777
     30 H3          7.0851    4.8423    7.1613 H         1 <0>         0.0718
     31 H4          8.5520    5.3704    6.3024 H         1 <0>         0.0717
     32 H5          8.6141    5.4528    3.8820 H         1 <0>         0.1303
     33 H6          7.7206    4.5530    1.7753 H         1 <0>         0.1338
     34 H7          4.1779    3.2881    3.8451 H         1 <0>         0.1313
     35 H8          5.0983    4.1854    5.9413 H         1 <0>         0.1304
     36 H9          3.3005    3.3037    1.6990 H         1 <0>         0.0977
     37 H10         4.0046    1.7933    2.0698 H         1 <0>         0.1200
     38 H11         1.1563    3.1654    0.0077 H         1 <0>         0.1183
     39 H12        -0.9592    1.9054    0.0170 H         1 <0>         0.1231
     40 H13        -0.9258   -0.5567    0.0083 H         1 <0>         0.1236
     41 H14         1.2231   -1.7588   -0.0188 H         1 <0>         0.1254
     42 H15         3.3385   -0.4987   -0.0335 H         1 <0>         0.1239
     43 H16         3.2985    4.2086   -0.5341 H         1 <0>         0.4046
     44 H17         4.2229    1.1193   -2.1571 H         1 <0>         0.1414
     45 H18         4.6100    0.8868   -4.5764 H         1 <0>         0.1503
     46 H19         3.7735    5.0341   -5.1189 H         1 <0>         0.1511
     47 H20         3.3739    5.2755   -2.7026 H         1 <0>         0.1420
@<TRIPOS>BOND
     1    1    2 1
     2    1   29 1
     3    1   30 1
     4    1   31 1
     5    2    7 ar
     6    2    3 ar
     7    3    4 ar
     8    3   32 1
     9    4    5 ar
    10    4   33 1
    11    5    6 ar
    12    5    8 1
    13    6    7 ar
    14    6   34 1
    15    7   35 1
    16    8    9 2
    17    8   10 1
    18   10   11 1
    19   10   36 1
    20   10   37 1
    21   11   12 1
    22   11   13 1
    23   11   19 1
    24   13   18 ar
    25   13   14 ar
    26   14   15 ar
    27   14   38 1
    28   15   16 ar
    29   15   39 1
    30   16   17 ar
    31   16   40 1
    32   17   18 ar
    33   17   41 1
    34   18   42 1
    35   19   20 1
    36   19   43 1
    37   20   25 ar
    38   20   21 ar
    39   21   22 ar
    40   21   44 1
    41   22   23 ar
    42   22   45 1
    43   23   24 ar
    44   23   26 1
    45   24   25 ar
    46   24   46 1
    47   25   47 1
    48   26   27 2
    49   26   28 1
@<TRIPOS>MOLECULE
ZINC13860657
   33    35     0     0     0
SMALL
USER_CHARGES
5-(3-chlorophenyl)-3,3-dimethyl-indolin-2-one
@<TRIPOS>ATOM
      1 C1         -0.0127    1.0858    0.0080 C.3       1 <0>        -0.1277
      2 C2         -0.7288    1.5792    1.2668 C.3       1 <0>        -0.0540
      3 C3         -0.0162    1.0912    2.5074 C.ar      1 <0>        -0.1292
      4 C4          0.2488   -0.1653    2.9974 C.ar      1 <0>        -0.0478
      5 C5          0.9437   -0.3091    4.1984 C.ar      1 <0>        -0.0686
      6 C6          1.3629    0.8260    4.8910 C.ar      1 <0>        -0.0704
      7 C7          1.0931    2.0810    4.3935 C.ar      1 <0>        -0.1337
      8 C8          0.3987    2.2276    3.1925 C.ar      1 <0>         0.1500
      9 N1          0.0137    3.3751    2.4992 N.am      1 <0>        -0.6603
     10 C9         -0.6484    3.0877    1.3661 C.2       1 <0>         0.5352
     11 O1         -1.0970    3.8868    0.5716 O.2       1 <0>        -0.4917
     12 C10         1.2349   -1.6611    4.7351 C.ar      1 <0>        -0.0242
     13 C11         0.8098   -2.7945    4.0440 C.ar      1 <0>        -0.1096
     14 C12         1.0873   -4.0500    4.5449 C.ar      1 <0>        -0.1007
     15 C13         1.7769   -4.1856    5.7363 C.ar      1 <0>        -0.1116
     16 C14         2.1971   -3.0639    6.4300 C.ar      1 <0>        -0.0296
     17 C15         1.9292   -1.8024    5.9348 C.ar      1 <0>        -0.1059
     18 Cl1         3.0615   -3.2427    7.9249 Cl        1 <0>        -0.0662
     19 C16        -2.1870    1.1159    1.2689 C.3       1 <0>        -0.1278
     20 H1          0.0021   -0.0041    0.0020 H         1 <0>         0.0743
     21 H2          1.0099    1.4631    0.0003 H         1 <0>         0.0613
     22 H3         -0.5399    1.4469   -0.8751 H         1 <0>         0.0732
     23 H4         -0.0800   -1.0389    2.4541 H         1 <0>         0.1335
     24 H5          1.9009    0.7203    5.8214 H         1 <0>         0.1360
     25 H6          1.4208    2.9559    4.9353 H         1 <0>         0.1320
     26 H7          0.2019    4.2775    2.8011 H         1 <0>         0.4148
     27 H8          0.2677   -2.6902    3.1157 H         1 <0>         0.1324
     28 H9          0.7615   -4.9286    4.0078 H         1 <0>         0.1358
     29 H10         1.9879   -5.1702    6.1268 H         1 <0>         0.1349
     30 H11         2.2575   -0.9275    6.4762 H         1 <0>         0.1365
     31 H12        -2.2221    0.0265    1.2576 H         1 <0>         0.0744
     32 H13        -2.6846    1.4861    2.1652 H         1 <0>         0.0615
     33 H14        -2.6931    1.5049    0.3853 H         1 <0>         0.0731
@<TRIPOS>BOND
     1    1    2 1
     2    1   20 1
     3    1   21 1
     4    1   22 1
     5    2   10 1
     6    2    3 1
     7    2   19 1
     8    3    8 ar
     9    3    4 ar
    10    4    5 ar
    11    4   23 1
    12    5    6 ar
    13    5   12 1
    14    6    7 ar
    15    6   24 1
    16    7    8 ar
    17    7   25 1
    18    8    9 1
    19    9   10 am
    20    9   26 1
    21   10   11 2
    22   12   17 ar
    23   12   13 ar
    24   13   14 ar
    25   13   27 1
    26   14   15 ar
    27   14   28 1
    28   15   16 ar
    29   15   29 1
    30   16   17 ar
    31   16   18 1
    32   17   30 1
    33   19   31 1
    34   19   32 1
    35   19   33 1
@<TRIPOS>MOLECULE
ZINC08660419
   67    71     0     0     0
SMALL
USER_CHARGES
11-(4-dimethylaminophenyl)-17-hydroxy-13-methyl-17-prop-1-ynyl-1,2,6,7,8,11,12,14,15,16-decahydrocyclopenta[a]phenanthren-3-one
@<TRIPOS>ATOM
      1 C1          0.7869    0.1155   -4.5240 C.3       1 <0>        -0.0462
      2 C2          0.5900    0.9727   -3.3436 C.1       1 <0>        -0.1645
      3 C3          0.4330    1.6563   -2.4022 C.1       1 <0>        -0.2108
      4 C4          0.2361    2.5134   -1.2218 C.3       1 <0>         0.2516
      5 C5          1.2880    3.6384   -1.2035 C.3       1 <0>        -0.1460
      6 C6          2.1300    3.4350    0.0772 C.3       1 <0>        -0.1158
      7 C7          1.9355    1.9425    0.4012 C.3       1 <0>        -0.0751
      8 H1          2.5427    1.3688   -0.2990 H         1 <0>         0.0756
      9 C8          0.4547    1.6914    0.0764 C.3       1 <0>        -0.0266
     10 C9         -0.4117    2.3256    1.1670 C.3       1 <0>        -0.0878
     11 C10        -0.1997    1.6805    2.5047 C.3       1 <0>        -0.0025
     12 H2         -0.8001    0.7718    2.5494 H         1 <0>         0.0872
     13 C11         1.2316    1.3258    2.7607 C.2       1 <0>        -0.0418
     14 C12         1.5404    0.7472    3.9335 C.2       1 <0>        -0.1294
     15 C13         0.4525    0.4472    4.9374 C.3       1 <0>        -0.0945
     16 C14         0.9498    0.8563    6.3279 C.3       1 <0>        -0.1505
     17 C15         2.3106    0.2641    6.5759 C.2       1 <0>         0.3859
     18 O1          2.6042   -0.0954    7.6983 O.2       1 <0>        -0.4758
     19 C16         3.2491    0.1171    5.5432 C.2       1 <0>        -0.2574
     20 C17         2.9152    0.3774    4.2526 C.2       1 <0>         0.0321
     21 C18         3.9597    0.2695    3.1733 C.3       1 <0>        -0.0979
     22 C19         3.3016    0.3825    1.7969 C.3       1 <0>        -0.1123
     23 C20         2.3424    1.5764    1.7924 C.3       1 <0>        -0.0429
     24 H3          2.9133    2.4186    2.1836 H         1 <0>         0.0813
     25 C21        -0.6667    2.6234    3.5835 C.ar      1 <0>        -0.1252
     26 C22        -1.9173    2.4583    4.1502 C.ar      1 <0>        -0.0698
     27 C23        -2.3460    3.3173    5.1430 C.ar      1 <0>        -0.1952
     28 C24        -1.5241    4.3549    5.5643 C.ar      1 <0>         0.2151
     29 C25        -0.2708    4.5213    4.9889 C.ar      1 <0>        -0.1951
     30 C26         0.1541    3.6553    4.0005 C.ar      1 <0>        -0.0584
     31 N1         -1.9567    5.2286    6.5644 N.pl3     1 <0>        -0.6386
     32 C27        -1.1430    6.3931    6.9220 C.3       1 <0>         0.0924
     33 C28        -3.2242    4.9804    7.2559 C.3       1 <0>         0.0888
     34 C29         0.1462    0.2052   -0.1159 C.3       1 <0>        -0.1349
     35 O2         -1.0793    3.0716   -1.2336 O.3       1 <0>        -0.5403
     36 H4          0.6311    0.7024   -5.4292 H         1 <0>         0.0815
     37 H5          1.8018   -0.2822   -4.5190 H         1 <0>         0.0822
     38 H6          0.0737   -0.7083   -4.4978 H         1 <0>         0.0820
     39 H7          0.7949    4.6101   -1.1758 H         1 <0>         0.0815
     40 H8          1.9256    3.5677   -2.0847 H         1 <0>         0.0725
     41 H9          1.7511    4.0565    0.8885 H         1 <0>         0.0745
     42 H10         3.1806    3.6522   -0.1156 H         1 <0>         0.0724
     43 H11        -0.1669    3.3848    1.2459 H         1 <0>         0.0717
     44 H12        -1.4617    2.2228    0.8931 H         1 <0>         0.0782
     45 H13        -0.4437    1.0149    4.6872 H         1 <0>         0.1092
     46 H14         0.2288   -0.6195    4.9275 H         1 <0>         0.0741
     47 H15         0.3122    0.5216    7.0217 H         1 <0>         0.0807
     48 H16         1.0116    1.9431    6.3847 H         1 <0>         0.0968
     49 H17         4.2520   -0.2074    5.7782 H         1 <0>         0.1316
     50 H18         4.6881    1.0715    3.2931 H         1 <0>         0.0899
     51 H19         4.4649   -0.6930    3.2534 H         1 <0>         0.0896
     52 H20         2.7468   -0.5310    1.5827 H         1 <0>         0.0708
     53 H21         4.0693    0.5294    1.0373 H         1 <0>         0.0770
     54 H22        -2.5577    1.6543    3.8189 H         1 <0>         0.1217
     55 H23        -3.3211    3.1851    5.5883 H         1 <0>         0.1233
     56 H24         0.3706    5.3272    5.3138 H         1 <0>         0.1205
     57 H25         1.1285    3.7839    3.5530 H         1 <0>         0.1167
     58 H26        -1.4355    7.2436    6.3062 H         1 <0>         0.0482
     59 H27        -1.2977    6.6355    7.9734 H         1 <0>         0.0661
     60 H28        -0.0903    6.1667    6.7525 H         1 <0>         0.0686
     61 H29        -3.6391    4.0288    6.9236 H         1 <0>         0.0779
     62 H30        -3.0505    4.9453    8.3314 H         1 <0>         0.0562
     63 H31        -3.9260    5.7824    7.0272 H         1 <0>         0.0519
     64 H32         0.3878   -0.3372    0.7982 H         1 <0>         0.0621
     65 H33        -0.9125    0.0804   -0.3434 H         1 <0>         0.0594
     66 H34         0.7434   -0.1863   -0.9394 H         1 <0>         0.0582
     67 H35        -1.2765    3.5972   -2.0210 H         1 <0>         0.3781
@<TRIPOS>BOND
     1    1    2 1
     2    1   36 1
     3    1   37 1
     4    1   38 1
     5    2    3 3
     6    3    4 1
     7    4    9 1
     8    4    5 1
     9    4   35 1
    10    5    6 1
    11    5   39 1
    12    5   40 1
    13    6    7 1
    14    6   41 1
    15    6   42 1
    16    7    8 1
    17    7   23 1
    18    7    9 1
    19    9   10 1
    20    9   34 1
    21   10   11 1
    22   10   43 1
    23   10   44 1
    24   11   12 1
    25   11   13 1
    26   11   25 1
    27   13   23 1
    28   13   14 2
    29   14   20 1
    30   14   15 1
    31   15   16 1
    32   15   45 1
    33   15   46 1
    34   16   17 1
    35   16   47 1
    36   16   48 1
    37   17   18 2
    38   17   19 1
    39   19   20 2
    40   19   49 1
    41   20   21 1
    42   21   22 1
    43   21   50 1
    44   21   51 1
    45   22   23 1
    46   22   52 1
    47   22   53 1
    48   23   24 1
    49   25   30 ar
    50   25   26 ar
    51   26   27 ar
    52   26   54 1
    53   27   28 ar
    54   27   55 1
    55   28   29 ar
    56   28   31 1
    57   29   30 ar
    58   29   56 1
    59   30   57 1
    60   31   32 1
    61   31   33 1
    62   32   58 1
    63   32   59 1
    64   32   60 1
    65   33   61 1
    66   33   62 1
    67   33   63 1
    68   34   64 1
    69   34   65 1
    70   34   66 1
    71   35   67 1
@<TRIPOS>MOLECULE
ZINC13491409
   35    37     0     0     0
SMALL
USER_CHARGES
5-(4,4-dimethyl-2-oxo-1H-3,1-benzoxazin-6-yl)-2-fluoro-benzonitrile
@<TRIPOS>ATOM
      1 C1         -0.0127    1.0858    0.0080 C.3       1 <0>        -0.1441
      2 C2         -0.7288    1.5792    1.2668 C.3       1 <0>         0.1661
      3 C3         -2.1467    1.0649    1.2766 C.ar      1 <0>        -0.1552
      4 C4         -2.4620   -0.1478    0.7081 C.ar      1 <0>        -0.0550
      5 C5         -3.7808   -0.6012    0.7315 C.ar      1 <0>        -0.0684
      6 C6         -4.7728    0.1743    1.3299 C.ar      1 <0>        -0.0661
      7 C7         -4.4522    1.3975    1.8937 C.ar      1 <0>        -0.1420
      8 C8         -3.1385    1.8435    1.8704 C.ar      1 <0>         0.1712
      9 N1         -2.7867    3.0721    2.4404 N.am      1 <0>        -0.6688
     10 C9         -1.5972    3.6304    2.1380 C.2       1 <0>         0.6615
     11 O1         -1.2811    4.6855    2.6513 O.2       1 <0>        -0.5004
     12 O2         -0.7565    3.0330    1.2740 O.3       1 <0>        -0.3350
     13 C10        -4.1278   -1.9076    0.1198 C.ar      1 <0>        -0.0478
     14 C11        -3.1348   -2.6835   -0.4794 C.ar      1 <0>        -0.0553
     15 C12        -3.4526   -3.8995   -1.0493 C.ar      1 <0>        -0.1440
     16 C13        -4.7579   -4.3582   -1.0308 C.ar      1 <0>         0.1472
     17 C14        -5.7621   -3.5887   -0.4332 C.ar      1 <0>        -0.0506
     18 C15        -5.4413   -2.3620    0.1483 C.ar      1 <0>        -0.0379
     19 C16        -7.1136   -4.0618   -0.4130 C.1       1 <0>         0.2452
     20 N2         -8.1857   -4.4370   -0.3969 N.1       1 <0>        -0.3912
     21 F1         -5.0629   -5.5495   -1.5903 F         1 <0>        -0.1236
     22 C17         0.0089    1.0739    2.5083 C.3       1 <0>        -0.1705
     23 H1          0.0021   -0.0041    0.0020 H         1 <0>         0.0875
     24 H2          1.0099    1.4631    0.0003 H         1 <0>         0.0797
     25 H3         -0.5399    1.4469   -0.8751 H         1 <0>         0.0749
     26 H4         -1.6913   -0.7461    0.2451 H         1 <0>         0.1415
     27 H5         -5.7941   -0.1766    1.3488 H         1 <0>         0.1379
     28 H6         -5.2197    1.9995    2.3573 H         1 <0>         0.1399
     29 H7         -3.3950    3.5195    3.0493 H         1 <0>         0.4310
     30 H8         -2.1140   -2.3313   -0.4970 H         1 <0>         0.1450
     31 H9         -2.6796   -4.4952   -1.5119 H         1 <0>         0.1525
     32 H10        -6.2112   -1.7655    0.6151 H         1 <0>         0.1471
     33 H11         1.0315    1.4512    2.5019 H         1 <0>         0.0803
     34 H12        -0.5029    1.4265    3.4037 H         1 <0>         0.0616
     35 H13         0.0237   -0.0160    2.5036 H         1 <0>         0.0860
@<TRIPOS>BOND
     1    1    2 1
     2    1   23 1
     3    1   24 1
     4    1   25 1
     5    2   12 1
     6    2    3 1
     7    2   22 1
     8    3    8 ar
     9    3    4 ar
    10    4    5 ar
    11    4   26 1
    12    5    6 ar
    13    5   13 1
    14    6    7 ar
    15    6   27 1
    16    7    8 ar
    17    7   28 1
    18    8    9 1
    19    9   10 am
    20    9   29 1
    21   10   11 2
    22   10   12 1
    23   13   18 ar
    24   13   14 ar
    25   14   15 ar
    26   14   30 1
    27   15   16 ar
    28   15   31 1
    29   16   17 ar
    30   16   21 1
    31   17   18 ar
    32   17   19 1
    33   18   32 1
    34   19   20 3
    35   22   33 1
    36   22   34 1
    37   22   35 1
@<TRIPOS>MOLECULE
ZINC13491403
   34    36     0     0     0
SMALL
USER_CHARGES
6-(3-chlorophenyl)-4,4-dimethyl-1H-3,1-benzoxazin-2-one
@<TRIPOS>ATOM
      1 C1         -0.0127    1.0858    0.0080 C.3       1 <0>        -0.1438
      2 C2         -0.7288    1.5792    1.2668 C.3       1 <0>         0.1668
      3 C3         -2.1466    1.0649    1.2766 C.ar      1 <0>        -0.1559
      4 C4         -2.4652   -0.1438    0.7057 C.ar      1 <0>        -0.0555
      5 C5         -3.7852   -0.5943    0.7273 C.ar      1 <0>        -0.0673
      6 C6         -4.7763    0.1836    1.3243 C.ar      1 <0>        -0.0662
      7 C7         -4.4523    1.3978    1.8929 C.ar      1 <0>        -0.1426
      8 C8         -3.1385    1.8437    1.8699 C.ar      1 <0>         0.1688
      9 N1         -2.7871    3.0723    2.4396 N.am      1 <0>        -0.6685
     10 C9         -1.5974    3.6306    2.1375 C.2       1 <0>         0.6616
     11 O1         -1.2814    4.6857    2.6509 O.2       1 <0>        -0.5015
     12 O2         -0.7565    3.0330    1.2740 O.3       1 <0>        -0.3352
     13 C10        -4.1340   -1.9002    0.1161 C.ar      1 <0>        -0.0278
     14 C11        -3.1456   -2.6768   -0.4863 C.ar      1 <0>        -0.1092
     15 C12        -3.4741   -3.8933   -1.0488 C.ar      1 <0>        -0.1003
     16 C13        -4.7837   -4.3381   -1.0258 C.ar      1 <0>        -0.1099
     17 C14        -5.7707   -3.5691   -0.4337 C.ar      1 <0>        -0.0295
     18 C15        -5.4517   -2.3521    0.1370 C.ar      1 <0>        -0.1049
     19 Cl1        -7.4119   -4.1345   -0.4089 Cl        1 <0>        -0.0648
     20 C16         0.0090    1.0739    2.5083 C.3       1 <0>        -0.1701
     21 H1          0.0021   -0.0041    0.0020 H         1 <0>         0.0870
     22 H2          1.0099    1.4631    0.0003 H         1 <0>         0.0797
     23 H3         -0.5399    1.4469   -0.8751 H         1 <0>         0.0745
     24 H4         -1.6951   -0.7441    0.2440 H         1 <0>         0.1400
     25 H5         -5.7983   -0.1650    1.3419 H         1 <0>         0.1372
     26 H6         -5.2201    2.0007    2.3549 H         1 <0>         0.1390
     27 H7         -3.3954    3.5197    3.0484 H         1 <0>         0.4306
     28 H8         -2.1235   -2.3286   -0.5094 H         1 <0>         0.1318
     29 H9         -2.7080   -4.4971   -1.5124 H         1 <0>         0.1366
     30 H10        -5.0371   -5.2886   -1.4715 H         1 <0>         0.1357
     31 H11        -6.2222   -1.7525    0.5988 H         1 <0>         0.1368
     32 H12         1.0316    1.4512    2.5019 H         1 <0>         0.0803
     33 H13        -0.5028    1.4265    3.4037 H         1 <0>         0.0616
     34 H14         0.0237   -0.0160    2.5036 H         1 <0>         0.0854
@<TRIPOS>BOND
     1    1    2 1
     2    1   21 1
     3    1   22 1
     4    1   23 1
     5    2   12 1
     6    2    3 1
     7    2   20 1
     8    3    8 ar
     9    3    4 ar
    10    4    5 ar
    11    4   24 1
    12    5    6 ar
    13    5   13 1
    14    6    7 ar
    15    6   25 1
    16    7    8 ar
    17    7   26 1
    18    8    9 1
    19    9   10 am
    20    9   27 1
    21   10   11 2
    22   10   12 1
    23   13   18 ar
    24   13   14 ar
    25   14   15 ar
    26   14   28 1
    27   15   16 ar
    28   15   29 1
    29   16   17 ar
    30   16   30 1
    31   17   18 ar
    32   17   19 1
    33   18   31 1
    34   20   32 1
    35   20   33 1
    36   20   34 1
@<TRIPOS>MOLECULE
ZINC03861599
   61    65     0     0     0
SMALL
USER_CHARGES

@<TRIPOS>ATOM
      1 C1         -0.0184    1.5028    0.0103 C.3       1 <0>        -0.1834
      2 C2          0.0021   -0.0041    0.0020 C.2       1 <0>         0.2952
      3 O1          1.0609   -0.5963   -0.0113 O.2       1 <0>        -0.4628
      4 S1         -1.4241   -0.8535    0.0111 S.3       1 <0>        -0.0865
      5 C3         -0.9005   -2.5903   -0.0033 C.3       1 <0>        -0.0601
      6 H1         -0.2231   -2.7735    0.8309 H         1 <0>         0.1085
      7 C4         -0.1848   -2.8979   -1.3203 C.3       1 <0>        -0.0972
      8 C5         -1.1754   -2.7526   -2.4610 C.2       1 <0>        -0.0183
      9 C6         -0.8008   -2.0328   -3.5185 C.2       1 <0>        -0.2315
     10 C7         -1.7119   -1.8719   -4.6568 C.2       1 <0>         0.3896
     11 O2         -1.5963   -0.9548   -5.4427 O.2       1 <0>        -0.4548
     12 C8         -2.8054   -2.9124   -4.7998 C.3       1 <0>        -0.1675
     13 C9         -3.4907   -3.0448   -3.4405 C.3       1 <0>        -0.1034
     14 C10        -2.5067   -3.4292   -2.3500 C.3       1 <0>        -0.0255
     15 C11        -3.1324   -3.1361   -0.9805 C.3       1 <0>        -0.0732
     16 H2         -3.3553   -2.0713   -0.9129 H         1 <0>         0.0859
     17 C12        -2.1284   -3.4962    0.1260 C.3       1 <0>        -0.0598
     18 H3         -1.8316   -4.5409    0.0333 H         1 <0>         0.1084
     19 C13        -2.8065   -3.2536    1.4620 C.3       1 <0>        -0.0867
     20 H4         -3.1622   -2.2252    1.5250 H         1 <0>         0.0929
     21 C14        -1.9786   -3.6091    2.7028 C.3       1 <0>        -0.1134
     22 C15        -3.0641   -3.8464    3.7912 C.3       1 <0>        -0.1439
     23 C16        -4.3520   -4.2185    3.0328 C.3       1 <0>         0.1193
     24 C17        -3.9981   -4.2470    1.5548 C.3       1 <0>        -0.0467
     25 C18        -5.0436   -3.7809    0.5608 C.3       1 <0>        -0.1049
     26 C19        -4.4313   -3.9253   -0.8461 C.3       1 <0>        -0.1212
     27 C20        -3.5271   -5.6532    1.1784 C.3       1 <0>        -0.1475
     28 C21        -5.4589   -3.1890    3.3175 C.3       1 <0>        -0.1503
     29 C22        -6.2810   -3.8924    4.4267 C.3       1 <0>        -0.1865
     30 C23        -5.5352   -5.1989    4.6547 C.2       1 <0>         0.4823
     31 O3         -5.5324   -5.8644    5.6632 O.2       1 <0>        -0.4395
     32 O4         -4.8739   -5.4684    3.5007 O.3       1 <0>        -0.3359
     33 C24        -2.2779   -4.9398   -2.4307 C.3       1 <0>        -0.1534
     34 H5          1.0042    1.8801    0.0026 H         1 <0>         0.0923
     35 H6         -0.5455    1.8639   -0.8728 H         1 <0>         0.0982
     36 H7         -0.5286    1.8543    0.9071 H         1 <0>         0.0977
     37 H8          0.6390   -2.1980   -1.4605 H         1 <0>         0.0924
     38 H9          0.1995   -3.9176   -1.2978 H         1 <0>         0.0984
     39 H10         0.1736   -1.5675   -3.5370 H         1 <0>         0.1313
     40 H11        -3.5282   -2.5897   -5.5493 H         1 <0>         0.0938
     41 H12        -2.3710   -3.8689   -5.0905 H         1 <0>         0.1002
     42 H13        -3.9536   -2.0925   -3.1816 H         1 <0>         0.0719
     43 H14        -4.2653   -3.8089   -3.5059 H         1 <0>         0.0853
     44 H15        -1.3988   -4.5162    2.5325 H         1 <0>         0.0749
     45 H16        -1.3274   -2.7808    2.9820 H         1 <0>         0.0735
     46 H17        -2.7654   -4.6639    4.4474 H         1 <0>         0.0789
     47 H18        -3.2196   -2.9365    4.3710 H         1 <0>         0.0819
     48 H19        -5.9363   -4.4010    0.6426 H         1 <0>         0.0727
     49 H20        -5.2965   -2.7376    0.7498 H         1 <0>         0.0726
     50 H21        -5.1455   -3.5623   -1.5851 H         1 <0>         0.0725
     51 H22        -4.2282   -4.9789   -1.0382 H         1 <0>         0.0787
     52 H23        -2.7398   -5.9681    1.8633 H         1 <0>         0.0589
     53 H24        -4.3652   -6.3470    1.2446 H         1 <0>         0.0640
     54 H25        -3.1408   -5.6463    0.1592 H         1 <0>         0.0689
     55 H26        -5.0346   -2.2537    3.6826 H         1 <0>         0.0947
     56 H27        -6.0691   -3.0196    2.4303 H         1 <0>         0.0996
     57 H28        -6.2891   -3.2921    5.3365 H         1 <0>         0.1070
     58 H29        -7.2978   -4.0862    4.0853 H         1 <0>         0.1151
     59 H30        -1.6274   -5.2529   -1.6141 H         1 <0>         0.0630
     60 H31        -3.2342   -5.4569   -2.3522 H         1 <0>         0.0727
     61 H32        -1.8090   -5.1859   -3.3835 H         1 <0>         0.0606
@<TRIPOS>BOND
     1    1    2 1
     2    1   34 1
     3    1   35 1
     4    1   36 1
     5    2    3 2
     6    2    4 1
     7    4    5 1
     8    5    6 1
     9    5   17 1
    10    5    7 1
    11    7    8 1
    12    7   37 1
    13    7   38 1
    14    8   14 1
    15    8    9 2
    16    9   10 1
    17    9   39 1
    18   10   11 2
    19   10   12 1
    20   12   13 1
    21   12   40 1
    22   12   41 1
    23   13   14 1
    24   13   42 1
    25   13   43 1
    26   14   15 1
    27   14   33 1
    28   15   16 1
    29   15   26 1
    30   15   17 1
    31   17   18 1
    32   17   19 1
    33   19   20 1
    34   19   24 1
    35   19   21 1
    36   21   22 1
    37   21   44 1
    38   21   45 1
    39   22   23 1
    40   22   46 1
    41   22   47 1
    42   23   32 1
    43   23   24 1
    44   23   28 1
    45   24   25 1
    46   24   27 1
    47   25   26 1
    48   25   48 1
    49   25   49 1
    50   26   50 1
    51   26   51 1
    52   27   52 1
    53   27   53 1
    54   27   54 1
    55   28   29 1
    56   28   55 1
    57   28   56 1
    58   29   30 1
    59   29   57 1
    60   29   58 1
    61   30   31 2
    62   30   32 1
    63   33   59 1
    64   33   60 1
    65   33   61 1
@<TRIPOS>MOLECULE
ZINC05673241
   36    38     0     0     0
SMALL
USER_CHARGES
[3-(4-chlorophenyl)-5,6-dihydro-4H-pyridazin-1-yl]-(3,4-dichlorophenyl)-methanone
@<TRIPOS>ATOM
      1 C1          6.9929    4.3362    0.0656 C.ar      1 <0>        -0.0753
      2 C2          6.8974    5.7120    0.0631 C.ar      1 <0>        -0.1108
      3 C3          5.6552    6.3228    0.0180 C.ar      1 <0>        -0.0172
      4 C4          4.5019    5.5576   -0.0316 C.ar      1 <0>        -0.1114
      5 C5          4.5838    4.1810   -0.0360 C.ar      1 <0>        -0.0745
      6 C6          5.8336    3.5586    0.0099 C.ar      1 <0>        -0.0552
      7 C7          5.9286    2.0871    0.0055 C.2       1 <0>         0.1737
      8 N1          4.8460    1.4037   -0.1383 N.2       1 <0>        -0.2597
      9 N2          4.8478    0.0026   -0.1437 N.am      1 <0>        -0.4545
     10 C8          6.1321   -0.7035   -0.2663 C.3       1 <0>         0.0785
     11 C9          7.1440    0.0079    0.6370 C.3       1 <0>        -0.1386
     12 C10         7.2824    1.4585    0.1693 C.3       1 <0>        -0.1228
     13 C11         3.6942   -0.6856   -0.0331 C.2       1 <0>         0.5936
     14 O1          3.7127   -1.9007    0.0079 O.2       1 <0>        -0.5122
     15 C12         2.4073    0.0365    0.0384 C.ar      1 <0>        -0.1252
     16 C13         2.3690    1.4205   -0.1444 C.ar      1 <0>        -0.0780
     17 C14         1.1652    2.0894   -0.0772 C.ar      1 <0>        -0.1192
     18 C15        -0.0053    1.3917    0.1712 C.ar      1 <0>        -0.0023
     19 C16         0.0256    0.0181    0.3536 C.ar      1 <0>        -0.0491
     20 C17         1.2248   -0.6622    0.2884 C.ar      1 <0>        -0.0380
     21 Cl1        -1.4464   -0.8481    0.6644 Cl        1 <0>        -0.0391
     22 Cl2        -1.5161    2.2421    0.2615 Cl        1 <0>        -0.0400
     23 Cl3         5.5434    8.0552    0.0231 Cl        1 <0>        -0.0594
     24 H1          7.9619    3.8611    0.1060 H         1 <0>         0.1420
     25 H2          7.7930    6.3143    0.1013 H         1 <0>         0.1418
     26 H3          3.5363    6.0401   -0.0674 H         1 <0>         0.1415
     27 H4          3.6837    3.5855   -0.0750 H         1 <0>         0.1418
     28 H5          6.0167   -1.7395    0.0522 H         1 <0>         0.1094
     29 H6          6.4758   -0.6695   -1.3002 H         1 <0>         0.0819
     30 H7          8.1104   -0.4920    0.5705 H         1 <0>         0.0984
     31 H8          6.7883   -0.0123    1.6671 H         1 <0>         0.0772
     32 H9          7.8082    1.4809   -0.7853 H         1 <0>         0.1011
     33 H10         7.8535    2.0199    0.9087 H         1 <0>         0.1028
     34 H11         3.2808    1.9660   -0.3378 H         1 <0>         0.1966
     35 H12         1.1349    3.1597   -0.2181 H         1 <0>         0.1484
     36 H13         1.2483   -1.7325    0.4310 H         1 <0>         0.1542
@<TRIPOS>BOND
     1    1    6 ar
     2    1    2 ar
     3    1   24 1
     4    2    3 ar
     5    2   25 1
     6    3    4 ar
     7    3   23 1
     8    4    5 ar
     9    4   26 1
    10    5    6 ar
    11    5   27 1
    12    6    7 1
    13    7   12 1
    14    7    8 2
    15    8    9 1
    16    9   10 1
    17    9   13 am
    18   10   11 1
    19   10   28 1
    20   10   29 1
    21   11   12 1
    22   11   30 1
    23   11   31 1
    24   12   32 1
    25   12   33 1
    26   13   14 2
    27   13   15 1
    28   15   20 ar
    29   15   16 ar
    30   16   17 ar
    31   16   34 1
    32   17   18 ar
    33   17   35 1
    34   18   19 ar
    35   18   22 1
    36   19   20 ar
    37   19   21 1
    38   20   36 1
@<TRIPOS>MOLECULE
ZINC01397984
   39    41     0     0     0
SMALL
USER_CHARGES

@<TRIPOS>ATOM
      1 C1         -0.0235    1.5027    0.0109 C.3       1 <0>        -0.1212
      2 C2         -0.0015   -0.0041    0.0025 C.ar      1 <0>        -0.0543
      3 C3          0.0665   -0.6852   -1.2000 C.ar      1 <0>        -0.1395
      4 C4          0.0870   -2.0645   -1.2149 C.ar      1 <0>        -0.0538
      5 C5          0.0389   -2.7731   -0.0130 C.ar      1 <0>        -0.1494
      6 C6         -0.0296   -2.0797    1.1967 C.ar      1 <0>        -0.0898
      7 C7         -0.0437   -0.7002    1.1975 C.ar      1 <0>        -0.1437
      8 C8          0.0600   -4.2508   -0.0214 C.2       1 <0>         0.5915
      9 O1         -0.0274   -4.8541   -1.0734 O.2       1 <0>        -0.5230
     10 N1          0.1760   -4.9296    1.1372 N.am      1 <0>        -0.4585
     11 C9          0.3127   -6.3940    1.1366 C.3       1 <0>         0.0779
     12 C10        -0.5918   -6.9435    2.2495 C.3       1 <0>        -0.1378
     13 C11        -0.1247   -6.3634    3.5864 C.3       1 <0>        -0.1206
     14 C12         0.0308   -4.8734    3.4848 C.2       1 <0>         0.1644
     15 N2          0.1745   -4.2526    2.3640 N.2       1 <0>        -0.2522
     16 C13         0.0245   -4.0812    4.7286 C.ar      1 <0>        -0.0583
     17 C14        -0.0123   -4.7228    5.9690 C.ar      1 <0>        -0.0899
     18 C15        -0.0175   -3.9754    7.1283 C.ar      1 <0>        -0.1215
     19 C16         0.0135   -2.5935    7.0647 C.ar      1 <0>        -0.1006
     20 C17         0.0500   -1.9513    5.8396 C.ar      1 <0>        -0.1218
     21 C18         0.0611   -2.6859    4.6722 C.ar      1 <0>        -0.0881
     22 H1          0.9978    1.8807    0.0578 H         1 <0>         0.0750
     23 H2         -0.5033    1.8642   -0.8986 H         1 <0>         0.0693
     24 H3         -0.5808    1.8531    0.8797 H         1 <0>         0.0694
     25 H4          0.1032   -0.1357   -2.1291 H         1 <0>         0.1284
     26 H5          0.1397   -2.5949   -2.1542 H         1 <0>         0.1328
     27 H6         -0.0674   -2.6219    2.1299 H         1 <0>         0.1842
     28 H7         -0.0923   -0.1625    2.1329 H         1 <0>         0.1256
     29 H8         -0.0015   -6.7946    0.1728 H         1 <0>         0.1075
     30 H9          1.3491   -6.6690    1.3325 H         1 <0>         0.0790
     31 H10        -1.6239   -6.6471    2.0623 H         1 <0>         0.0760
     32 H11        -0.5193   -8.0307    2.2768 H         1 <0>         0.0956
     33 H12        -0.8590   -6.5975    4.3572 H         1 <0>         0.1002
     34 H13         0.8328   -6.8082    3.8575 H         1 <0>         0.0977
     35 H14        -0.0369   -5.8013    6.0201 H         1 <0>         0.1307
     36 H15        -0.0463   -4.4701    8.0880 H         1 <0>         0.1292
     37 H16         0.0089   -2.0134    7.9757 H         1 <0>         0.1267
     38 H17         0.0741   -0.8724    5.7974 H         1 <0>         0.1286
     39 H18         0.0938   -2.1835    3.7168 H         1 <0>         0.1345
@<TRIPOS>BOND
     1    1    2 1
     2    1   22 1
     3    1   23 1
     4    1   24 1
     5    2    7 ar
     6    2    3 ar
     7    3    4 ar
     8    3   25 1
     9    4    5 ar
    10    4   26 1
    11    5    6 ar
    12    5    8 1
    13    6    7 ar
    14    6   27 1
    15    7   28 1
    16    8    9 2
    17    8   10 am
    18   10   15 1
    19   10   11 1
    20   11   12 1
    21   11   29 1
    22   11   30 1
    23   12   13 1
    24   12   31 1
    25   12   32 1
    26   13   14 1
    27   13   33 1
    28   13   34 1
    29   14   15 2
    30   14   16 1
    31   16   21 ar
    32   16   17 ar
    33   17   18 ar
    34   17   35 1
    35   18   19 ar
    36   18   36 1
    37   19   20 ar
    38   19   37 1
    39   20   21 ar
    40   20   38 1
    41   21   39 1
@<TRIPOS>MOLECULE
ZINC01397985
   36    38     0     0     0
SMALL
USER_CHARGES

@<TRIPOS>ATOM
      1 C1         -0.0578    1.2601   -0.5483 C.ar      1 <0>        -0.0996
      2 C2          1.1162    1.9700   -0.7285 C.ar      1 <0>        -0.1222
      3 C3          2.3340    1.3279   -0.6450 C.ar      1 <0>        -0.0851
      4 C4          2.3805   -0.0423   -0.3773 C.ar      1 <0>        -0.0600
      5 C5          1.1913   -0.7525   -0.1961 C.ar      1 <0>        -0.0893
      6 C6         -0.0194   -0.0974   -0.2829 C.ar      1 <0>        -0.1216
      7 C7          3.6788   -0.7360   -0.2870 C.2       1 <0>         0.1715
      8 N1          4.7547   -0.0282   -0.3162 N.2       1 <0>        -0.2591
      9 N2          6.0277   -0.6094   -0.2450 N.am      1 <0>        -0.4581
     10 C8          6.1407   -2.0204    0.1540 C.3       1 <0>         0.0779
     11 C9          5.0409   -2.7990   -0.5826 C.3       1 <0>        -0.1376
     12 C10         3.6816   -2.2321   -0.1595 C.3       1 <0>        -0.1218
     13 C11         7.1284    0.1114   -0.5373 C.2       1 <0>         0.5921
     14 O1          8.2156   -0.4312   -0.5843 O.2       1 <0>        -0.5188
     15 C12         7.0141    1.5605   -0.8006 C.ar      1 <0>        -0.1378
     16 C13         5.8070    2.2224   -0.5664 C.ar      1 <0>        -0.0725
     17 C14         5.7066    3.5752   -0.8137 C.ar      1 <0>        -0.1318
     18 C15         6.7999    4.2775   -1.2934 C.ar      1 <0>        -0.0055
     19 C16         7.9999    3.6265   -1.5277 C.ar      1 <0>        -0.1278
     20 C17         8.1142    2.2750   -1.2793 C.ar      1 <0>        -0.0455
     21 Cl1         6.6655    5.9804   -1.6028 Cl        1 <0>        -0.0635
     22 H1         -1.0084    1.7688   -0.6107 H         1 <0>         0.1268
     23 H2          1.0787    3.0294   -0.9353 H         1 <0>         0.1290
     24 H3          3.2495    1.8832   -0.7865 H         1 <0>         0.1330
     25 H4          1.2198   -1.8122    0.0107 H         1 <0>         0.1306
     26 H5         -0.9396   -0.6453   -0.1433 H         1 <0>         0.1293
     27 H6          7.1200   -2.4073   -0.1277 H         1 <0>         0.1079
     28 H7          6.0013   -2.1127    1.2311 H         1 <0>         0.0800
     29 H8          5.1702   -2.6856   -1.6589 H         1 <0>         0.0766
     30 H9          5.0961   -3.8538   -0.3135 H         1 <0>         0.0959
     31 H10         3.4791   -2.5060    0.8759 H         1 <0>         0.0986
     32 H11         2.9038   -2.6499   -0.7987 H         1 <0>         0.1006
     33 H12         4.9538    1.6759   -0.1927 H         1 <0>         0.1852
     34 H13         4.7735    4.0883   -0.6332 H         1 <0>         0.1383
     35 H14         8.8488    4.1793   -1.9021 H         1 <0>         0.1409
     36 H15         9.0515    1.7692   -1.4585 H         1 <0>         0.1435
@<TRIPOS>BOND
     1    1    6 ar
     2    1    2 ar
     3    1   22 1
     4    2    3 ar
     5    2   23 1
     6    3    4 ar
     7    3   24 1
     8    4    5 ar
     9    4    7 1
    10    5    6 ar
    11    5   25 1
    12    6   26 1
    13    7   12 1
    14    7    8 2
    15    8    9 1
    16    9   10 1
    17    9   13 am
    18   10   11 1
    19   10   27 1
    20   10   28 1
    21   11   12 1
    22   11   29 1
    23   11   30 1
    24   12   31 1
    25   12   32 1
    26   13   14 2
    27   13   15 1
    28   15   20 ar
    29   15   16 ar
    30   16   17 ar
    31   16   33 1
    32   17   18 ar
    33   17   34 1
    34   18   19 ar
    35   18   21 1
    36   19   20 ar
    37   19   35 1
    38   20   36 1
@<TRIPOS>MOLECULE
ZINC00005947
   36    38     0     0     0
SMALL
USER_CHARGES
(3,4-dichlorophenyl)-(3-phenyl-5,6-dihydro-4H-pyridazin-1-yl)-methanone
@<TRIPOS>ATOM
      1 C1          0.0738    1.4724    0.5598 C.ar      1 <0>        -0.0988
      2 C2          1.2710    2.1660    0.5441 C.ar      1 <0>        -0.1210
      3 C3          2.4650    1.4849    0.4298 C.ar      1 <0>        -0.0890
      4 C4          2.4635    0.0915    0.3300 C.ar      1 <0>        -0.0608
      5 C5          1.2510   -0.6021    0.3467 C.ar      1 <0>        -0.0851
      6 C6          0.0647    0.0922    0.4614 C.ar      1 <0>        -0.1218
      7 C7          3.7360   -0.6438    0.2082 C.2       1 <0>         0.1760
      8 N1          3.7040   -1.9314    0.2302 N.2       1 <0>        -0.2637
      9 N2          4.8680   -2.7048    0.1291 N.am      1 <0>        -0.4565
     10 C8          6.1169   -2.0529   -0.2931 C.3       1 <0>         0.0783
     11 C9          6.2131   -0.7122    0.4497 C.3       1 <0>        -0.1380
     12 C10         5.0049    0.1450    0.0583 C.3       1 <0>        -0.1229
     13 C11         4.8435   -4.0220    0.4132 C.2       1 <0>         0.5938
     14 O1          5.8792   -4.6589    0.4340 O.2       1 <0>        -0.5140
     15 C12         3.5585   -4.6922    0.6993 C.ar      1 <0>        -0.1246
     16 C13         2.3545   -4.0110    0.5070 C.ar      1 <0>        -0.0701
     17 C14         1.1578   -4.6432    0.7701 C.ar      1 <0>        -0.1187
     18 C15         1.1477   -5.9478    1.2353 C.ar      1 <0>        -0.0027
     19 C16         2.3391   -6.6278    1.4337 C.ar      1 <0>        -0.0493
     20 C17         3.5430   -6.0071    1.1683 C.ar      1 <0>        -0.0385
     21 Cl1         2.3170   -8.2629    2.0165 Cl        1 <0>        -0.0398
     22 Cl2        -0.3630   -6.7346    1.5706 Cl        1 <0>        -0.0407
     23 H1         -0.8584    2.0112    0.6449 H         1 <0>         0.1272
     24 H2          1.2705    3.2432    0.6210 H         1 <0>         0.1297
     25 H3          3.3987    2.0275    0.4176 H         1 <0>         0.1313
     26 H4          1.2426   -1.6793    0.2703 H         1 <0>         0.1316
     27 H5         -0.8734   -0.4426    0.4740 H         1 <0>         0.1295
     28 H6          6.9686   -2.6816   -0.0337 H         1 <0>         0.1087
     29 H7          6.0983   -1.8792   -1.3691 H         1 <0>         0.0812
     30 H8          6.2084   -0.8885    1.5254 H         1 <0>         0.0771
     31 H9          7.1319   -0.2002    0.1638 H         1 <0>         0.0967
     32 H10         5.1083    0.4682   -0.9775 H         1 <0>         0.0998
     33 H11         4.9626    1.0220    0.7042 H         1 <0>         0.1013
     34 H12         2.3608   -2.9921    0.1490 H         1 <0>         0.1916
     35 H13         0.2263   -4.1185    0.6174 H         1 <0>         0.1482
     36 H14         4.4711   -6.5373    1.3235 H         1 <0>         0.1539
@<TRIPOS>BOND
     1    1    6 ar
     2    1    2 ar
     3    1   23 1
     4    2    3 ar
     5    2   24 1
     6    3    4 ar
     7    3   25 1
     8    4    5 ar
     9    4    7 1
    10    5    6 ar
    11    5   26 1
    12    6   27 1
    13    7   12 1
    14    7    8 2
    15    8    9 1
    16    9   10 1
    17    9   13 am
    18   10   11 1
    19   10   28 1
    20   10   29 1
    21   11   12 1
    22   11   30 1
    23   11   31 1
    24   12   32 1
    25   12   33 1
    26   13   14 2
    27   13   15 1
    28   15   20 ar
    29   15   16 ar
    30   16   17 ar
    31   16   34 1
    32   17   18 ar
    33   17   35 1
    34   18   19 ar
    35   18   22 1
    36   19   20 ar
    37   19   21 1
    38   20   36 1
@<TRIPOS>MOLECULE
ZINC03814419
   48    51     0     0     0
SMALL
USER_CHARGES

@<TRIPOS>ATOM
      1 C1         -0.0187    1.5258    0.0104 C.3       1 <0>        -0.1351
      2 C2          0.0021   -0.0041    0.0020 C.3       1 <0>        -0.0448
      3 C3         -1.4159   -0.5379    0.0742 C.3       1 <0>        -0.1004
      4 C4         -2.0774    0.1007    1.3057 C.3       1 <0>        -0.1158
      5 C5         -1.2985   -0.1973    2.5834 C.3       1 <0>        -0.0753
      6 H1         -1.3395   -1.2711    2.7658 H         1 <0>         0.0686
      7 C6         -1.9496    0.5106    3.7608 C.3       1 <0>        -0.0459
      8 H2         -2.2675    1.4990    3.4289 H         1 <0>         0.0804
      9 C7         -3.1936   -0.2647    4.2042 C.3       1 <0>        -0.1049
     10 C8         -3.8922    0.4894    5.3392 C.3       1 <0>        -0.1707
     11 C9         -2.9154    0.6665    6.4802 C.2       1 <0>         0.3639
     12 O1         -3.1847    0.2834    7.5933 O.2       1 <0>        -0.4565
     13 C10        -1.5902    1.3373    6.1868 C.3       1 <0>        -0.1349
     14 C11        -1.0299    0.6849    4.9322 C.2       1 <0>        -0.1202
     15 C12         0.2230    0.3350    4.9339 C.2       1 <0>        -0.1417
     16 C13         0.8951   -0.2848    3.7425 C.3       1 <0>        -0.0866
     17 C14         0.1746    0.2147    2.4646 C.3       1 <0>        -0.0692
     18 H3          0.2562    1.2960    2.3539 H         1 <0>         0.0910
     19 C15         0.7513   -0.5274    1.2567 C.3       1 <0>        -0.0828
     20 H4          0.6137   -1.6036    1.3610 H         1 <0>         0.0791
     21 C16         2.2066   -0.1914    0.9119 C.3       1 <0>        -0.1136
     22 C17         2.3043   -0.5730   -0.5905 C.3       1 <0>        -0.1452
     23 C18         0.8630   -0.5033   -1.1540 C.3       1 <0>         0.2500
     24 C19         0.4174   -1.8394   -1.5819 C.1       1 <0>        -0.2093
     25 C20         0.0620   -2.9050   -1.9232 C.1       1 <0>        -0.1812
     26 O2          0.8029    0.4138   -2.2482 O.3       1 <0>        -0.5405
     27 H5          1.0039    1.9031    0.0027 H         1 <0>         0.0574
     28 H6         -0.5459    1.8868   -0.8726 H         1 <0>         0.0619
     29 H7         -0.5289    1.8773    0.9072 H         1 <0>         0.0645
     30 H8         -1.9633   -0.2612   -0.8269 H         1 <0>         0.0663
     31 H9         -1.3995   -1.6224    0.1817 H         1 <0>         0.0643
     32 H10        -2.1266    1.1802    1.1630 H         1 <0>         0.0691
     33 H11        -3.0901   -0.2895    1.4076 H         1 <0>         0.0639
     34 H12        -3.8773   -0.3664    3.3614 H         1 <0>         0.0802
     35 H13        -2.8991   -1.2543    4.5534 H         1 <0>         0.0679
     36 H14        -4.2182    1.4664    4.9824 H         1 <0>         0.0992
     37 H15        -4.7543   -0.0830    5.6818 H         1 <0>         0.0898
     38 H16        -1.7430    2.4045    6.0256 H         1 <0>         0.1094
     39 H17        -0.9043    1.1822    7.0196 H         1 <0>         0.0942
     40 H18         0.8043    0.4973    5.8295 H         1 <0>         0.1077
     41 H19         1.9402    0.0232    3.7115 H         1 <0>         0.0745
     42 H20         0.8346   -1.3709    3.8131 H         1 <0>         0.0768
     43 H21         2.4009    0.8718    1.0532 H         1 <0>         0.0753
     44 H22         2.8930   -0.7926    1.5081 H         1 <0>         0.0705
     45 H23         2.9458    0.1349   -1.1153 H         1 <0>         0.0807
     46 H24         2.6982   -1.5840   -0.6947 H         1 <0>         0.0719
     47 H25        -0.2559   -3.8580   -2.2284 H         1 <0>         0.2180
     48 H26         1.3316    0.1486   -3.0132 H         1 <0>         0.3783
@<TRIPOS>BOND
     1    1    2 1
     2    1   27 1
     3    1   28 1
     4    1   29 1
     5    2   19 1
     6    2   23 1
     7    2    3 1
     8    3    4 1
     9    3   30 1
    10    3   31 1
    11    4    5 1
    12    4   32 1
    13    4   33 1
    14    5    6 1
    15    5   17 1
    16    5    7 1
    17    7    8 1
    18    7   14 1
    19    7    9 1
    20    9   10 1
    21    9   34 1
    22    9   35 1
    23   10   11 1
    24   10   36 1
    25   10   37 1
    26   11   12 2
    27   11   13 1
    28   13   14 1
    29   13   38 1
    30   13   39 1
    31   14   15 2
    32   15   16 1
    33   15   40 1
    34   16   17 1
    35   16   41 1
    36   16   42 1
    37   17   18 1
    38   17   19 1
    39   19   20 1
    40   19   21 1
    41   21   22 1
    42   21   43 1
    43   21   44 1
    44   22   23 1
    45   22   45 1
    46   22   46 1
    47   23   24 1
    48   23   26 1
    49   24   25 3
    50   25   47 1
    51   26   48 1
@<TRIPOS>MOLECULE
ZINC66097792
   44    46     0     0     0
SMALL
USER_CHARGES

@<TRIPOS>ATOM
      1 C1          0.0060    0.9632    0.2944 C.3       1 <0>        -0.1155
      2 C2         -1.2397    0.3560   -0.2977 C.ar      1 <0>        -0.1403
      3 C3         -1.2125   -0.1683   -1.5862 C.ar      1 <0>         0.2517
      4 C4         -2.3606   -0.7301   -2.1373 C.ar      1 <0>        -0.1912
      5 C5         -3.5282   -0.7687   -1.4093 C.ar      1 <0>        -0.0120
      6 C6         -3.5606   -0.2433   -0.1142 C.ar      1 <0>        -0.0683
      7 C7         -2.4030    0.3155    0.4396 C.ar      1 <0>         0.0499
      8 Cl1        -2.4349    0.9634    2.0499 Cl        1 <0>        -0.0408
      9 C8         -4.7737   -0.2814    0.6458 C.1       1 <0>         0.2518
     10 N1         -5.7361   -0.3116    1.2486 N.1       1 <0>        -0.4047
     11 N2         -0.0343   -0.1305   -2.3263 N.pl3     1 <0>        -0.7121
     12 C9          0.0349   -0.7989   -3.6280 C.3       1 <0>         0.2157
     13 H1         -0.5903   -1.6917   -3.6117 H         1 <0>         0.1274
     14 C10        -0.4561    0.1386   -4.7009 C.2       1 <0>         0.1434
     15 N3         -0.1325    1.3955   -4.8323 N.2       1 <0>        -0.2462
     16 N4         -0.7354    1.8899   -5.8558 N.2       1 <0>        -0.2637
     17 C11        -1.4701    0.9578   -6.4169 C.2       1 <0>         0.2057
     18 O1         -1.3017   -0.1705   -5.6982 O.3       1 <0>        -0.2167
     19 C12        -2.3189    1.1144   -7.6159 C.ar      1 <0>         0.0016
     20 C13        -3.0540    0.0284   -8.0979 C.ar      1 <0>        -0.0836
     21 C14        -3.8447    0.1739   -9.2146 C.ar      1 <0>        -0.0703
     22 C15        -3.9127    1.4086   -9.8666 C.ar      1 <0>         0.0011
     23 C16        -3.1774    2.4950   -9.3838 C.ar      1 <0>        -0.0690
     24 C17        -2.3907    2.3500   -8.2642 C.ar      1 <0>        -0.0659
     25 C18        -4.7350    1.5603  -11.0291 C.1       1 <0>         0.2445
     26 N5         -5.3874    1.6806  -11.9513 N.1       1 <0>        -0.3968
     27 C19         1.4831   -1.1959   -3.9213 C.3       1 <0>         0.1041
     28 H2          1.5297   -1.7218   -4.8748 H         1 <0>         0.1207
     29 C20         1.9963   -2.1115   -2.8082 C.3       1 <0>        -0.1837
     30 O2          2.2952   -0.0218   -3.9847 O.3       1 <0>        -0.5402
     31 H3          0.5758    0.1914    0.8119 H         1 <0>         0.0799
     32 H4          0.6148    1.3921   -0.5015 H         1 <0>         0.0678
     33 H5         -0.2715    1.7452    1.0011 H         1 <0>         0.0810
     34 H6         -2.3354   -1.1360   -3.1378 H         1 <0>         0.1346
     35 H7         -4.4185   -1.2043   -1.8384 H         1 <0>         0.1444
     36 H8          0.7411    0.3384   -1.9801 H         1 <0>         0.4108
     37 H9         -3.0014   -0.9255   -7.5941 H         1 <0>         0.1440
     38 H10        -4.4124   -0.6657   -9.5876 H         1 <0>         0.1455
     39 H11        -3.2297    3.4490   -9.8872 H         1 <0>         0.1476
     40 H12        -1.8255    3.1903   -7.8889 H         1 <0>         0.1525
     41 H13         1.3247   -2.9631   -2.6996 H         1 <0>         0.0746
     42 H14         2.9953   -2.4666   -3.0614 H         1 <0>         0.0778
     43 H15         2.0346   -1.5572   -1.8704 H         1 <0>         0.0671
     44 H16         2.3012    0.4969   -3.1686 H         1 <0>         0.3756
@<TRIPOS>BOND
     1    1    2 1
     2    1   31 1
     3    1   32 1
     4    1   33 1
     5    2    7 ar
     6    2    3 ar
     7    3    4 ar
     8    3   11 1
     9    4    5 ar
    10    4   34 1
    11    5    6 ar
    12    5   35 1
    13    6    7 ar
    14    6    9 1
    15    7    8 1
    16    9   10 3
    17   11   12 1
    18   11   36 1
    19   12   13 1
    20   12   14 1
    21   12   27 1
    22   14   18 1
    23   14   15 2
    24   15   16 1
    25   16   17 2
    26   17   18 1
    27   17   19 1
    28   19   24 ar
    29   19   20 ar
    30   20   21 ar
    31   20   37 1
    32   21   22 ar
    33   21   38 1
    34   22   23 ar
    35   22   25 1
    36   23   24 ar
    37   23   39 1
    38   24   40 1
    39   25   26 3
    40   27   28 1
    41   27   29 1
    42   27   30 1
    43   29   41 1
    44   29   42 1
    45   29   43 1
    46   30   44 1
@<TRIPOS>MOLECULE
ZINC03814408
   54    57     0     0     0
SMALL
USER_CHARGES
13,17-dimethyl-17-propanoyl-1,2,6,7,8,11,12,14,15,16-decahydrocyclopenta[a]phenanthren-3-one
@<TRIPOS>ATOM
      1 C1          0.2215   -0.2450    1.6731 C.3       1 <0>        -0.1477
      2 C2          0.2507    1.2249    2.0970 C.3       1 <0>        -0.1699
      3 C3         -0.7207    2.0101    1.2539 C.2       1 <0>         0.3711
      4 O1         -1.2960    1.4736    0.3377 O.2       1 <0>        -0.4476
      5 C4         -0.9742    3.4650    1.5543 C.3       1 <0>        -0.1005
      6 C5         -1.9143    4.0763    0.4872 C.3       1 <0>        -0.1185
      7 C6         -3.1465    4.6284    1.2563 C.3       1 <0>        -0.1154
      8 C7         -2.5957    4.8676    2.6686 C.3       1 <0>        -0.0758
      9 H1         -1.9899    5.7728    2.7101 H         1 <0>         0.0837
     10 C8         -1.7138    3.6092    2.8826 C.3       1 <0>        -0.0478
     11 C9         -0.8391    3.8770    4.0951 C.3       1 <0>        -0.1049
     12 C10        -1.7643    3.9176    5.3208 C.3       1 <0>        -0.1037
     13 C11        -2.9251    4.8651    5.0930 C.2       1 <0>        -0.0547
     14 C12        -3.2707    5.6644    6.1011 C.2       1 <0>        -0.1351
     15 C13        -2.5146    5.6192    7.4094 C.3       1 <0>        -0.0829
     16 C14        -2.3042    7.0537    7.9032 C.3       1 <0>        -0.1580
     17 C15        -3.6125    7.7976    7.8923 C.2       1 <0>         0.3863
     18 O2         -3.8472    8.6034    8.7703 O.2       1 <0>        -0.4709
     19 C16        -4.5402    7.6033    6.8702 C.2       1 <0>        -0.2534
     20 C17        -4.3855    6.6024    5.9761 C.2       1 <0>         0.0320
     21 C18        -5.3548    6.3981    4.8387 C.3       1 <0>        -0.0974
     22 C19        -4.5415    6.0930    3.5819 C.3       1 <0>        -0.1115
     23 C20        -3.6475    4.8788    3.7697 C.3       1 <0>        -0.0474
     24 H2         -4.2539    3.9767    3.6882 H         1 <0>         0.0930
     25 C21        -2.5862    2.3770    3.1307 C.3       1 <0>        -0.1619
     26 C22         0.3478    4.2339    1.5981 C.3       1 <0>        -0.1381
     27 H3         -0.7837   -0.6430    1.8112 H         1 <0>         0.0587
     28 H4          0.5034   -0.3260    0.6233 H         1 <0>         0.0614
     29 H5          0.9242   -0.8130    2.2829 H         1 <0>         0.0620
     30 H6         -0.0079    1.2992    3.0601 H         1 <0>         0.0890
     31 H7          1.2560    1.6229    1.9589 H         1 <0>         0.0979
     32 H8         -1.4071    4.8849   -0.0390 H         1 <0>         0.0702
     33 H9         -2.2276    3.3079   -0.2196 H         1 <0>         0.0841
     34 H10        -3.9506    3.8928    1.2760 H         1 <0>         0.0702
     35 H11        -3.4891    5.5634    0.8130 H         1 <0>         0.0697
     36 H12        -0.1070    3.0776    4.2088 H         1 <0>         0.0716
     37 H13        -0.3305    4.8344    3.9820 H         1 <0>         0.0741
     38 H14        -2.1513    2.9164    5.5106 H         1 <0>         0.0843
     39 H15        -1.1949    4.2509    6.1884 H         1 <0>         0.0866
     40 H16        -3.0913    5.0597    8.1460 H         1 <0>         0.0803
     41 H17        -1.5492    5.1366    7.2575 H         1 <0>         0.0944
     42 H18        -1.9444    7.0357    8.8361 H         1 <0>         0.0840
     43 H19        -1.5940    7.5608    7.2500 H         1 <0>         0.0986
     44 H20        -5.4079    8.2437    6.8113 H         1 <0>         0.1343
     45 H21        -5.9425    7.3035    4.6874 H         1 <0>         0.0852
     46 H22        -6.0166    5.5614    5.0623 H         1 <0>         0.0892
     47 H23        -3.9216    6.9568    3.3416 H         1 <0>         0.0684
     48 H24        -5.2256    5.9059    2.7542 H         1 <0>         0.0772
     49 H25        -1.9494    1.5045    3.2766 H         1 <0>         0.0585
     50 H26        -3.1945    2.5359    4.0211 H         1 <0>         0.0715
     51 H27        -3.2361    2.2129    2.2712 H         1 <0>         0.0622
     52 H28         0.8544    4.1406    0.6376 H         1 <0>         0.0589
     53 H29         0.1496    5.2859    1.8037 H         1 <0>         0.0687
     54 H30         0.9811    3.8232    2.3844 H         1 <0>         0.0656
@<TRIPOS>BOND
     1    1    2 1
     2    1   27 1
     3    1   28 1
     4    1   29 1
     5    2    3 1
     6    2   30 1
     7    2   31 1
     8    3    4 2
     9    3    5 1
    10    5   10 1
    11    5    6 1
    12    5   26 1
    13    6    7 1
    14    6   32 1
    15    6   33 1
    16    7    8 1
    17    7   34 1
    18    7   35 1
    19    8    9 1
    20    8   23 1
    21    8   10 1
    22   10   11 1
    23   10   25 1
    24   11   12 1
    25   11   36 1
    26   11   37 1
    27   12   13 1
    28   12   38 1
    29   12   39 1
    30   13   23 1
    31   13   14 2
    32   14   20 1
    33   14   15 1
    34   15   16 1
    35   15   40 1
    36   15   41 1
    37   16   17 1
    38   16   42 1
    39   16   43 1
    40   17   18 2
    41   17   19 1
    42   19   20 2
    43   19   44 1
    44   20   21 1
    45   21   22 1
    46   21   45 1
    47   21   46 1
    48   22   23 1
    49   22   47 1
    50   22   48 1
    51   23   24 1
    52   25   49 1
    53   25   50 1
    54   25   51 1
    55   26   52 1
    56   26   53 1
    57   26   54 1
@<TRIPOS>MOLECULE
ZINC04475232
   51    54     0     0     0
SMALL
USER_CHARGES

@<TRIPOS>ATOM
      1 C1          0.1266    1.4493   -0.0038 C.3       1 <0>        -0.1352
      2 C2          0.0875   -0.0572   -0.0003 C.2       1 <0>        -0.0540
      3 C3         -1.0796   -0.6912   -0.0005 C.2       1 <0>        -0.2202
      4 C4         -2.4342   -0.0965   -0.0188 C.2       1 <0>         0.3900
      5 O1         -2.7031    1.0704   -0.2053 O.2       1 <0>        -0.4430
      6 C5         -3.4386   -1.2188    0.2584 C.3       1 <0>        -0.1690
      7 C6         -2.5457   -2.2885    0.9098 C.3       1 <0>        -0.0677
      8 H1         -2.2811   -1.9406    1.9299 H         1 <0>         0.0796
      9 C7         -1.2987   -2.1921    0.0027 C.3       1 <0>        -0.0145
     10 C8         -0.1792   -3.0135    0.5805 C.3       1 <0>        -0.1022
     11 C9         -0.6632   -4.3944    1.0290 C.3       1 <0>        -0.1119
     12 C10        -2.0729   -4.7310    0.5752 C.3       1 <0>        -0.0661
     13 H2         -2.0936   -4.8527   -0.5133 H         1 <0>         0.0832
     14 C11        -3.0947   -3.6799    0.9903 C.3       1 <0>        -0.0679
     15 H3         -3.3359   -3.8761    2.0558 H         1 <0>         0.0675
     16 C12        -4.4026   -3.8468    0.2244 C.3       1 <0>        -0.1101
     17 C13        -4.7228   -5.3326    0.0451 C.3       1 <0>        -0.0967
     18 C14        -4.0187   -6.1197    1.1264 C.2       1 <0>        -0.0155
     19 C15        -4.7138   -6.8171    2.0158 C.2       1 <0>        -0.2401
     20 C16        -4.0460   -7.5731    3.0723 C.2       1 <0>         0.3875
     21 O2         -4.7043   -8.2473    3.8390 O.2       1 <0>        -0.4656
     22 C17        -2.5488   -7.5196    3.2195 C.3       1 <0>        -0.1692
     23 C18        -2.0072   -6.2352    2.5879 C.3       1 <0>        -0.1060
     24 C19        -2.5092   -6.0886    1.1582 C.3       1 <0>        -0.0356
     25 C20        -1.9540   -7.2105    0.2790 C.3       1 <0>        -0.1403
     26 C21        -1.5881   -2.5953   -1.4442 C.3       1 <0>        -0.1461
     27 H4          1.1634    1.7858   -0.0030 H         1 <0>         0.0662
     28 H5         -0.3762    1.8237   -0.8954 H         1 <0>         0.0786
     29 H6         -0.3789    1.8280    0.8845 H         1 <0>         0.0741
     30 H7          1.0085   -0.6213    0.0025 H         1 <0>         0.1257
     31 H8         -4.1981   -0.8774    0.9655 H         1 <0>         0.0924
     32 H9         -3.9008   -1.5678   -0.6566 H         1 <0>         0.1096
     33 H10         0.6151   -3.1335   -0.1709 H         1 <0>         0.0637
     34 H11         0.2606   -2.4884    1.4407 H         1 <0>         0.0646
     35 H12         0.0326   -5.1531    0.6461 H         1 <0>         0.0663
     36 H13        -0.6153   -4.4386    2.1262 H         1 <0>         0.0669
     37 H14        -5.2081   -3.3733    0.7815 H         1 <0>         0.0707
     38 H15        -4.3134   -3.3878   -0.7568 H         1 <0>         0.0723
     39 H16        -5.7987   -5.4809    0.1298 H         1 <0>         0.0776
     40 H17        -4.3798   -5.6622   -0.9330 H         1 <0>         0.0840
     41 H18        -5.7928   -6.8279    1.9574 H         1 <0>         0.1302
     42 H19        -2.2955   -7.5260    4.2855 H         1 <0>         0.0948
     43 H20        -2.0961   -8.3922    2.7522 H         1 <0>         0.1027
     44 H21        -2.3273   -5.3764    3.1818 H         1 <0>         0.0726
     45 H22        -0.9138   -6.2741    2.5900 H         1 <0>         0.0829
     46 H23        -0.8658   -7.1519    0.2593 H         1 <0>         0.0673
     47 H24        -2.2587   -8.1750    0.6852 H         1 <0>         0.0592
     48 H25        -2.3420   -7.1040   -0.7341 H         1 <0>         0.0615
     49 H26        -0.8000   -2.2125   -2.0927 H         1 <0>         0.0582
     50 H27        -1.6236   -3.6822   -1.5183 H         1 <0>         0.0695
     51 H28        -2.5469   -2.1786   -1.7527 H         1 <0>         0.0576
@<TRIPOS>BOND
     1    1    2 1
     2    1   27 1
     3    1   28 1
     4    1   29 1
     5    2    3 2
     6    2   30 1
     7    3    9 1
     8    3    4 1
     9    4    5 2
    10    4    6 1
    11    6    7 1
    12    6   31 1
    13    6   32 1
    14    7    8 1
    15    7   14 1
    16    7    9 1
    17    9   10 1
    18    9   26 1
    19   10   11 1
    20   10   33 1
    21   10   34 1
    22   11   12 1
    23   11   35 1
    24   11   36 1
    25   12   13 1
    26   12   24 1
    27   12   14 1
    28   14   15 1
    29   14   16 1
    30   16   17 1
    31   16   37 1
    32   16   38 1
    33   17   18 1
    34   17   39 1
    35   17   40 1
    36   18   24 1
    37   18   19 2
    38   19   20 1
    39   19   41 1
    40   20   21 2
    41   20   22 1
    42   22   23 1
    43   22   42 1
    44   22   43 1
    45   23   24 1
    46   23   44 1
    47   23   45 1
    48   24   25 1
    49   25   46 1
    50   25   47 1
    51   25   48 1
    52   26   49 1
    53   26   50 1
    54   26   51 1
@<TRIPOS>MOLECULE
ZINC04475234
   51    54     0     0     0
SMALL
USER_CHARGES

@<TRIPOS>ATOM
      1 C1         -0.0184    1.5028    0.0103 C.3       1 <0>        -0.1353
      2 C2          0.0021   -0.0041    0.0020 C.2       1 <0>        -0.0539
      3 C3         -1.1385   -0.6835    0.0093 C.2       1 <0>        -0.2180
      4 C4         -2.5201   -0.1466    0.0096 C.2       1 <0>         0.3902
      5 O1         -2.8416    1.0081   -0.1703 O.2       1 <0>        -0.4423
      6 C5         -3.4731   -1.3136    0.2977 C.3       1 <0>        -0.1677
      7 C6         -2.5201   -2.3335    0.9395 C.3       1 <0>        -0.0708
      8 H1         -2.2472   -1.9480    1.9512 H         1 <0>         0.0789
      9 C7         -1.3045   -2.1857    0.0028 C.3       1 <0>        -0.0196
     10 C8         -0.1586   -3.0188    0.5126 C.3       1 <0>        -0.1038
     11 C9         -0.6143   -4.4932    0.5645 C.3       1 <0>        -0.1091
     12 C10        -1.8242   -4.6466    1.4643 C.3       1 <0>        -0.0637
     13 H2         -1.4904   -4.2669    2.4567 H         1 <0>         0.0651
     14 C11        -2.9975   -3.7534    1.0802 C.3       1 <0>        -0.0563
     15 H3         -3.6813   -3.7654    1.9734 H         1 <0>         0.0643
     16 C12        -3.8431   -4.2273   -0.0784 C.3       1 <0>        -0.1112
     17 C13        -3.5792   -5.6842   -0.4472 C.3       1 <0>        -0.0916
     18 C14        -3.4005   -6.4537    0.8374 C.2       1 <0>        -0.0155
     19 C15        -4.2433   -7.4203    1.1787 C.2       1 <0>        -0.2416
     20 C16        -4.0933   -8.1386    2.4421 C.2       1 <0>         0.3883
     21 O2         -4.7922   -9.1057    2.6718 O.2       1 <0>        -0.4658
     22 C17        -3.0911   -7.6792    3.4685 C.3       1 <0>        -0.1678
     23 C18        -2.6654   -6.2395    3.1862 C.3       1 <0>        -0.1062
     24 C19        -2.2347   -6.0868    1.7223 C.3       1 <0>        -0.0273
     25 C20        -1.0806   -7.0505    1.4396 C.3       1 <0>        -0.1410
     26 C21        -1.6030   -2.5786   -1.4441 C.3       1 <0>        -0.1454
     27 H4          1.0042    1.8801    0.0026 H         1 <0>         0.0663
     28 H5         -0.5455    1.8639   -0.8728 H         1 <0>         0.0785
     29 H6         -0.5286    1.8543    0.9071 H         1 <0>         0.0738
     30 H7          0.9446   -0.5313   -0.0098 H         1 <0>         0.1258
     31 H8         -4.2363   -1.0050    1.0173 H         1 <0>         0.0916
     32 H9         -3.9337   -1.6870   -0.6070 H         1 <0>         0.1084
     33 H10         0.6993   -2.9298   -0.1571 H         1 <0>         0.0678
     34 H11         0.1282   -2.6935    1.5145 H         1 <0>         0.0660
     35 H12        -0.8231   -4.8621   -0.4313 H         1 <0>         0.0703
     36 H13         0.2379   -5.0489    0.9770 H         1 <0>         0.0669
     37 H14        -4.9021   -4.1735    0.2433 H         1 <0>         0.0574
     38 H15        -3.7661   -3.6025   -0.9501 H         1 <0>         0.0786
     39 H16        -4.4283   -6.0801   -0.9998 H         1 <0>         0.0780
     40 H17        -2.6768   -5.7519   -1.0495 H         1 <0>         0.0842
     41 H18        -5.0513   -7.6824    0.5115 H         1 <0>         0.1307
     42 H19        -3.5597   -7.7222    4.4604 H         1 <0>         0.0954
     43 H20        -2.2292   -8.3432    3.4742 H         1 <0>         0.1038
     44 H21        -3.5008   -5.5648    3.3838 H         1 <0>         0.0713
     45 H22        -1.8293   -5.9700    3.8342 H         1 <0>         0.0796
     46 H23        -0.2379   -6.8080    2.0869 H         1 <0>         0.0669
     47 H24        -1.4052   -8.0729    1.6333 H         1 <0>         0.0586
     48 H25        -0.7765   -6.9572    0.3970 H         1 <0>         0.0644
     49 H26        -0.7619   -2.2973   -2.0778 H         1 <0>         0.0586
     50 H27        -1.7583   -3.6558   -1.5034 H         1 <0>         0.0691
     51 H28        -2.5015   -2.0628   -1.7827 H         1 <0>         0.0550
@<TRIPOS>BOND
     1    1    2 1
     2    1   27 1
     3    1   28 1
     4    1   29 1
     5    2    3 2
     6    2   30 1
     7    3    9 1
     8    3    4 1
     9    4    5 2
    10    4    6 1
    11    6    7 1
    12    6   31 1
    13    6   32 1
    14    7    8 1
    15    7   14 1
    16    7    9 1
    17    9   10 1
    18    9   26 1
    19   10   11 1
    20   10   33 1
    21   10   34 1
    22   11   12 1
    23   11   35 1
    24   11   36 1
    25   12   13 1
    26   12   24 1
    27   12   14 1
    28   14   15 1
    29   14   16 1
    30   16   17 1
    31   16   37 1
    32   16   38 1
    33   17   18 1
    34   17   39 1
    35   17   40 1
    36   18   24 1
    37   18   19 2
    38   19   20 1
    39   19   41 1
    40   20   21 2
    41   20   22 1
    42   22   23 1
    43   22   42 1
    44   22   43 1
    45   23   24 1
    46   23   44 1
    47   23   45 1
    48   24   25 1
    49   25   46 1
    50   25   47 1
    51   25   48 1
    52   26   49 1
    53   26   50 1
    54   26   51 1
@<TRIPOS>MOLECULE
ZINC04475235
   51    54     0     0     0
SMALL
USER_CHARGES

@<TRIPOS>ATOM
      1 C1         -0.0184    1.5028    0.0103 C.3       1 <0>        -0.1334
      2 C2          0.0021   -0.0041    0.0020 C.2       1 <0>        -0.0532
      3 C3         -1.1437   -0.6865    0.0093 C.2       1 <0>        -0.2116
      4 C4         -2.4987   -0.1061    0.0105 C.2       1 <0>         0.3897
      5 O1         -2.7671    1.0739   -0.0795 O.2       1 <0>        -0.4460
      6 C5         -3.4986   -1.2425    0.1495 C.3       1 <0>        -0.1810
      7 C6         -2.6567   -2.4154    0.7318 C.3       1 <0>        -0.0649
      8 H1         -3.0910   -3.3884    0.5115 H         1 <0>         0.1016
      9 C7         -1.3161   -2.1830    0.0029 C.3       1 <0>        -0.0123
     10 C8         -0.1729   -2.9564    0.6004 C.3       1 <0>        -0.1049
     11 C9         -0.0654   -2.8530    2.1109 C.3       1 <0>        -0.1071
     12 C10        -1.3920   -3.0179    2.8397 C.3       1 <0>        -0.0593
     13 H2         -1.2181   -2.5767    3.8629 H         1 <0>         0.0612
     14 C11        -2.4721   -2.1558    2.2224 C.3       1 <0>        -0.0708
     15 H3         -2.1458   -1.0993    2.3272 H         1 <0>         0.0681
     16 C12        -3.7937   -2.2800    2.9746 C.3       1 <0>        -0.1151
     17 C13        -4.2542   -3.7382    2.9711 C.3       1 <0>        -0.0976
     18 C14        -3.1691   -4.5773    3.6190 C.2       1 <0>        -0.0138
     19 C15        -3.5177   -5.3654    4.6323 C.2       1 <0>        -0.2438
     20 C16        -2.5366   -6.2231    5.3004 C.2       1 <0>         0.3875
     21 O2         -2.7964   -6.7853    6.3472 O.2       1 <0>        -0.4613
     22 C17        -1.1945   -6.4062    4.6234 C.3       1 <0>        -0.1670
     23 C18        -0.7465   -5.0605    4.0667 C.3       1 <0>        -0.1085
     24 C19        -1.7654   -4.4686    3.0933 C.3       1 <0>        -0.0175
     25 C20        -1.7000   -5.2988    1.8142 C.3       1 <0>        -0.1490
     26 C21        -1.4835   -2.6375   -1.4545 C.3       1 <0>        -0.1460
     27 H4          1.0042    1.8801    0.0026 H         1 <0>         0.0652
     28 H5         -0.5455    1.8639   -0.8728 H         1 <0>         0.0785
     29 H6         -0.5286    1.8543    0.9071 H         1 <0>         0.0756
     30 H7          0.9446   -0.5313   -0.0098 H         1 <0>         0.1248
     31 H8         -4.2969   -0.9592    0.8383 H         1 <0>         0.0964
     32 H9         -3.9247   -1.5058   -0.8177 H         1 <0>         0.1045
     33 H10        -0.2149   -3.9934    0.2761 H         1 <0>         0.0750
     34 H11         0.7647   -2.5568    0.1697 H         1 <0>         0.0567
     35 H12         0.6477   -3.6062    2.4748 H         1 <0>         0.0684
     36 H13         0.3616   -1.8710    2.3711 H         1 <0>         0.0606
     37 H14        -3.6552   -1.9504    4.0084 H         1 <0>         0.0671
     38 H15        -4.5542   -1.6554    2.5073 H         1 <0>         0.0747
     39 H16        -5.1779   -3.8304    3.5442 H         1 <0>         0.0770
     40 H17        -4.4245   -4.0720    1.9501 H         1 <0>         0.0864
     41 H18        -4.5477   -5.3720    4.9695 H         1 <0>         0.1315
     42 H19        -0.4632   -6.7594    5.3582 H         1 <0>         0.0922
     43 H20        -1.2750   -7.1447    3.8265 H         1 <0>         0.1022
     44 H21        -0.6083   -4.3592    4.8891 H         1 <0>         0.0679
     45 H22         0.2000   -5.1861    3.5424 H         1 <0>         0.0819
     46 H23        -0.6867   -5.2699    1.4136 H         1 <0>         0.0704
     47 H24        -1.9736   -6.3303    2.0362 H         1 <0>         0.0571
     48 H25        -2.3930   -4.8892    1.0793 H         1 <0>         0.0649
     49 H26        -0.5873   -2.3820   -2.0199 H         1 <0>         0.0577
     50 H27        -1.6360   -3.7164   -1.4834 H         1 <0>         0.0626
     51 H28        -2.3458   -2.1367   -1.8945 H         1 <0>         0.0567
@<TRIPOS>BOND
     1    1    2 1
     2    1   27 1
     3    1   28 1
     4    1   29 1
     5    2    3 2
     6    2   30 1
     7    3    9 1
     8    3    4 1
     9    4    5 2
    10    4    6 1
    11    6    7 1
    12    6   31 1
    13    6   32 1
    14    7    8 1
    15    7   14 1
    16    7    9 1
    17    9   10 1
    18    9   26 1
    19   10   11 1
    20   10   33 1
    21   10   34 1
    22   11   12 1
    23   11   35 1
    24   11   36 1
    25   12   13 1
    26   12   24 1
    27   12   14 1
    28   14   15 1
    29   14   16 1
    30   16   17 1
    31   16   37 1
    32   16   38 1
    33   17   18 1
    34   17   39 1
    35   17   40 1
    36   18   24 1
    37   18   19 2
    38   19   20 1
    39   19   41 1
    40   20   21 2
    41   20   22 1
    42   22   23 1
    43   22   42 1
    44   22   43 1
    45   23   24 1
    46   23   44 1
    47   23   45 1
    48   24   25 1
    49   25   46 1
    50   25   47 1
    51   25   48 1
    52   26   49 1
    53   26   50 1
    54   26   51 1
@<TRIPOS>MOLECULE
ZINC13783217
   51    54     0     0     0
SMALL
USER_CHARGES

@<TRIPOS>ATOM
      1 C1         -0.0246    1.5012   -0.0652 C.3       1 <0>        -0.1446
      2 C2          0.0021   -0.0041    0.0020 C.2       1 <0>        -0.0544
      3 C3         -1.1391   -0.6875    0.1100 C.2       1 <0>        -0.2100
      4 C4         -1.2761   -2.1485    0.2273 C.2       1 <0>         0.3914
      5 O1         -0.3675   -2.9523    0.2498 O.2       1 <0>        -0.4493
      6 C5         -2.7592   -2.4702    0.3160 C.3       1 <0>        -0.1794
      7 C6         -3.4400   -1.2429   -0.3645 C.3       1 <0>        -0.0670
      8 H1         -4.4754   -1.1126   -0.0498 H         1 <0>         0.0980
      9 C7         -2.5321   -0.1077    0.1414 C.3       1 <0>        -0.0144
     10 C8         -2.6648    1.1552   -0.6785 C.3       1 <0>        -0.1298
     11 C9         -2.4155    0.8605   -2.1550 C.3       1 <0>        -0.1221
     12 C10        -3.4580   -0.1552   -2.6463 C.3       1 <0>        -0.0606
     13 H2         -4.4594    0.2515   -2.5057 H         1 <0>         0.0814
     14 C11        -3.3200   -1.4716   -1.8764 C.3       1 <0>        -0.0731
     15 H3         -2.3360   -1.8923   -2.0835 H         1 <0>         0.0671
     16 C12        -4.3674   -2.5138   -2.2603 C.3       1 <0>        -0.1116
     17 C13        -4.7868   -2.4171   -3.7195 C.3       1 <0>        -0.0935
     18 C14        -3.6671   -1.8028   -4.5220 C.2       1 <0>        -0.0198
     19 C15        -3.1040   -2.4721   -5.5226 C.2       1 <0>        -0.2427
     20 C16        -2.0096   -1.8893   -6.2966 C.2       1 <0>         0.3872
     21 O2         -1.5248   -2.5065   -7.2219 O.2       1 <0>        -0.4644
     22 C17        -1.4837   -0.5201   -5.9450 C.3       1 <0>        -0.1698
     23 C18        -1.7207   -0.2654   -4.4524 C.3       1 <0>        -0.1089
     24 C19        -3.1973   -0.3758   -4.1420 C.3       1 <0>        -0.0304
     25 C20        -3.9843    0.6549   -4.9540 C.3       1 <0>        -0.1414
     26 C21        -2.9009    0.2201    1.5896 C.3       1 <0>        -0.1431
     27 H4         -0.5743    1.8934    0.7904 H         1 <0>         0.0784
     28 H5          0.9959    1.8838   -0.0478 H         1 <0>         0.0662
     29 H6         -0.5146    1.8151   -0.9868 H         1 <0>         0.0910
     30 H7          0.9447   -0.5298   -0.0372 H         1 <0>         0.1230
     31 H8         -2.9864   -3.3862   -0.2293 H         1 <0>         0.0949
     32 H9         -3.0720   -2.5543    1.3567 H         1 <0>         0.1045
     33 H10        -3.6693    1.5603   -0.5564 H         1 <0>         0.0681
     34 H11        -1.9384    1.8893   -0.3299 H         1 <0>         0.0880
     35 H12        -2.5045    1.7818   -2.7308 H         1 <0>         0.0693
     36 H13        -1.4152    0.4460   -2.2803 H         1 <0>         0.0722
     37 H14        -3.9585   -3.5074   -2.0769 H         1 <0>         0.0661
     38 H15        -5.2472   -2.3763   -1.6316 H         1 <0>         0.0714
     39 H16        -5.0038   -3.4144   -4.1023 H         1 <0>         0.0769
     40 H17        -5.6773   -1.7940   -3.8015 H         1 <0>         0.0844
     41 H18        -3.4602   -3.4618   -5.7673 H         1 <0>         0.1302
     42 H19        -0.4157   -0.4735   -6.1582 H         1 <0>         0.0953
     43 H20        -2.0080    0.2341   -6.5318 H         1 <0>         0.1037
     44 H21        -1.1571   -0.9898   -3.8645 H         1 <0>         0.0718
     45 H22        -1.3973    0.7441   -4.1985 H         1 <0>         0.0837
     46 H23        -3.6652    1.6588   -4.6737 H         1 <0>         0.0673
     47 H24        -3.7992    0.4984   -6.0167 H         1 <0>         0.0599
     48 H25        -5.0491    0.5419   -4.7501 H         1 <0>         0.0619
     49 H26        -2.2071    0.9636    1.9819 H         1 <0>         0.0585
     50 H27        -3.9159    0.6158    1.6254 H         1 <0>         0.0628
     51 H28        -2.8425   -0.6855    2.1934 H         1 <0>         0.0559
@<TRIPOS>BOND
     1    1    2 1
     2    1   27 1
     3    1   28 1
     4    1   29 1
     5    2    3 2
     6    2   30 1
     7    3    9 1
     8    3    4 1
     9    4    5 2
    10    4    6 1
    11    6    7 1
    12    6   31 1
    13    6   32 1
    14    7    8 1
    15    7   14 1
    16    7    9 1
    17    9   10 1
    18    9   26 1
    19   10   11 1
    20   10   33 1
    21   10   34 1
    22   11   12 1
    23   11   35 1
    24   11   36 1
    25   12   13 1
    26   12   24 1
    27   12   14 1
    28   14   15 1
    29   14   16 1
    30   16   17 1
    31   16   37 1
    32   16   38 1
    33   17   18 1
    34   17   39 1
    35   17   40 1
    36   18   24 1
    37   18   19 2
    38   19   20 1
    39   19   41 1
    40   20   21 2
    41   20   22 1
    42   22   23 1
    43   22   42 1
    44   22   43 1
    45   23   24 1
    46   23   44 1
    47   23   45 1
    48   24   25 1
    49   25   46 1
    50   25   47 1
    51   25   48 1
    52   26   49 1
    53   26   50 1
    54   26   51 1
@<TRIPOS>MOLECULE
ZINC05276265
   62    65     0     0     0
SMALL
USER_CHARGES
(17-acetyl-6,10,13-trimethyl-3-oxo-2,6,7,8,9,11,12,14,15,16-decahydro-1H-cyclopenta[a]phenanthren-17-yl) acetate
@<TRIPOS>ATOM
      1 C1         -2.4708    5.4937    3.8655 C.3       1 <0>        -0.1518
      2 C2         -3.0808    4.5941    2.7988 C.3       1 <0>        -0.0623
      3 H1         -3.1106    5.1245    1.8466 H         1 <0>         0.0903
      4 C3         -2.2270    3.3350    2.6431 C.3       1 <0>        -0.1075
      5 C4         -2.9204    2.2822    1.8063 C.3       1 <0>        -0.0585
      6 H2         -3.2140    1.4730    2.5296 H         1 <0>         0.0647
      7 C5         -4.2188    2.7160    1.1394 C.3       1 <0>        -0.0637
      8 H3         -4.7048    1.7645    0.8208 H         1 <0>         0.0658
      9 C6         -4.0309    3.4995   -0.1435 C.3       1 <0>        -0.1103
     10 C7         -3.1285    2.7353   -1.1348 C.3       1 <0>        -0.1045
     11 C8         -1.7969    2.4901   -0.4662 C.3       1 <0>        -0.0313
     12 C9         -2.0166    1.6313    0.7946 C.3       1 <0>        -0.0741
     13 H4         -2.4795    0.6633    0.4859 H         1 <0>         0.0795
     14 C10        -0.5721    1.3273    1.2143 C.3       1 <0>        -0.1177
     15 C11         0.1025    0.9960   -0.1483 C.3       1 <0>        -0.1320
     16 C12        -0.7991    1.6176   -1.2459 C.3       1 <0>         0.0790
     17 C13         0.0161    2.4741   -2.1759 C.2       1 <0>         0.3605
     18 O1          1.0613    2.9478   -1.8000 O.2       1 <0>        -0.4355
     19 C14        -0.4717    2.7409   -3.5766 C.3       1 <0>        -0.1993
     20 O2         -1.5019    0.5842   -1.9772 O.3       1 <0>        -0.3314
     21 C15        -0.7524   -0.3090   -2.6421 C.2       1 <0>         0.4526
     22 O3          0.4481   -0.1786   -2.6836 O.2       1 <0>        -0.5026
     23 C16        -1.4081   -1.4744   -3.3370 C.3       1 <0>        -0.1486
     24 C17        -1.1069    3.8229   -0.1858 C.3       1 <0>        -0.1568
     25 C18        -5.2092    3.3415    2.1089 C.3       1 <0>        -0.0297
     26 C19        -4.4702    4.1381    3.1649 C.2       1 <0>        -0.0089
     27 C20        -5.0328    4.3721    4.3394 C.2       1 <0>        -0.2402
     28 C21        -6.3597    3.8418    4.6634 C.2       1 <0>         0.3848
     29 O4         -6.9177    4.2140    5.6773 O.2       1 <0>        -0.4657
     30 C22        -7.0338    2.8468    3.7585 C.3       1 <0>        -0.1586
     31 C23        -6.0129    2.2349    2.8002 C.3       1 <0>        -0.1084
     32 C24        -6.1733    4.2796    1.3801 C.3       1 <0>        -0.1421
     33 H5         -2.4112    4.9503    4.8085 H         1 <0>         0.0600
     34 H6         -1.4702    5.7964    3.5567 H         1 <0>         0.0634
     35 H7         -3.0943    6.3784    3.9946 H         1 <0>         0.0601
     36 H8         -2.0884    2.9191    3.6564 H         1 <0>         0.0592
     37 H9         -1.2495    3.5898    2.2750 H         1 <0>         0.0801
     38 H10        -4.9959    3.6151   -0.6577 H         1 <0>         0.0680
     39 H11        -3.6272    4.4835    0.0568 H         1 <0>         0.0685
     40 H12        -2.9920    3.3332   -2.0370 H         1 <0>         0.0668
     41 H13        -3.5995    1.7857   -1.3943 H         1 <0>         0.0776
     42 H14        -0.5425    0.4565    1.8727 H         1 <0>         0.0718
     43 H15        -0.0981    2.1785    1.6905 H         1 <0>         0.0787
     44 H16         0.1575   -0.0848   -0.2801 H         1 <0>         0.0748
     45 H17         1.0993    1.4310   -0.1887 H         1 <0>         0.0933
     46 H18        -1.3833    2.3466   -3.6929 H         1 <0>         0.0746
     47 H19        -0.5167    3.8165   -3.7469 H         1 <0>         0.0954
     48 H20         0.2141    2.2880   -4.2926 H         1 <0>         0.0954
     49 H21        -1.6567   -1.1940   -4.3606 H         1 <0>         0.1063
     50 H22        -0.7235   -2.3225   -3.3487 H         1 <0>         0.1045
     51 H23        -2.3184   -1.7496   -2.8044 H         1 <0>         0.0954
     52 H24        -0.9391    4.3499   -1.1250 H         1 <0>         0.0562
     53 H25        -1.7384    4.4294    0.4634 H         1 <0>         0.0791
     54 H26        -0.1506    3.6409    0.3045 H         1 <0>         0.0693
     55 H27        -4.5517    4.9774    5.0932 H         1 <0>         0.1330
     56 H28        -7.7509    3.3057    3.2340 H         1 <0>         0.0941
     57 H29        -7.4678    2.0474    4.3729 H         1 <0>         0.0976
     58 H30        -6.5302    1.6410    2.0444 H         1 <0>         0.0800
     59 H31        -5.3301    1.5896    3.3561 H         1 <0>         0.0719
     60 H32        -6.7279    3.7181    0.6282 H         1 <0>         0.0669
     61 H33        -6.8704    4.7130    2.0973 H         1 <0>         0.0579
     62 H34        -5.6086    5.0761    0.8955 H         1 <0>         0.0646
@<TRIPOS>BOND
     1    1    2 1
     2    1   33 1
     3    1   34 1
     4    1   35 1
     5    2    3 1
     6    2   26 1
     7    2    4 1
     8    4    5 1
     9    4   36 1
    10    4   37 1
    11    5    6 1
    12    5   12 1
    13    5    7 1
    14    7    8 1
    15    7    9 1
    16    7   25 1
    17    9   10 1
    18    9   38 1
    19    9   39 1
    20   10   11 1
    21   10   40 1
    22   10   41 1
    23   11   16 1
    24   11   12 1
    25   11   24 1
    26   12   13 1
    27   12   14 1
    28   14   15 1
    29   14   42 1
    30   14   43 1
    31   15   16 1
    32   15   44 1
    33   15   45 1
    34   16   17 1
    35   16   20 1
    36   17   18 2
    37   17   19 1
    38   19   46 1
    39   19   47 1
    40   19   48 1
    41   20   21 1
    42   21   22 2
    43   21   23 1
    44   23   49 1
    45   23   50 1
    46   23   51 1
    47   24   52 1
    48   24   53 1
    49   24   54 1
    50   25   31 1
    51   25   26 1
    52   25   32 1
    53   26   27 2
    54   27   28 1
    55   27   55 1
    56   28   29 2
    57   28   30 1
    58   30   31 1
    59   30   56 1
    60   30   57 1
    61   31   58 1
    62   31   59 1
    63   32   60 1
    64   32   61 1
    65   32   62 1
@<TRIPOS>MOLECULE
ZINC13491405
   35    37     0     0     0
SMALL
USER_CHARGES
3-(4,4-dimethyl-2-oxo-1H-3,1-benzoxazin-6-yl)benzonitrile
@<TRIPOS>ATOM
      1 C1         -0.0127    1.0858    0.0080 C.3       1 <0>        -0.1438
      2 C2         -0.7288    1.5792    1.2668 C.3       1 <0>         0.1665
      3 C3         -2.1466    1.0649    1.2766 C.ar      1 <0>        -0.1556
      4 C4         -2.4653   -0.1436    0.7053 C.ar      1 <0>        -0.0558
      5 C5         -3.7853   -0.5938    0.7265 C.ar      1 <0>        -0.0678
      6 C6         -4.7763    0.1839    1.3234 C.ar      1 <0>        -0.0671
      7 C7         -4.4524    1.3980    1.8924 C.ar      1 <0>        -0.1424
      8 C8         -3.1385    1.8437    1.8699 C.ar      1 <0>         0.1691
      9 N1         -2.7871    3.0723    2.4396 N.am      1 <0>        -0.6687
     10 C9         -1.5974    3.6306    2.1375 C.2       1 <0>         0.6616
     11 O1         -1.2814    4.6857    2.6509 O.2       1 <0>        -0.5013
     12 O2         -0.7565    3.0330    1.2740 O.3       1 <0>        -0.3352
     13 C10        -4.1344   -1.8992    0.1139 C.ar      1 <0>        -0.0395
     14 C11        -3.1442   -2.6751   -0.4886 C.ar      1 <0>        -0.0838
     15 C12        -3.4653   -3.8930   -1.0554 C.ar      1 <0>        -0.1119
     16 C13        -4.7693   -4.3461   -1.0394 C.ar      1 <0>        -0.0696
     17 C14        -5.7711   -3.5762   -0.4440 C.ar      1 <0>        -0.0199
     18 C15        -5.4505   -2.3484    0.1343 C.ar      1 <0>        -0.0653
     19 C16        -7.1237   -4.0461   -0.4278 C.1       1 <0>         0.2485
     20 N2         -8.1967   -4.4189   -0.4150 N.1       1 <0>        -0.4075
     21 C17         0.0090    1.0739    2.5083 C.3       1 <0>        -0.1703
     22 H1          0.0021   -0.0041    0.0020 H         1 <0>         0.0874
     23 H2          1.0099    1.4631    0.0003 H         1 <0>         0.0795
     24 H3         -0.5399    1.4469   -0.8751 H         1 <0>         0.0746
     25 H4         -1.6953   -0.7437    0.2432 H         1 <0>         0.1407
     26 H5         -5.7985   -0.1645    1.3406 H         1 <0>         0.1371
     27 H6         -5.2202    2.0009    2.3545 H         1 <0>         0.1387
     28 H7         -3.3954    3.5197    3.0484 H         1 <0>         0.4306
     29 H8         -2.1229   -2.3244   -0.5085 H         1 <0>         0.1336
     30 H9         -2.6938   -4.4913   -1.5172 H         1 <0>         0.1387
     31 H10        -5.0152   -5.2972   -1.4882 H         1 <0>         0.1355
     32 H11        -6.2209   -1.7490    0.5965 H         1 <0>         0.1362
     33 H12         1.0316    1.4512    2.5019 H         1 <0>         0.0801
     34 H13        -0.5028    1.4265    3.4037 H         1 <0>         0.0615
     35 H14         0.0237   -0.0160    2.5036 H         1 <0>         0.0857
@<TRIPOS>BOND
     1    1    2 1
     2    1   22 1
     3    1   23 1
     4    1   24 1
     5    2   12 1
     6    2    3 1
     7    2   21 1
     8    3    8 ar
     9    3    4 ar
    10    4    5 ar
    11    4   25 1
    12    5    6 ar
    13    5   13 1
    14    6    7 ar
    15    6   26 1
    16    7    8 ar
    17    7   27 1
    18    8    9 1
    19    9   10 am
    20    9   28 1
    21   10   11 2
    22   10   12 1
    23   13   18 ar
    24   13   14 ar
    25   14   15 ar
    26   14   29 1
    27   15   16 ar
    28   15   30 1
    29   16   17 ar
    30   16   31 1
    31   17   18 ar
    32   17   19 1
    33   18   32 1
    34   19   20 3
    35   21   33 1
    36   21   34 1
    37   21   35 1
@<TRIPOS>MOLECULE
ZINC03881873
   62    65     0     0     0
SMALL
USER_CHARGES

@<TRIPOS>ATOM
      1 C1         -0.1679    1.0831    0.3679 C.3       1 <0>        -0.1497
      2 C2         -0.0409   -0.4338    0.2753 C.3       1 <0>        -0.0701
      3 H1         -1.0424   -0.8741    0.3557 H         1 <0>         0.0872
      4 C3          0.5383   -0.8028   -1.0977 C.3       1 <0>        -0.1183
      5 C4          0.6601   -2.3203   -1.2005 C.3       1 <0>        -0.0708
      6 H2         -0.3360   -2.7549   -1.0197 H         1 <0>         0.0738
      7 C5          1.6219   -2.8415   -0.1370 C.3       1 <0>        -0.0658
      8 H3          1.6956   -3.9290   -0.2268 H         1 <0>         0.0787
      9 C6          2.9972   -2.2239   -0.4089 C.3       1 <0>        -0.1187
     10 C7          3.5155   -2.7910   -1.7281 C.3       1 <0>        -0.0982
     11 C8          2.5849   -2.5439   -2.8906 C.3       1 <0>        -0.0246
     12 C9          1.1000   -2.7532   -2.5942 C.3       1 <0>        -0.0692
     13 H4          0.8239   -3.8167   -2.7596 H         1 <0>         0.0871
     14 C10         0.3825   -1.8511   -3.6341 C.3       1 <0>        -0.1216
     15 C11         1.3253   -0.6483   -3.8330 C.3       1 <0>        -0.1333
     16 C12         2.7439   -1.1489   -3.5036 C.3       1 <0>         0.0909
     17 C13         3.5556   -1.2430   -4.7760 C.2       1 <0>         0.3552
     18 O1          2.9990   -1.3876   -5.8379 O.2       1 <0>        -0.4347
     19 C14         5.0590   -1.1563   -4.7189 C.3       1 <0>        -0.2075
     20 O2          3.3889   -0.2587   -2.5930 O.3       1 <0>        -0.3248
     21 C15         3.5411    1.0145   -2.9902 C.2       1 <0>         0.4498
     22 O3          3.0782    1.3775   -4.0456 O.2       1 <0>        -0.4995
     23 C16         4.2893    1.9910   -2.1198 C.3       1 <0>        -0.1506
     24 C17         2.9777   -3.5593   -3.9892 C.3       1 <0>        -0.1722
     25 C18         1.1467   -2.4868    1.2723 C.3       1 <0>        -0.0265
     26 C19         0.8444   -1.0140    1.3588 C.2       1 <0>        -0.0008
     27 C20         1.3279   -0.2397    2.3227 C.2       1 <0>        -0.2451
     28 C21         2.1491   -0.8095    3.4021 C.2       1 <0>         0.3879
     29 O4          2.8755   -0.1178    4.0822 O.2       1 <0>        -0.4587
     30 C22         2.0097   -2.2985    3.6419 C.3       1 <0>        -0.1692
     31 C23         2.1555   -2.9898    2.2885 C.3       1 <0>        -0.1096
     32 C24        -0.1623   -3.2422    1.5367 C.3       1 <0>        -0.1472
     33 H5          0.8205    1.5359    0.2895 H         1 <0>         0.0579
     34 H6         -0.7988    1.4451   -0.4439 H         1 <0>         0.0619
     35 H7         -0.6161    1.3525    1.3242 H         1 <0>         0.0598
     36 H8         -0.1466   -0.4312   -1.8635 H         1 <0>         0.0725
     37 H9          1.5071   -0.3278   -1.2173 H         1 <0>         0.0803
     38 H10         2.9215   -1.1415   -0.4628 H         1 <0>         0.0798
     39 H11         3.6964   -2.4931    0.3846 H         1 <0>         0.0663
     40 H12         4.4891   -2.3485   -1.9478 H         1 <0>         0.0690
     41 H13         3.6539   -3.8709   -1.6153 H         1 <0>         0.0660
     42 H14         0.2475   -2.3871   -4.5782 H         1 <0>         0.0697
     43 H15        -0.5904   -1.5255   -3.2635 H         1 <0>         0.0777
     44 H16         1.2847   -0.3137   -4.8734 H         1 <0>         0.0857
     45 H17         1.0494    0.1748   -3.1783 H         1 <0>         0.0829
     46 H18         5.4721   -2.1432   -4.5102 H         1 <0>         0.1011
     47 H19         5.4389   -0.7983   -5.6757 H         1 <0>         0.0890
     48 H20         5.3533   -0.4649   -3.9293 H         1 <0>         0.0819
     49 H21         4.6297    1.4854   -1.2161 H         1 <0>         0.0936
     50 H22         5.1496    2.3787   -2.6652 H         1 <0>         0.1072
     51 H23         3.6296    2.8152   -1.8484 H         1 <0>         0.1070
     52 H24         2.7685   -4.5707   -3.6408 H         1 <0>         0.0728
     53 H25         2.4005   -3.3593   -4.8920 H         1 <0>         0.0696
     54 H26         4.0410   -3.4634   -4.2092 H         1 <0>         0.0600
     55 H27         1.1491    0.8250    2.3697 H         1 <0>         0.1341
     56 H28         2.7972   -2.6387    4.3166 H         1 <0>         0.0909
     57 H29         1.0358   -2.5174    4.0770 H         1 <0>         0.0990
     58 H30         2.0028   -4.0641    2.4279 H         1 <0>         0.0795
     59 H31         3.1670   -2.8305    1.9253 H         1 <0>         0.0761
     60 H32         0.0151   -4.3149    1.4585 H         1 <0>         0.0640
     61 H33        -0.5226   -3.0055    2.5378 H         1 <0>         0.0585
     62 H34        -0.9094   -2.9430    0.8015 H         1 <0>         0.0620
@<TRIPOS>BOND
     1    1    2 1
     2    1   33 1
     3    1   34 1
     4    1   35 1
     5    2    3 1
     6    2   26 1
     7    2    4 1
     8    4    5 1
     9    4   36 1
    10    4   37 1
    11    5    6 1
    12    5   12 1
    13    5    7 1
    14    7    8 1
    15    7    9 1
    16    7   25 1
    17    9   10 1
    18    9   38 1
    19    9   39 1
    20   10   11 1
    21   10   40 1
    22   10   41 1
    23   11   16 1
    24   11   12 1
    25   11   24 1
    26   12   13 1
    27   12   14 1
    28   14   15 1
    29   14   42 1
    30   14   43 1
    31   15   16 1
    32   15   44 1
    33   15   45 1
    34   16   17 1
    35   16   20 1
    36   17   18 2
    37   17   19 1
    38   19   46 1
    39   19   47 1
    40   19   48 1
    41   20   21 1
    42   21   22 2
    43   21   23 1
    44   23   49 1
    45   23   50 1
    46   23   51 1
    47   24   52 1
    48   24   53 1
    49   24   54 1
    50   25   31 1
    51   25   26 1
    52   25   32 1
    53   26   27 2
    54   27   28 1
    55   27   55 1
    56   28   29 2
    57   28   30 1
    58   30   31 1
    59   30   56 1
    60   30   57 1
    61   31   58 1
    62   31   59 1
    63   32   60 1
    64   32   61 1
    65   32   62 1
@<TRIPOS>MOLECULE
ZINC03881874
   62    65     0     0     0
SMALL
USER_CHARGES

@<TRIPOS>ATOM
      1 C1          0.8713    2.2122   -0.6393 C.3       1 <0>        -0.1534
      2 C2          0.6587    0.7019   -0.5187 C.3       1 <0>        -0.0659
      3 H1         -0.4089    0.4817   -0.5198 H         1 <0>         0.0910
      4 C3          1.3299   -0.0065   -1.6970 C.3       1 <0>        -0.1085
      5 C4          1.2179   -1.5230   -1.5050 C.3       1 <0>        -0.0704
      6 H2          0.1694   -1.7803   -1.3545 H         1 <0>         0.0783
      7 C5          2.0077   -1.9372   -0.2659 C.3       1 <0>        -0.0663
      8 H3          3.0520   -1.6472   -0.3822 H         1 <0>         0.0773
      9 C6          1.9088   -3.4588   -0.1053 C.3       1 <0>        -0.1196
     10 C7          2.5535   -4.1252   -1.3169 C.3       1 <0>        -0.0995
     11 C8          1.7951   -3.7603   -2.5960 C.3       1 <0>        -0.0276
     12 C9          1.7198   -2.2332   -2.7391 C.3       1 <0>        -0.0748
     13 H4          1.0627   -2.0004   -3.5771 H         1 <0>         0.0759
     14 C10         3.1538   -1.8191   -3.1184 C.3       1 <0>        -0.1162
     15 C11         3.6111   -2.9422   -4.0778 C.3       1 <0>        -0.1279
     16 C12         2.7035   -4.1735   -3.7847 C.3       1 <0>         0.0769
     17 C13         1.8593   -4.5463   -4.9761 C.2       1 <0>         0.3563
     18 O1          1.5454   -3.7029   -5.7813 O.2       1 <0>        -0.4337
     19 C14         1.4069   -5.9716   -5.1627 C.3       1 <0>        -0.2071
     20 O2          3.5348   -5.2731   -3.4080 O.3       1 <0>        -0.3303
     21 C15         4.4173   -5.7103   -4.3200 C.2       1 <0>         0.4507
     22 O3          4.5337   -5.1313   -5.3741 O.2       1 <0>        -0.5009
     23 C16         5.2630   -6.9233   -4.0292 C.3       1 <0>        -0.1486
     24 C17         0.4247   -4.4378   -2.6581 C.3       1 <0>        -0.1510
     25 C18         1.4188   -1.2605    0.9789 C.3       1 <0>        -0.0293
     26 C19         1.2804    0.2016    0.7724 C.2       1 <0>        -0.0140
     27 C20         1.6788    1.1099    1.6625 C.2       1 <0>        -0.2488
     28 C21         2.2717    0.6799    2.9336 C.2       1 <0>         0.3866
     29 O4          2.9789    1.4157    3.5898 O.2       1 <0>        -0.4589
     30 C22         1.9536   -0.7324    3.3843 C.3       1 <0>        -0.1680
     31 C23         2.2439   -1.6475    2.1935 C.3       1 <0>        -0.1032
     32 C24         0.0001   -1.7970    1.1802 C.3       1 <0>        -0.1506
     33 H5          1.9393    2.4300   -0.6380 H         1 <0>         0.0609
     34 H6          0.4290    2.5683   -1.5697 H         1 <0>         0.0621
     35 H7          0.3971    2.7143    0.2040 H         1 <0>         0.0620
     36 H8          0.8345    0.2805   -2.6244 H         1 <0>         0.0714
     37 H9          2.3812    0.2780   -1.7418 H         1 <0>         0.0699
     38 H10         2.4312   -3.7651    0.8010 H         1 <0>         0.0709
     39 H11         0.8609   -3.7520   -0.0418 H         1 <0>         0.0726
     40 H12         3.5876   -3.7918   -1.4036 H         1 <0>         0.0692
     41 H13         2.5369   -5.2069   -1.1844 H         1 <0>         0.0734
     42 H14         3.1530   -0.8556   -3.6280 H         1 <0>         0.0752
     43 H15         3.7905   -1.7865   -2.2344 H         1 <0>         0.0738
     44 H16         3.4585   -2.6347   -5.1124 H         1 <0>         0.0852
     45 H17         4.6626   -3.1734   -3.9078 H         1 <0>         0.0770
     46 H18         0.4805   -6.1339   -4.6116 H         1 <0>         0.1037
     47 H19         1.2377   -6.1634   -6.2223 H         1 <0>         0.0894
     48 H20         2.1752   -6.6486   -4.7891 H         1 <0>         0.0807
     49 H21         5.0197   -7.3068   -3.0384 H         1 <0>         0.0935
     50 H22         5.0640   -7.6924   -4.7755 H         1 <0>         0.1070
     51 H23         6.3171   -6.6479   -4.0635 H         1 <0>         0.1069
     52 H24        -0.1522   -4.1726   -1.7721 H         1 <0>         0.0745
     53 H25        -0.1055   -4.1043   -3.5501 H         1 <0>         0.0579
     54 H26         0.5555   -5.5193   -2.6962 H         1 <0>         0.0683
     55 H27         1.5656    2.1623    1.4479 H         1 <0>         0.1409
     56 H28         2.5923   -1.0060    4.2242 H         1 <0>         0.0917
     57 H29         0.9058   -0.8008    3.6769 H         1 <0>         0.1007
     58 H30         1.9860   -2.6644    2.4890 H         1 <0>         0.0815
     59 H31         3.3012   -1.6125    1.9307 H         1 <0>         0.0716
     60 H32         0.0367   -2.8773    1.3201 H         1 <0>         0.0688
     61 H33        -0.4429   -1.3313    2.0606 H         1 <0>         0.0577
     62 H34        -0.6041   -1.5644    0.3033 H         1 <0>         0.0631
@<TRIPOS>BOND
     1    1    2 1
     2    1   33 1
     3    1   34 1
     4    1   35 1
     5    2    3 1
     6    2   26 1
     7    2    4 1
     8    4    5 1
     9    4   36 1
    10    4   37 1
    11    5    6 1
    12    5   12 1
    13    5    7 1
    14    7    8 1
    15    7    9 1
    16    7   25 1
    17    9   10 1
    18    9   38 1
    19    9   39 1
    20   10   11 1
    21   10   40 1
    22   10   41 1
    23   11   16 1
    24   11   12 1
    25   11   24 1
    26   12   13 1
    27   12   14 1
    28   14   15 1
    29   14   42 1
    30   14   43 1
    31   15   16 1
    32   15   44 1
    33   15   45 1
    34   16   17 1
    35   16   20 1
    36   17   18 2
    37   17   19 1
    38   19   46 1
    39   19   47 1
    40   19   48 1
    41   20   21 1
    42   21   22 2
    43   21   23 1
    44   23   49 1
    45   23   50 1
    46   23   51 1
    47   24   52 1
    48   24   53 1
    49   24   54 1
    50   25   31 1
    51   25   26 1
    52   25   32 1
    53   26   27 2
    54   27   28 1
    55   27   55 1
    56   28   29 2
    57   28   30 1
    58   30   31 1
    59   30   56 1
    60   30   57 1
    61   31   58 1
    62   31   59 1
    63   32   60 1
    64   32   61 1
    65   32   62 1
@<TRIPOS>MOLECULE
ZINC03977948
   62    65     0     0     0
SMALL
USER_CHARGES

@<TRIPOS>ATOM
      1 C1         -0.6383    0.7748    0.3420 C.3       1 <0>        -0.1537
      2 C2         -0.3766   -0.7214    0.1583 C.3       1 <0>        -0.0650
      3 H1         -1.3263   -1.2479    0.0636 H         1 <0>         0.0904
      4 C3          0.4533   -0.9412   -1.0977 C.3       1 <0>        -0.1073
      5 C4          1.4222   -2.1138   -0.9674 C.3       1 <0>        -0.0724
      6 H2          2.3531   -1.7453   -0.5364 H         1 <0>         0.0738
      7 C5          0.8850   -3.2206   -0.0780 C.3       1 <0>        -0.0610
      8 H3         -0.0708   -3.5711   -0.4676 H         1 <0>         0.0757
      9 C6          1.8841   -4.3866   -0.0384 C.3       1 <0>        -0.1358
     10 C7          2.0537   -4.9464   -1.4479 C.3       1 <0>        -0.1024
     11 C8          2.5916   -3.8805   -2.3763 C.3       1 <0>        -0.0327
     12 C9          1.7126   -2.6224   -2.3853 C.3       1 <0>        -0.0738
     13 H4          0.7981   -2.7597   -2.9623 H         1 <0>         0.0935
     14 C10         2.6798   -1.5856   -3.0318 C.3       1 <0>        -0.1249
     15 C11         4.0535   -1.9270   -2.4136 C.3       1 <0>        -0.1326
     16 C12         3.9925   -3.3997   -1.9755 C.3       1 <0>         0.0853
     17 C13         5.0439   -4.1964   -2.7041 C.2       1 <0>         0.3544
     18 O1          5.5211   -3.7716   -3.7289 O.2       1 <0>        -0.4318
     19 C14         5.4998   -5.5232   -2.1539 C.3       1 <0>        -0.2062
     20 O2          4.1704   -3.5225   -0.5630 O.3       1 <0>        -0.3114
     21 C15         5.3499   -3.1246   -0.0605 C.2       1 <0>         0.4400
     22 O3          6.1649   -2.5955   -0.7786 O.2       1 <0>        -0.4970
     23 C16         5.6575   -3.3380    1.3992 C.3       1 <0>        -0.1543
     24 C17         2.6441   -4.4378   -3.8003 C.3       1 <0>        -0.1584
     25 C18         0.7030   -2.7246    1.3624 C.3       1 <0>        -0.0308
     26 C19         0.3757   -1.2513    1.3536 C.2       1 <0>        -0.0089
     27 C20         0.7097   -0.4449    2.3558 C.2       1 <0>        -0.2472
     28 C21         1.4495   -0.9476    3.5120 C.2       1 <0>         0.3864
     29 O4          1.7245   -0.2010    4.4280 O.2       1 <0>        -0.4656
     30 C22         1.8703   -2.3950    3.5659 C.3       1 <0>        -0.1724
     31 C23         2.0062   -2.9209    2.1395 C.3       1 <0>        -0.1101
     32 C24        -0.4177   -3.5181    2.0373 C.3       1 <0>        -0.1388
     33 H5          0.3116    1.3009    0.4367 H         1 <0>         0.0604
     34 H6         -1.1810    1.1575   -0.5223 H         1 <0>         0.0616
     35 H7         -1.2320    0.9319    1.2426 H         1 <0>         0.0605
     36 H8         -0.2187   -1.1316   -1.9345 H         1 <0>         0.0683
     37 H9          1.0231   -0.0356   -1.3059 H         1 <0>         0.0668
     38 H10         2.8459   -4.0302    0.3305 H         1 <0>         0.1116
     39 H11         1.5064   -5.1680    0.6211 H         1 <0>         0.0646
     40 H12         2.7487   -5.7857   -1.4214 H         1 <0>         0.0651
     41 H13         1.0884   -5.2925   -1.8171 H         1 <0>         0.0686
     42 H14         2.7058   -1.7097   -4.1144 H         1 <0>         0.0720
     43 H15         2.3835   -0.5701   -2.7690 H         1 <0>         0.0754
     44 H16         4.8415   -1.7880   -3.1537 H         1 <0>         0.0912
     45 H17         4.2399   -1.2954   -1.5450 H         1 <0>         0.0744
     46 H18         4.8229   -6.3083   -2.4910 H         1 <0>         0.1009
     47 H19         6.5083   -5.7363   -2.5083 H         1 <0>         0.0888
     48 H20         5.4979   -5.4848   -1.0646 H         1 <0>         0.0827
     49 H21         4.8101   -3.8251    1.8817 H         1 <0>         0.0930
     50 H22         6.5419   -3.9677    1.4959 H         1 <0>         0.1081
     51 H23         5.8429   -2.3754    1.8759 H         1 <0>         0.1067
     52 H24         1.6352   -4.6831   -4.1319 H         1 <0>         0.0731
     53 H25         3.0741   -3.6905   -4.4672 H         1 <0>         0.0687
     54 H26         3.2605   -5.3366   -3.8162 H         1 <0>         0.0567
     55 H27         0.4306    0.5976    2.3153 H         1 <0>         0.1359
     56 H28         2.8161   -2.4804    4.1009 H         1 <0>         0.0967
     57 H29         1.1054   -2.9787    4.0779 H         1 <0>         0.1010
     58 H30         2.2599   -3.9807    2.1650 H         1 <0>         0.0868
     59 H31         2.8077   -2.3635    1.6549 H         1 <0>         0.0687
     60 H32        -0.1580   -4.5766    2.0476 H         1 <0>         0.0679
     61 H33        -0.5470   -3.1657    3.0606 H         1 <0>         0.0587
     62 H34        -1.3464   -3.3772    1.4844 H         1 <0>         0.0604
@<TRIPOS>BOND
     1    1    2 1
     2    1   33 1
     3    1   34 1
     4    1   35 1
     5    2    3 1
     6    2   26 1
     7    2    4 1
     8    4    5 1
     9    4   36 1
    10    4   37 1
    11    5    6 1
    12    5   12 1
    13    5    7 1
    14    7    8 1
    15    7    9 1
    16    7   25 1
    17    9   10 1
    18    9   38 1
    19    9   39 1
    20   10   11 1
    21   10   40 1
    22   10   41 1
    23   11   16 1
    24   11   12 1
    25   11   24 1
    26   12   13 1
    27   12   14 1
    28   14   15 1
    29   14   42 1
    30   14   43 1
    31   15   16 1
    32   15   44 1
    33   15   45 1
    34   16   17 1
    35   16   20 1
    36   17   18 2
    37   17   19 1
    38   19   46 1
    39   19   47 1
    40   19   48 1
    41   20   21 1
    42   21   22 2
    43   21   23 1
    44   23   49 1
    45   23   50 1
    46   23   51 1
    47   24   52 1
    48   24   53 1
    49   24   54 1
    50   25   31 1
    51   25   26 1
    52   25   32 1
    53   26   27 2
    54   27   28 1
    55   27   55 1
    56   28   29 2
    57   28   30 1
    58   30   31 1
    59   30   56 1
    60   30   57 1
    61   31   58 1
    62   31   59 1
    63   32   60 1
    64   32   61 1
    65   32   62 1
@<TRIPOS>MOLECULE
ZINC03977949
   62    65     0     0     0
SMALL
USER_CHARGES

@<TRIPOS>ATOM
      1 C1         -0.7169    0.2362    0.9386 C.3       1 <0>        -0.1548
      2 C2         -0.5144   -1.2395    0.5891 C.3       1 <0>        -0.0650
      3 H1         -1.4739   -1.6844    0.3255 H         1 <0>         0.0913
      4 C3          0.4382   -1.3536   -0.5929 C.3       1 <0>        -0.1265
      5 C4          1.3273   -2.5887   -0.5107 C.3       1 <0>        -0.0626
      6 H2          2.2242   -2.3376    0.0556 H         1 <0>         0.0734
      7 C5          0.6315   -3.7593    0.1689 C.3       1 <0>        -0.0714
      8 H3          1.2960   -4.6229    0.1428 H         1 <0>         0.0816
      9 C6         -0.6347   -4.0921   -0.6220 C.3       1 <0>        -0.1233
     10 C7         -0.2095   -4.5908   -2.0021 C.3       1 <0>        -0.0996
     11 C8          0.5885   -3.5284   -2.7596 C.3       1 <0>        -0.0251
     12 C9          1.7366   -3.0009   -1.9139 C.3       1 <0>        -0.0791
     13 H4          2.1809   -2.1497   -2.4298 H         1 <0>         0.0780
     14 C10         2.7430   -4.1660   -1.9104 C.3       1 <0>        -0.1173
     15 C11         2.6519   -4.7202   -3.3514 C.3       1 <0>        -0.1357
     16 C12         1.3190   -4.2685   -3.9136 C.3       1 <0>         0.0807
     17 C13         1.5036   -3.3423   -5.0879 C.2       1 <0>         0.3555
     18 O1          2.4948   -2.6569   -5.1664 O.2       1 <0>        -0.4331
     19 C14         0.4513   -3.2713   -6.1642 C.3       1 <0>        -0.2081
     20 O2          0.5717   -5.4206   -4.3087 O.3       1 <0>        -0.3305
     21 C15         1.0988   -6.1862   -5.2771 C.2       1 <0>         0.4508
     22 O3          2.1899   -5.9261   -5.7263 O.2       1 <0>        -0.5012
     23 C16         0.3297   -7.3702   -5.8042 C.3       1 <0>        -0.1485
     24 C17        -0.3177   -2.4133   -3.2850 C.3       1 <0>        -0.1614
     25 C18         0.2887   -3.4514    1.6192 C.3       1 <0>        -0.0261
     26 C19         0.0631   -1.9624    1.7805 C.2       1 <0>        -0.0096
     27 C20         0.3181   -1.3117    2.9101 C.2       1 <0>        -0.2442
     28 C21         0.8865   -2.0011    4.0668 C.2       1 <0>         0.3866
     29 O4          1.0939   -1.3924    5.0956 O.2       1 <0>        -0.4649
     30 C22         1.2142   -3.4709    3.9793 C.3       1 <0>        -0.1690
     31 C23         1.4620   -3.8264    2.5264 C.3       1 <0>        -0.1103
     32 C24        -0.9492   -4.2507    2.0308 C.3       1 <0>        -0.1412
     33 H5          0.2421    0.6820    1.2024 H         1 <0>         0.0609
     34 H6         -1.1364    0.7589    0.0790 H         1 <0>         0.0613
     35 H7         -1.4007    0.3190    1.7834 H         1 <0>         0.0604
     36 H8         -0.1452   -1.3999   -1.5124 H         1 <0>         0.0874
     37 H9          1.0701   -0.4660   -0.6231 H         1 <0>         0.0663
     38 H10        -1.1977   -4.8700   -0.1062 H         1 <0>         0.0769
     39 H11        -1.2498   -3.1983   -0.7262 H         1 <0>         0.0708
     40 H12         0.4061   -5.4826   -1.8847 H         1 <0>         0.0692
     41 H13        -1.0989   -4.8464   -2.5781 H         1 <0>         0.0722
     42 H14         3.7494   -3.8038   -1.7008 H         1 <0>         0.0743
     43 H15         2.4484   -4.9261   -1.1869 H         1 <0>         0.0767
     44 H16         3.4440   -4.2932   -3.9666 H         1 <0>         0.0866
     45 H17         2.7328   -5.8072   -3.3393 H         1 <0>         0.0789
     46 H18        -0.2390   -2.4569   -5.9443 H         1 <0>         0.1039
     47 H19         0.9286   -3.0928   -7.1278 H         1 <0>         0.0908
     48 H20        -0.0969   -4.2127   -6.1991 H         1 <0>         0.0808
     49 H21        -0.6245   -7.4450   -5.2826 H         1 <0>         0.0936
     50 H22         0.1511   -7.2414   -6.8717 H         1 <0>         0.1071
     51 H23         0.9062   -8.2805   -5.6394 H         1 <0>         0.1069
     52 H24        -1.0489   -2.1490   -2.5210 H         1 <0>         0.0819
     53 H25         0.2858   -1.5388   -3.5282 H         1 <0>         0.0625
     54 H26        -0.8358   -2.7575   -4.1801 H         1 <0>         0.0678
     55 H27         0.1022   -0.2555    2.9748 H         1 <0>         0.1372
     56 H28         2.0797   -3.6898    4.6047 H         1 <0>         0.0995
     57 H29         0.3594   -4.0563    4.3180 H         1 <0>         0.0990
     58 H30         1.6589   -4.8954    2.4450 H         1 <0>         0.0784
     59 H31         2.3482   -3.2670    2.2267 H         1 <0>         0.0661
     60 H32        -0.7459   -5.3162    1.9236 H         1 <0>         0.0684
     61 H33        -1.1951   -4.0305    3.0696 H         1 <0>         0.0572
     62 H34        -1.7886   -3.9750    1.3924 H         1 <0>         0.0676
@<TRIPOS>BOND
     1    1    2 1
     2    1   33 1
     3    1   34 1
     4    1   35 1
     5    2    3 1
     6    2   26 1
     7    2    4 1
     8    4    5 1
     9    4   36 1
    10    4   37 1
    11    5    6 1
    12    5   12 1
    13    5    7 1
    14    7    8 1
    15    7    9 1
    16    7   25 1
    17    9   10 1
    18    9   38 1
    19    9   39 1
    20   10   11 1
    21   10   40 1
    22   10   41 1
    23   11   16 1
    24   11   12 1
    25   11   24 1
    26   12   13 1
    27   12   14 1
    28   14   15 1
    29   14   42 1
    30   14   43 1
    31   15   16 1
    32   15   44 1
    33   15   45 1
    34   16   17 1
    35   16   20 1
    36   17   18 2
    37   17   19 1
    38   19   46 1
    39   19   47 1
    40   19   48 1
    41   20   21 1
    42   21   22 2
    43   21   23 1
    44   23   49 1
    45   23   50 1
    46   23   51 1
    47   24   52 1
    48   24   53 1
    49   24   54 1
    50   25   31 1
    51   25   26 1
    52   25   32 1
    53   26   27 2
    54   27   28 1
    55   27   55 1
    56   28   29 2
    57   28   30 1
    58   30   31 1
    59   30   56 1
    60   30   57 1
    61   31   58 1
    62   31   59 1
    63   32   60 1
    64   32   61 1
    65   32   62 1
@<TRIPOS>MOLECULE
ZINC03875332
   57    60     0     0     0
SMALL
USER_CHARGES

@<TRIPOS>ATOM
      1 C1          1.7167    1.2309    1.5187 C.3       1 <0>        -0.1455
      2 C2          1.3454   -0.1868    1.0794 C.3       1 <0>        -0.1160
      3 H1          2.1316   -0.6004    0.4477 H         1 <0>         0.0891
      4 C3         -0.0035   -0.1703    0.3097 C.3       1 <0>        -0.1065
      5 C4         -1.0253   -0.5076    1.4012 C.3       1 <0>        -0.0810
      6 H2         -1.1939    0.3572    2.0429 H         1 <0>         0.0898
      7 C5         -2.3489   -1.0698    0.9157 C.3       1 <0>        -0.1006
      8 H3         -2.1727   -1.9725    0.3308 H         1 <0>         0.1130
      9 C6         -3.0706   -0.0302    0.0559 C.3       1 <0>        -0.1154
     10 C7         -4.3873   -0.6154   -0.4645 C.3       1 <0>        -0.0951
     11 C8         -5.1933   -1.0974    0.7271 C.2       1 <0>        -0.0294
     12 C9         -6.4507   -0.6977    0.8564 C.2       1 <0>        -0.2208
     13 C10        -7.2574   -1.1277    2.0090 C.2       1 <0>         0.4077
     14 O1         -8.4233   -0.7949    2.1114 O.2       1 <0>        -0.4562
     15 C11        -6.6219   -1.9706    3.0360 C.2       1 <0>        -0.2091
     16 C12        -5.3670   -2.3631    2.8829 C.2       1 <0>        -0.0691
     17 C13        -4.5212   -2.0131    1.7070 C.3       1 <0>        -0.0316
     18 C14        -3.1875   -1.4118    2.1576 C.3       1 <0>         0.1617
     19 C15        -2.4590   -2.3846    3.0797 C.3       1 <0>         0.0883
     20 H4         -3.0477   -2.5237    3.9864 H         1 <0>         0.0725
     21 C16        -1.0633   -1.8673    3.4626 C.3       1 <0>        -0.1275
     22 C17        -0.2906   -1.6287    2.1842 C.3       1 <0>        -0.0389
     23 C18         1.1308   -1.0889    2.3202 C.3       1 <0>         0.1101
     24 C19         2.1234   -2.2228    2.3194 C.2       1 <0>         0.3354
     25 O2          2.5416   -2.6584    1.2736 O.2       1 <0>        -0.4125
     26 C20         2.5942   -2.8131    3.6236 C.3       1 <0>         0.0292
     27 O3          3.5247   -3.8656    3.3618 O.3       1 <0>        -0.5557
     28 O4          1.2564   -0.3206    3.5186 O.3       1 <0>        -0.5365
     29 C21        -0.2826   -2.9176    1.3599 C.3       1 <0>        -0.1713
     30 O5         -2.3223   -3.6426    2.4156 O.3       1 <0>        -0.5409
     31 F1         -3.4514   -0.2383    2.8722 F         1 <0>        -0.1921
     32 C22        -4.1781   -3.3115    0.9740 C.3       1 <0>        -0.1371
     33 H5          2.6440    1.2029    2.0910 H         1 <0>         0.0522
     34 H6          1.8515    1.8603    0.6390 H         1 <0>         0.0629
     35 H7          0.9191    1.6397    2.1391 H         1 <0>         0.0692
     36 H8         -0.1972    0.8177   -0.1080 H         1 <0>         0.0758
     37 H9         -0.0104   -0.9291   -0.4728 H         1 <0>         0.0749
     38 H10        -3.2795    0.8552    0.6564 H         1 <0>         0.0744
     39 H11        -2.4377    0.2454   -0.7876 H         1 <0>         0.0816
     40 H12        -4.9453    0.1528   -0.9998 H         1 <0>         0.0846
     41 H13        -4.1799   -1.4524   -1.1313 H         1 <0>         0.0881
     42 H14        -6.8864   -0.0507    0.1094 H         1 <0>         0.1389
     43 H15        -7.1785   -2.2675    3.9126 H         1 <0>         0.1407
     44 H16        -4.9291   -2.9744    3.6581 H         1 <0>         0.1272
     45 H17        -1.1524   -0.9285    4.0092 H         1 <0>         0.0906
     46 H18        -0.5482   -2.6072    4.0751 H         1 <0>         0.0741
     47 H19         3.0790   -2.0392    4.2187 H         1 <0>         0.0812
     48 H20         1.7401   -3.2112    4.1715 H         1 <0>         0.0812
     49 H21         3.8701   -4.2922    4.1579 H         1 <0>         0.3864
     50 H22         2.1272    0.0825    3.6379 H         1 <0>         0.3793
     51 H23         0.3951   -2.8035    0.5138 H         1 <0>         0.0588
     52 H24         0.0519   -3.7461    1.9842 H         1 <0>         0.0516
     53 H25        -1.2891   -3.1213    0.9944 H         1 <0>         0.1113
     54 H26        -1.8675   -4.3164    2.9393 H         1 <0>         0.3771
     55 H27        -3.2905   -3.1585    0.3600 H         1 <0>         0.0769
     56 H28        -3.9848   -4.0995    1.7019 H         1 <0>         0.0989
     57 H29        -5.0143   -3.6016    0.3379 H         1 <0>         0.0541
@<TRIPOS>BOND
     1    1    2 1
     2    1   33 1
     3    1   34 1
     4    1   35 1
     5    2    3 1
     6    2   23 1
     7    2    4 1
     8    4    5 1
     9    4   36 1
    10    4   37 1
    11    5    6 1
    12    5   22 1
    13    5    7 1
    14    7    8 1
    15    7   18 1
    16    7    9 1
    17    9   10 1
    18    9   38 1
    19    9   39 1
    20   10   11 1
    21   10   40 1
    22   10   41 1
    23   11   17 1
    24   11   12 2
    25   12   13 1
    26   12   42 1
    27   13   14 2
    28   13   15 1
    29   15   16 2
    30   15   43 1
    31   16   17 1
    32   16   44 1
    33   17   18 1
    34   17   32 1
    35   18   19 1
    36   18   31 1
    37   19   20 1
    38   19   21 1
    39   19   30 1
    40   21   22 1
    41   21   45 1
    42   21   46 1
    43   22   23 1
    44   22   29 1
    45   23   24 1
    46   23   28 1
    47   24   25 2
    48   24   26 1
    49   26   27 1
    50   26   47 1
    51   26   48 1
    52   27   49 1
    53   28   50 1
    54   29   51 1
    55   29   52 1
    56   29   53 1
    57   30   54 1
    58   32   55 1
    59   32   56 1
    60   32   57 1
@<TRIPOS>MOLECULE
ZINC29133439
   35    37     0     0     0
SMALL
USER_CHARGES
5-(7-fluoro-3,3-dimethyl-2-oxo-indolin-5-yl)-1-methyl-pyrrole-2-carbonitrile
@<TRIPOS>ATOM
      1 C1         -4.0366   -2.9574    0.0487 C.3       1 <0>        -0.1312
      2 C2         -4.3540   -2.0255    1.2199 C.3       1 <0>        -0.0521
      3 C3         -3.8526   -0.6280    0.9357 C.ar      1 <0>        -0.1032
      4 C4         -2.5983   -0.1173    0.7032 C.ar      1 <0>        -0.0791
      5 C5         -2.4375    1.2503    0.4642 C.ar      1 <0>        -0.0147
      6 C6         -3.5565    2.0868    0.4701 C.ar      1 <0>        -0.0941
      7 C7         -4.8105    1.5646    0.6994 C.ar      1 <0>         0.0879
      8 C8         -4.9717    0.1968    0.9376 C.ar      1 <0>         0.1177
      9 N1         -6.1208   -0.5515    1.1953 N.am      1 <0>        -0.6677
     10 C9         -5.8506   -1.8556    1.3720 C.2       1 <0>         0.5427
     11 O1         -6.6547   -2.7322    1.6088 O.2       1 <0>        -0.4886
     12 F1         -5.8886    2.3788    0.6985 F         1 <0>        -0.1322
     13 C10        -1.0932    1.8084    0.2132 C.2       1 <0>         0.0918
     14 C11        -0.7243    3.1267    0.3719 C.2       1 <0>        -0.1720
     15 C12         0.6251    3.2315    0.0374 C.2       1 <0>        -0.1077
     16 C13         1.0609    1.9730   -0.3272 C.2       1 <0>         0.0606
     17 N2         -0.0034    1.1064   -0.2189 N.pl3     1 <0>        -0.4140
     18 C14         0.0286   -0.3286   -0.5122 C.3       1 <0>         0.0519
     19 C15         2.3870    1.6295   -0.7445 C.1       1 <0>         0.2755
     20 N3          3.4390    1.3571   -1.0755 N.1       1 <0>        -0.4009
     21 C16        -3.7411   -2.5620    2.5150 C.3       1 <0>        -0.1310
     22 H1         -2.9464   -3.0687   -0.0463 H         1 <0>         0.0753
     23 H2         -4.4439   -2.5310   -0.8799 H         1 <0>         0.0640
     24 H3         -4.4913   -3.9424    0.2303 H         1 <0>         0.0767
     25 H4         -1.7387   -0.7712    0.7054 H         1 <0>         0.1408
     26 H5         -3.4386    3.1452    0.2906 H         1 <0>         0.1543
     27 H6         -7.1024   -0.0565    1.2336 H         1 <0>         0.4445
     28 H7         -1.3640    3.9324    0.7005 H         1 <0>         0.1546
     29 H8          1.2205    4.1324    0.0588 H         1 <0>         0.1556
     30 H9          1.0392   -0.6133   -0.8402 H         1 <0>         0.0918
     31 H10        -0.6936   -0.5559   -1.3102 H         1 <0>         0.0936
     32 H11        -0.2358   -0.8939    0.3936 H         1 <0>         0.0930
     33 H12        -3.9799   -1.8794    3.3439 H         1 <0>         0.0642
     34 H13        -2.6493   -2.6335    2.4018 H         1 <0>         0.0753
     35 H14        -4.1535   -3.5588    2.7304 H         1 <0>         0.0766
@<TRIPOS>BOND
     1    1    2 1
     2    1   22 1
     3    1   23 1
     4    1   24 1
     5    2   10 1
     6    2    3 1
     7    2   21 1
     8    3    8 ar
     9    3    4 ar
    10    4    5 ar
    11    4   25 1
    12    5    6 ar
    13    5   13 1
    14    6    7 ar
    15    6   26 1
    16    7    8 ar
    17    7   12 1
    18    8    9 1
    19    9   10 am
    20    9   27 1
    21   10   11 2
    22   13   17 1
    23   13   14 2
    24   14   15 1
    25   14   28 1
    26   15   16 2
    27   15   29 1
    28   16   17 1
    29   16   19 1
    30   17   18 1
    31   18   30 1
    32   18   31 1
    33   18   32 1
    34   19   20 3
    35   21   33 1
    36   21   34 1
    37   21   35 1
@<TRIPOS>MOLECULE
ZINC19132424
   51    54     0     0     0
SMALL
USER_CHARGES

@<TRIPOS>ATOM
      1 C1         -0.6973    1.6727    0.0117 C.3       1 <0>        -0.1349
      2 C2         -0.4090    0.1941   -0.0301 C.2       1 <0>        -0.0497
      3 C3         -1.4126   -0.6834    0.0318 C.2       1 <0>        -0.2144
      4 C4         -2.8557   -0.3722    0.1362 C.2       1 <0>         0.3900
      5 O1         -3.3524    0.7347    0.1227 O.2       1 <0>        -0.4439
      6 C5         -3.6080   -1.6977    0.2632 C.3       1 <0>        -0.1661
      7 C6         -2.5362   -2.6363    0.8312 C.3       1 <0>        -0.0773
      8 H1         -2.3869   -2.4553    1.8956 H         1 <0>         0.0851
      9 C7         -1.3003   -2.1771    0.0028 C.3       1 <0>        -0.0262
     10 C8         -0.0773   -2.7994    0.6443 C.3       1 <0>        -0.1011
     11 C9         -0.2013   -4.3216    0.4683 C.3       1 <0>        -0.1224
     12 C10        -1.4951   -4.8584    1.0727 C.3       1 <0>        -0.0696
     13 H2         -1.4592   -4.7327    2.1549 H         1 <0>         0.0710
     14 C11        -2.7377   -4.1160    0.5601 C.3       1 <0>        -0.0767
     15 H3         -2.8379   -4.2889   -0.5114 H         1 <0>         0.0891
     16 C12        -3.9811   -4.6127    1.3039 C.3       1 <0>        -0.1134
     17 C13        -4.2108   -6.0881    0.9697 C.3       1 <0>        -0.0978
     18 C14        -2.9495   -6.8664    1.2970 C.2       1 <0>        -0.0223
     19 C15        -3.0786   -7.9832    2.0130 C.2       1 <0>        -0.2411
     20 C16        -1.8951   -8.7838    2.3446 C.2       1 <0>         0.3878
     21 O2         -1.8907   -9.5620    3.2755 O.2       1 <0>        -0.4575
     22 C17        -0.6776   -8.5877    1.4623 C.3       1 <0>        -0.1674
     23 C18        -0.4285   -7.0839    1.3553 C.3       1 <0>        -0.1071
     24 C19        -1.6193   -6.3524    0.7491 C.3       1 <0>        -0.0237
     25 C20        -1.5884   -6.5091   -0.7725 C.3       1 <0>        -0.1480
     26 C21        -1.4281   -2.6754   -1.4382 C.3       1 <0>        -0.1484
     27 H4          0.2391    2.2273   -0.0497 H         1 <0>         0.0660
     28 H5         -1.3352    1.9425   -0.8299 H         1 <0>         0.0781
     29 H6         -1.2042    1.9178    0.9450 H         1 <0>         0.0765
     30 H7          0.6097   -0.1554   -0.1101 H         1 <0>         0.1253
     31 H8         -4.4451   -1.6027    0.9548 H         1 <0>         0.0926
     32 H9         -3.9483   -2.0445   -0.7125 H         1 <0>         0.1056
     33 H10         0.8252   -2.4403    0.1497 H         1 <0>         0.0670
     34 H11        -0.0459   -2.5491    1.7047 H         1 <0>         0.0670
     35 H12        -0.1810   -4.5590   -0.5953 H         1 <0>         0.0765
     36 H13         0.6455   -4.8055    0.9550 H         1 <0>         0.0677
     37 H14        -3.8316   -4.5016    2.3779 H         1 <0>         0.0673
     38 H15        -4.8482   -4.0297    0.9937 H         1 <0>         0.0732
     39 H16        -5.0411   -6.4719    1.5624 H         1 <0>         0.0776
     40 H17        -4.4386   -6.1911   -0.0913 H         1 <0>         0.0846
     41 H18        -4.0553   -8.2990    2.3489 H         1 <0>         0.1339
     42 H19         0.1877   -9.0756    1.9111 H         1 <0>         0.0924
     43 H20        -0.8665   -9.0034    0.4726 H         1 <0>         0.0998
     44 H21        -0.2033   -6.6895    2.3461 H         1 <0>         0.0716
     45 H22         0.4270   -6.9109    0.7024 H         1 <0>         0.0807
     46 H23        -0.6479   -6.1165   -1.1592 H         1 <0>         0.0711
     47 H24        -1.6753   -7.5644   -1.0310 H         1 <0>         0.0593
     48 H25        -2.4200   -5.9579   -1.2115 H         1 <0>         0.0647
     49 H26        -0.5748   -2.3270   -2.0201 H         1 <0>         0.0577
     50 H27        -1.4520   -3.7651   -1.4450 H         1 <0>         0.0744
     51 H28        -2.3485   -2.2890   -1.8759 H         1 <0>         0.0550
@<TRIPOS>BOND
     1    1    2 1
     2    1   27 1
     3    1   28 1
     4    1   29 1
     5    2    3 2
     6    2   30 1
     7    3    9 1
     8    3    4 1
     9    4    5 2
    10    4    6 1
    11    6    7 1
    12    6   31 1
    13    6   32 1
    14    7    8 1
    15    7   14 1
    16    7    9 1
    17    9   10 1
    18    9   26 1
    19   10   11 1
    20   10   33 1
    21   10   34 1
    22   11   12 1
    23   11   35 1
    24   11   36 1
    25   12   13 1
    26   12   24 1
    27   12   14 1
    28   14   15 1
    29   14   16 1
    30   16   17 1
    31   16   37 1
    32   16   38 1
    33   17   18 1
    34   17   39 1
    35   17   40 1
    36   18   24 1
    37   18   19 2
    38   19   20 1
    39   19   41 1
    40   20   21 2
    41   20   22 1
    42   22   23 1
    43   22   42 1
    44   22   43 1
    45   23   24 1
    46   23   44 1
    47   23   45 1
    48   24   25 1
    49   25   46 1
    50   25   47 1
    51   25   48 1
    52   26   49 1
    53   26   50 1
    54   26   51 1
@<TRIPOS>MOLECULE
ZINC19132424
   51    54     0     0     0
SMALL
USER_CHARGES

@<TRIPOS>ATOM
      1 C1          0.2301    1.0229    0.1380 C.3       1 <0>        -0.1408
      2 C2         -0.0191   -0.4599    0.0369 C.2       1 <0>        -0.0517
      3 C3         -1.2693   -0.9247   -0.0107 C.2       1 <0>        -0.2128
      4 C4         -1.6839   -2.3424   -0.1033 C.2       1 <0>         0.3918
      5 O1         -0.9470   -3.3062   -0.0914 O.2       1 <0>        -0.4480
      6 C5         -3.2088   -2.3732   -0.2159 C.3       1 <0>        -0.1655
      7 C6         -3.5290   -0.9869   -0.7886 C.3       1 <0>        -0.0776
      8 H1         -3.3086   -0.9477   -1.8554 H         1 <0>         0.0851
      9 C7         -2.5288   -0.1143    0.0256 C.3       1 <0>        -0.0248
     10 C8         -2.4996    1.2538   -0.6238 C.3       1 <0>        -0.1131
     11 C9         -3.8954    1.8708   -0.4382 C.3       1 <0>        -0.1230
     12 C10        -4.9892    0.9855   -1.0275 C.3       1 <0>        -0.0696
     13 H2         -4.8717    0.9513   -2.1106 H         1 <0>         0.0707
     14 C11        -4.9234   -0.4578   -0.5074 C.3       1 <0>        -0.0764
     15 H3         -5.1131   -0.4575    0.5660 H         1 <0>         0.0891
     16 C12        -5.9593   -1.3185   -1.2367 C.3       1 <0>        -0.1135
     17 C13        -7.3628   -0.8159   -0.8921 C.3       1 <0>        -0.0978
     18 C14        -7.4496    0.6619   -1.2269 C.2       1 <0>        -0.0222
     19 C15        -8.4997    1.0764   -1.9354 C.2       1 <0>        -0.2412
     20 C16        -8.6431    2.4965   -2.2736 C.2       1 <0>         0.3878
     21 O2         -9.3340    2.8659   -3.2001 O.2       1 <0>        -0.4575
     22 C17        -7.8826    3.4785   -1.4039 C.3       1 <0>        -0.1675
     23 C18        -6.4407    2.9818   -1.3075 C.3       1 <0>        -0.1069
     24 C19        -6.3589    1.5897   -0.6944 C.3       1 <0>        -0.0237
     25 C20        -6.4677    1.7000    0.8278 C.3       1 <0>        -0.1479
     26 C21        -3.0143    0.0187    1.4704 C.3       1 <0>        -0.1486
     27 H4          1.3036    1.2099    0.1649 H         1 <0>         0.0671
     28 H5         -0.2044    1.5242   -0.7269 H         1 <0>         0.0852
     29 H6         -0.2285    1.4071    1.0491 H         1 <0>         0.0776
     30 H7          0.8139   -1.1465    0.0029 H         1 <0>         0.1231
     31 H8         -3.5304   -3.1583   -0.9002 H         1 <0>         0.0932
     32 H9         -3.6666   -2.5018    0.7649 H         1 <0>         0.1063
     33 H10        -1.7494    1.8791   -0.1397 H         1 <0>         0.0801
     34 H11        -2.2745    1.1564   -1.6859 H         1 <0>         0.0665
     35 H12        -4.0845    2.0077    0.6265 H         1 <0>         0.0762
     36 H13        -3.9221    2.8432   -0.9301 H         1 <0>         0.0674
     37 H14        -5.8005   -1.2461   -2.3127 H         1 <0>         0.0672
     38 H15        -5.8567   -2.3570   -0.9217 H         1 <0>         0.0731
     39 H16        -8.1012   -1.3664   -1.4750 H         1 <0>         0.0775
     40 H17        -7.5519   -0.9613    0.1714 H         1 <0>         0.0846
     41 H18        -9.2457    0.3662   -2.2604 H         1 <0>         0.1339
     42 H19        -7.9037    4.4692   -1.8580 H         1 <0>         0.0923
     43 H20        -8.3287    3.5159   -0.4101 H         1 <0>         0.0998
     44 H21        -5.9959    2.9865   -2.3027 H         1 <0>         0.0715
     45 H22        -5.8750    3.6553   -0.6637 H         1 <0>         0.0807
     46 H23        -5.6711    2.3421    1.2034 H         1 <0>         0.0711
     47 H24        -7.4346    2.1278    1.0929 H         1 <0>         0.0591
     48 H25        -6.3750    0.7087    1.2714 H         1 <0>         0.0647
     49 H26        -2.2962    0.6063    2.0424 H         1 <0>         0.0575
     50 H27        -3.9838    0.5167    1.4836 H         1 <0>         0.0749
     51 H28        -3.1088   -0.9722    1.9146 H         1 <0>         0.0550
@<TRIPOS>BOND
     1    1    2 1
     2    1   27 1
     3    1   28 1
     4    1   29 1
     5    2    3 2
     6    2   30 1
     7    3    9 1
     8    3    4 1
     9    4    5 2
    10    4    6 1
    11    6    7 1
    12    6   31 1
    13    6   32 1
    14    7    8 1
    15    7   14 1
    16    7    9 1
    17    9   10 1
    18    9   26 1
    19   10   11 1
    20   10   33 1
    21   10   34 1
    22   11   12 1
    23   11   35 1
    24   11   36 1
    25   12   13 1
    26   12   24 1
    27   12   14 1
    28   14   15 1
    29   14   16 1
    30   16   17 1
    31   16   37 1
    32   16   38 1
    33   17   18 1
    34   17   39 1
    35   17   40 1
    36   18   24 1
    37   18   19 2
    38   19   20 1
    39   19   41 1
    40   20   21 2
    41   20   22 1
    42   22   23 1
    43   22   42 1
    44   22   43 1
    45   23   24 1
    46   23   44 1
    47   23   45 1
    48   24   25 1
    49   25   46 1
    50   25   47 1
    51   25   48 1
    52   26   49 1
    53   26   50 1
    54   26   51 1
@<TRIPOS>MOLECULE
ZINC03831128
   67    71     0     0     0
SMALL
USER_CHARGES

@<TRIPOS>ATOM
      1 C1         -1.5911    2.2185    1.0260 C.3       1 <0>        -0.0460
      2 C2         -1.1366    0.8203    1.0997 C.1       1 <0>        -0.1642
      3 C3         -0.7742   -0.2948    1.1585 C.1       1 <0>        -0.2118
      4 C4         -0.3198   -1.6930    1.2322 C.3       1 <0>         0.2576
      5 C5          0.9201   -1.9014    0.3292 C.3       1 <0>        -0.1448
      6 C6          0.4929   -2.9015   -0.7780 C.3       1 <0>        -0.1135
      7 C7         -1.0311   -2.7307   -0.8306 C.3       1 <0>        -0.0797
      8 H1         -1.2952   -1.8113   -1.3532 H         1 <0>         0.0796
      9 C8         -1.3918   -2.6271    0.6748 C.3       1 <0>        -0.0363
     10 C9         -2.8184   -2.1130    0.7593 C.3       1 <0>        -0.0949
     11 C10        -3.7333   -3.2187    0.2111 C.3       1 <0>        -0.0181
     12 H2         -4.7482   -2.8315    0.1201 H         1 <0>         0.0987
     13 C11        -3.2567   -3.6915   -1.1479 C.2       1 <0>        -0.0434
     14 C12        -4.1792   -3.8905   -2.0873 C.2       1 <0>        -0.1331
     15 C13        -5.6413   -3.6381   -1.7975 C.3       1 <0>        -0.0804
     16 C14        -6.2599   -2.9181   -2.9997 C.3       1 <0>        -0.1660
     17 C15        -5.9289   -3.6563   -4.2685 C.2       1 <0>         0.3874
     18 O1         -6.7517   -3.7057   -5.1606 O.2       1 <0>        -0.4716
     19 C16        -4.6857   -4.2897   -4.4418 C.2       1 <0>        -0.2491
     20 C17        -3.8130   -4.3810   -3.4157 C.2       1 <0>         0.0276
     21 C18        -2.4436   -4.9914   -3.5880 C.3       1 <0>        -0.0955
     22 C19        -1.4408   -4.0922   -2.8665 C.3       1 <0>        -0.1115
     23 C20        -1.7860   -3.9148   -1.4199 C.3       1 <0>        -0.0453
     24 H3         -1.4760   -4.8234   -0.9036 H         1 <0>         0.0937
     25 C21        -3.7314   -4.3828    1.1681 C.ar      1 <0>        -0.1136
     26 C22        -3.8025   -4.1561    2.5304 C.ar      1 <0>        -0.0647
     27 C23        -3.8010   -5.2206    3.4102 C.ar      1 <0>        -0.1926
     28 C24        -3.7280   -6.5203    2.9253 C.ar      1 <0>         0.2121
     29 C25        -3.6568   -6.7445    1.5562 C.ar      1 <0>        -0.1943
     30 C26        -3.6644   -5.6756    0.6818 C.ar      1 <0>        -0.0747
     31 N1         -3.7259   -7.5992    3.8123 N.pl3     1 <0>        -0.6391
     32 C27        -3.8006   -7.3609    5.2558 C.3       1 <0>         0.0929
     33 C28        -3.6488   -8.9692    3.2991 C.3       1 <0>         0.0931
     34 C29        -1.2795   -4.0029    1.3348 C.3       1 <0>        -0.1479
     35 O2         -0.0137   -2.0421    2.5836 O.3       1 <0>        -0.5386
     36 H4         -0.8174    2.8735    1.4265 H         1 <0>         0.0813
     37 H5         -1.7883    2.4821   -0.0131 H         1 <0>         0.0819
     38 H6         -2.5040    2.3350    1.6100 H         1 <0>         0.0821
     39 H7          1.2206   -0.9540   -0.1182 H         1 <0>         0.0718
     40 H8          1.7417   -2.3175    0.9123 H         1 <0>         0.0805
     41 H9          0.9438   -2.6339   -1.7336 H         1 <0>         0.0709
     42 H10         0.7568   -3.9215   -0.4985 H         1 <0>         0.0753
     43 H11        -3.0751   -1.8993    1.7969 H         1 <0>         0.0745
     44 H12        -2.9241   -1.2109    0.1566 H         1 <0>         0.0679
     45 H13        -6.1519   -4.5876   -1.6371 H         1 <0>         0.0812
     46 H14        -5.7358   -3.0140   -0.9088 H         1 <0>         0.0928
     47 H15        -7.3423   -2.8754   -2.8780 H         1 <0>         0.0942
     48 H16        -5.8638   -1.9043   -3.0572 H         1 <0>         0.0984
     49 H17        -4.4266   -4.7067   -5.4038 H         1 <0>         0.1344
     50 H18        -2.4263   -5.9896   -3.1506 H         1 <0>         0.0890
     51 H19        -2.1945   -5.0470   -4.6477 H         1 <0>         0.0854
     52 H20        -0.4467   -4.5317   -2.9487 H         1 <0>         0.0788
     53 H21        -1.4349   -3.1124   -3.3440 H         1 <0>         0.0670
     54 H22        -3.8589   -3.1453    2.9068 H         1 <0>         0.1204
     55 H23        -3.8562   -5.0428    4.4740 H         1 <0>         0.1200
     56 H24        -3.5995   -7.7537    1.1759 H         1 <0>         0.1192
     57 H25        -3.6134   -5.8493   -0.3830 H         1 <0>         0.1200
     58 H26        -4.8450   -7.3421    5.5674 H         1 <0>         0.0474
     59 H27        -3.2784   -8.1591    5.7834 H         1 <0>         0.0654
     60 H28        -3.3341   -6.4042    5.4908 H         1 <0>         0.0689
     61 H29        -2.6039   -9.2687    3.2183 H         1 <0>         0.0475
     62 H30        -4.1680   -9.6425    3.9812 H         1 <0>         0.0654
     63 H31        -4.1172   -9.0158    2.3159 H         1 <0>         0.0682
     64 H32        -1.7051   -3.9607    2.3374 H         1 <0>         0.0715
     65 H33        -1.8231   -4.7368    0.7398 H         1 <0>         0.0832
     66 H34        -0.2302   -4.2913    1.3974 H         1 <0>         0.0462
     67 H35         0.6749   -1.4946    2.9850 H         1 <0>         0.3768
@<TRIPOS>BOND
     1    1    2 1
     2    1   36 1
     3    1   37 1
     4    1   38 1
     5    2    3 3
     6    3    4 1
     7    4    9 1
     8    4    5 1
     9    4   35 1
    10    5    6 1
    11    5   39 1
    12    5   40 1
    13    6    7 1
    14    6   41 1
    15    6   42 1
    16    7    8 1
    17    7   23 1
    18    7    9 1
    19    9   10 1
    20    9   34 1
    21   10   11 1
    22   10   43 1
    23   10   44 1
    24   11   12 1
    25   11   13 1
    26   11   25 1
    27   13   23 1
    28   13   14 2
    29   14   20 1
    30   14   15 1
    31   15   16 1
    32   15   45 1
    33   15   46 1
    34   16   17 1
    35   16   47 1
    36   16   48 1
    37   17   18 2
    38   17   19 1
    39   19   20 2
    40   19   49 1
    41   20   21 1
    42   21   22 1
    43   21   50 1
    44   21   51 1
    45   22   23 1
    46   22   52 1
    47   22   53 1
    48   23   24 1
    49   25   30 ar
    50   25   26 ar
    51   26   27 ar
    52   26   54 1
    53   27   28 ar
    54   27   55 1
    55   28   29 ar
    56   28   31 1
    57   29   30 ar
    58   29   56 1
    59   30   57 1
    60   31   32 1
    61   31   33 1
    62   32   58 1
    63   32   59 1
    64   32   60 1
    65   33   61 1
    66   33   62 1
    67   33   63 1
    68   34   64 1
    69   34   65 1
    70   34   66 1
    71   35   67 1
@<TRIPOS>MOLECULE
ZINC08681718
   67    71     0     0     0
SMALL
USER_CHARGES

@<TRIPOS>ATOM
      1 C1          0.4416    0.9423    0.7978 C.3       1 <0>        -0.0467
      2 C2          0.2872   -0.5019    0.5587 C.1       1 <0>        -0.1598
      3 C3          0.1641   -1.6538    0.3680 C.1       1 <0>        -0.2122
      4 C4          0.0102   -3.0932    0.1297 C.3       1 <0>         0.2518
      5 C5          0.6451   -3.4608   -1.2383 C.3       1 <0>        -0.1483
      6 C6         -0.5303   -3.8477   -2.1767 C.3       1 <0>        -0.1165
      7 C7         -1.7386   -3.1803   -1.4926 C.3       1 <0>        -0.0751
      8 H1         -1.6729   -2.0896   -1.6533 H         1 <0>         0.0783
      9 C8         -1.4634   -3.5068   -0.0099 C.3       1 <0>        -0.0285
     10 C9         -2.4412   -2.8556    0.9383 C.3       1 <0>        -0.0918
     11 C10        -3.7566   -2.5961    0.1830 C.3       1 <0>        -0.0092
     12 H2         -3.5684   -1.7128   -0.4712 H         1 <0>         0.0797
     13 C11        -3.9821   -3.7709   -0.7420 C.2       1 <0>        -0.0441
     14 C12        -4.7475   -4.8224   -0.5209 C.2       1 <0>        -0.1088
     15 C13        -5.3936   -5.1035    0.8162 C.3       1 <0>        -0.0710
     16 C14        -5.3599   -6.6044    1.1248 C.3       1 <0>        -0.1703
     17 C15        -5.8807   -7.3896   -0.0460 C.2       1 <0>         0.3896
     18 O1         -6.5819   -8.3610    0.1394 O.2       1 <0>        -0.4713
     19 C16        -5.5502   -7.0000   -1.3535 C.2       1 <0>        -0.2536
     20 C17        -4.9525   -5.8146   -1.5870 C.2       1 <0>         0.0251
     21 C18        -4.4511   -5.4814   -2.9744 C.3       1 <0>        -0.1000
     22 C19        -3.0320   -4.9217   -2.8010 C.3       1 <0>        -0.1087
     23 C20        -3.0883   -3.6635   -1.9703 C.3       1 <0>        -0.0479
     24 H3         -3.5265   -2.8689   -2.5960 H         1 <0>         0.0803
     25 C21        -4.9038   -2.2370    1.0918 C.ar      1 <0>        -0.1269
     26 C22        -4.8751   -2.6156    2.4216 C.ar      1 <0>        -0.0652
     27 C23        -5.9248   -2.2881    3.2572 C.ar      1 <0>        -0.1959
     28 C24        -7.0102   -1.5776    2.7605 C.ar      1 <0>         0.2157
     29 C25        -7.0358   -1.1989    1.4243 C.ar      1 <0>        -0.1957
     30 C26        -5.9802   -1.5248    0.5955 C.ar      1 <0>        -0.0603
     31 N1         -8.0737   -1.2452    3.6028 N.pl3     1 <0>        -0.6387
     32 C27        -8.0452   -1.6458    5.0116 C.3       1 <0>         0.0923
     33 C28        -9.2177   -0.4959    3.0773 C.3       1 <0>         0.0924
     34 C29        -1.5076   -5.0300    0.2248 C.3       1 <0>        -0.1446
     35 O2          0.6290   -3.8450    1.1742 O.3       1 <0>        -0.5397
     36 H4          1.5004    1.1843    0.8893 H         1 <0>         0.0818
     37 H5          0.0130    1.4966   -0.0372 H         1 <0>         0.0825
     38 H6         -0.0744    1.2154    1.7182 H         1 <0>         0.0824
     39 H7          1.1763   -2.5998   -1.6414 H         1 <0>         0.0713
     40 H8          1.3232   -4.3036   -1.1183 H         1 <0>         0.0814
     41 H9         -0.3767   -3.4136   -3.1685 H         1 <0>         0.0687
     42 H10        -0.6413   -4.9220   -2.2503 H         1 <0>         0.0824
     43 H11        -2.6476   -3.5490    1.7669 H         1 <0>         0.0706
     44 H12        -2.0771   -1.9264    1.3577 H         1 <0>         0.0736
     45 H13        -4.8232   -4.6174    1.6135 H         1 <0>         0.0892
     46 H14        -6.4210   -4.7498    0.8170 H         1 <0>         0.0772
     47 H15        -4.3341   -6.9050    1.3387 H         1 <0>         0.0974
     48 H16        -5.9810   -6.8037    1.9996 H         1 <0>         0.0921
     49 H17        -5.7778   -7.6576   -2.1806 H         1 <0>         0.1340
     50 H18        -4.4224   -6.3781   -3.5865 H         1 <0>         0.0852
     51 H19        -5.0900   -4.7267   -3.4275 H         1 <0>         0.0870
     52 H20        -2.4155   -5.6753   -2.3198 H         1 <0>         0.0752
     53 H21        -2.6243   -4.6949   -3.7865 H         1 <0>         0.0779
     54 H22        -4.0310   -3.1682    2.8069 H         1 <0>         0.1231
     55 H23        -5.9019   -2.5844    4.2955 H         1 <0>         0.1215
     56 H24        -7.8784   -0.6468    1.0349 H         1 <0>         0.1209
     57 H25        -5.9975   -1.2269   -0.4424 H         1 <0>         0.1177
     58 H26        -7.5709   -0.8624    5.6027 H         1 <0>         0.0482
     59 H27        -9.0643   -1.8015    5.3658 H         1 <0>         0.0664
     60 H28        -7.4794   -2.5717    5.1147 H         1 <0>         0.0692
     61 H29        -9.9687   -1.1929    2.7054 H         1 <0>         0.0484
     62 H30        -9.6490    0.1131    3.8718 H         1 <0>         0.0663
     63 H31        -8.8865    0.1496    2.2638 H         1 <0>         0.0686
     64 H32        -1.1547   -5.2529    1.2318 H         1 <0>         0.0673
     65 H33        -2.5318   -5.3855    0.1119 H         1 <0>         0.0634
     66 H34        -0.8676   -5.5286   -0.5031 H         1 <0>         0.0572
     67 H35         1.5755   -3.6738    1.2744 H         1 <0>         0.3776
@<TRIPOS>BOND
     1    1    2 1
     2    1   36 1
     3    1   37 1
     4    1   38 1
     5    2    3 3
     6    3    4 1
     7    4    9 1
     8    4    5 1
     9    4   35 1
    10    5    6 1
    11    5   39 1
    12    5   40 1
    13    6    7 1
    14    6   41 1
    15    6   42 1
    16    7    8 1
    17    7   23 1
    18    7    9 1
    19    9   10 1
    20    9   34 1
    21   10   11 1
    22   10   43 1
    23   10   44 1
    24   11   12 1
    25   11   13 1
    26   11   25 1
    27   13   23 1
    28   13   14 2
    29   14   20 1
    30   14   15 1
    31   15   16 1
    32   15   45 1
    33   15   46 1
    34   16   17 1
    35   16   47 1
    36   16   48 1
    37   17   18 2
    38   17   19 1
    39   19   20 2
    40   19   49 1
    41   20   21 1
    42   21   22 1
    43   21   50 1
    44   21   51 1
    45   22   23 1
    46   22   52 1
    47   22   53 1
    48   23   24 1
    49   25   30 ar
    50   25   26 ar
    51   26   27 ar
    52   26   54 1
    53   27   28 ar
    54   27   55 1
    55   28   29 ar
    56   28   31 1
    57   29   30 ar
    58   29   56 1
    59   30   57 1
    60   31   32 1
    61   31   33 1
    62   32   58 1
    63   32   59 1
    64   32   60 1
    65   33   61 1
    66   33   62 1
    67   33   63 1
    68   34   64 1
    69   34   65 1
    70   34   66 1
    71   35   67 1
@<TRIPOS>MOLECULE
ZINC37306500
   27    28     0     0     0
SMALL
USER_CHARGES

@<TRIPOS>ATOM
      1 C1          3.1444   -1.5924   -4.4334 C.ar      1 <0>        -0.0895
      2 C2          4.0499   -0.6176   -4.0562 C.ar      1 <0>        -0.1099
      3 C3          4.2954   -0.3804   -2.7178 C.ar      1 <0>        -0.0984
      4 C4          3.6317   -1.1221   -1.7490 C.ar      1 <0>        -0.1456
      5 C5          2.7212   -2.1023   -2.1310 C.ar      1 <0>         0.1208
      6 C6          2.4808   -2.3338   -3.4728 C.ar      1 <0>        -0.1346
      7 F1          2.0730   -2.8265   -1.1926 F         1 <0>        -0.1275
      8 S1          3.9425   -0.8229   -0.0407 S.3       1 <0>         0.0380
      9 C7          5.2503    0.3578   -0.0457 C.ar      1 <0>        -0.1299
     10 C8          4.9601    1.7166    0.0506 C.ar      1 <0>        -0.0295
     11 C9          5.9790    2.6412    0.0465 C.ar      1 <0>        -0.0776
     12 C10         7.3074    2.2152   -0.0542 C.ar      1 <0>         0.0614
     13 C11         7.5955    0.8502   -0.1503 C.ar      1 <0>        -0.1512
     14 C12         6.5720   -0.0698   -0.1404 C.ar      1 <0>        -0.0166
     15 C13         9.0253    0.3869   -0.2595 C.3       1 <0>         0.5062
     16 F2          9.0580   -1.0092   -0.3428 F         1 <0>        -0.1671
     17 F3          9.6072    0.9363   -1.4069 F         1 <0>        -0.1690
     18 F4          9.7380    0.8035    0.8700 F         1 <0>        -0.1684
     19 C14         8.3702    3.1749   -0.0592 C.1       1 <0>         0.2224
     20 N1          9.2134    3.9362   -0.0633 N.1       1 <0>        -0.3584
     21 H1          2.9516   -1.7721   -5.4807 H         1 <0>         0.1382
     22 H2          4.5663   -0.0411   -4.8094 H         1 <0>         0.1348
     23 H3          5.0031    0.3810   -2.4248 H         1 <0>         0.1300
     24 H4          1.7743   -3.0943   -3.7710 H         1 <0>         0.1436
     25 H5          3.9342    2.0449    0.1283 H         1 <0>         0.1592
     26 H6          5.7533    3.6947    0.1206 H         1 <0>         0.1577
     27 H7          6.7940   -1.1244   -0.2105 H         1 <0>         0.1612
@<TRIPOS>BOND
     1    1    6 ar
     2    1    2 ar
     3    1   21 1
     4    2    3 ar
     5    2   22 1
     6    3    4 ar
     7    3   23 1
     8    4    5 ar
     9    4    8 1
    10    5    6 ar
    11    5    7 1
    12    6   24 1
    13    8    9 1
    14    9   14 ar
    15    9   10 ar
    16   10   11 ar
    17   10   25 1
    18   11   12 ar
    19   11   26 1
    20   12   13 ar
    21   12   19 1
    22   13   14 ar
    23   13   15 1
    24   14   27 1
    25   15   16 1
    26   15   17 1
    27   15   18 1
    28   19   20 3
@<TRIPOS>MOLECULE
ZINC00036779
   43    47     0     0     0
SMALL
USER_CHARGES
methyl-N-thiazol-2-yl-BLAHcarboxamide
@<TRIPOS>ATOM
      1 C1         -2.9248    4.1872    1.3027 C.3       1 <0>        -0.1476
      2 C2         -2.1031    4.4380    0.0367 C.3       1 <0>        -0.0557
      3 C3         -2.9722    4.1548   -1.1859 C.3       1 <0>        -0.1076
      4 C4         -3.1087    5.4060   -2.0806 C.3       1 <0>        -0.0037
      5 C5         -3.6444    6.4979   -1.1675 C.ar      1 <0>        -0.0792
      6 C6         -4.7998    7.1943   -1.3794 C.ar      1 <0>        -0.1045
      7 C7         -5.1725    8.1674   -0.4610 C.ar      1 <0>        -0.1177
      8 C8         -4.3855    8.4235    0.6464 C.ar      1 <0>        -0.1192
      9 C9         -3.2110    7.7119    0.8549 C.ar      1 <0>        -0.1023
     10 C10        -2.8511    6.7563   -0.0518 C.ar      1 <0>        -0.0791
     11 C11        -1.5993    5.8978    0.0421 C.3       1 <0>         0.0209
     12 C12        -0.8903    6.0842   -1.2903 C.ar      1 <0>        -0.0745
     13 C13        -1.6837    5.8259   -2.4060 C.ar      1 <0>        -0.0896
     14 C14        -1.1773    5.9534   -3.6679 C.ar      1 <0>        -0.1087
     15 C15         0.1467    6.3444   -3.8211 C.ar      1 <0>        -0.1197
     16 C16         0.9341    6.6002   -2.7140 C.ar      1 <0>        -0.1206
     17 C17         0.4120    6.4695   -1.4335 C.ar      1 <0>        -0.0794
     18 C18        -0.9179    3.5072    0.0257 C.2       1 <0>         0.5239
     19 O1          0.2077    3.9587    0.0225 O.2       1 <0>        -0.4806
     20 N1         -1.1089    2.1731    0.0194 N.am      1 <0>        -0.6105
     21 C19        -0.0158    1.3146    0.0093 C.2       1 <0>         0.2802
     22 N2          0.0021   -0.0041    0.0020 N.2       1 <0>        -0.5499
     23 C20         1.1390   -0.6719   -0.0124 C.2       1 <0>         0.0519
     24 C21         2.2995    0.0285   -0.0197 C.2       1 <0>        -0.2654
     25 S1          1.6766    1.7032   -0.0048 S.3       1 <0>         0.1572
     26 H1         -2.3054    4.3718    2.1804 H         1 <0>         0.0683
     27 H2         -3.7841    4.8577    1.3169 H         1 <0>         0.0819
     28 H3         -3.2703    3.1535    1.3127 H         1 <0>         0.0655
     29 H4         -2.5212    3.3493   -1.7654 H         1 <0>         0.0749
     30 H5         -3.9629    3.8432   -0.8548 H         1 <0>         0.0892
     31 H6         -3.7226    5.2499   -2.9676 H         1 <0>         0.1101
     32 H7         -5.4128    6.9919   -2.2452 H         1 <0>         0.1257
     33 H8         -6.0834    8.7274   -0.6128 H         1 <0>         0.1229
     34 H9         -4.6859    9.1821    1.3540 H         1 <0>         0.1231
     35 H10        -2.5942    7.9101    1.7191 H         1 <0>         0.1259
     36 H11        -0.9814    6.1344    0.9084 H         1 <0>         0.1115
     37 H12        -1.7949    5.7534   -4.5310 H         1 <0>         0.1234
     38 H13         0.5636    6.4500   -4.8118 H         1 <0>         0.1209
     39 H14         1.9623    6.9034   -2.8456 H         1 <0>         0.1213
     40 H15         1.0247    6.6693   -0.5668 H         1 <0>         0.1248
     41 H16        -2.0092    1.8120    0.0220 H         1 <0>         0.4242
     42 H17         1.1454   -1.7518   -0.0179 H         1 <0>         0.1713
     43 H18         3.3191   -0.3275   -0.0317 H         1 <0>         0.1963
@<TRIPOS>BOND
     1    1    2 1
     2    1   26 1
     3    1   27 1
     4    1   28 1
     5    2   11 1
     6    2    3 1
     7    2   18 1
     8    3    4 1
     9    3   29 1
    10    3   30 1
    11    4   13 1
    12    4    5 1
    13    4   31 1
    14    5   10 ar
    15    5    6 ar
    16    6    7 ar
    17    6   32 1
    18    7    8 ar
    19    7   33 1
    20    8    9 ar
    21    8   34 1
    22    9   10 ar
    23    9   35 1
    24   10   11 1
    25   11   12 1
    26   11   36 1
    27   12   17 ar
    28   12   13 ar
    29   13   14 ar
    30   14   15 ar
    31   14   37 1
    32   15   16 ar
    33   15   38 1
    34   16   17 ar
    35   16   39 1
    36   17   40 1
    37   18   19 2
    38   18   20 am
    39   20   21 1
    40   20   41 1
    41   21   25 1
    42   21   22 2
    43   22   23 1
    44   23   24 2
    45   23   42 1
    46   24   25 1
    47   24   43 1
@<TRIPOS>MOLECULE
ZINC29475774
   72    76     0     0     0
SMALL
USER_CHARGES
(8S,11R,13S,14S,17S)-11-(4-dimethylaminophenyl)-17-hydroxy-17-(3-hydroxypropyl)-13-methyl-1,2,6,7,8,11,12,14,15,16-decahydrocyclopenta[a]phenanthren-3-one
@<TRIPOS>ATOM
      1 C1         -1.7689    5.6596   -4.0383 C.3       1 <0>        -0.1765
      2 C2         -0.3472    5.7107   -3.4752 C.3       1 <0>        -0.0321
      3 C3          0.5008    4.6246   -4.1132 C.3       1 <0>        -0.0865
      4 C4         -0.2645    3.3006   -3.9620 C.3       1 <0>        -0.0256
      5 H1          0.3817    2.4644   -4.2672 H         1 <0>         0.0998
      6 C5         -0.6831    3.0823   -2.5214 C.2       1 <0>        -0.0441
      7 C6         -0.5429    1.8563   -2.0184 C.2       1 <0>        -0.1334
      8 C7          0.0724    0.7532   -2.8471 C.3       1 <0>        -0.0812
      9 C8          1.0112   -0.0668   -1.9572 C.3       1 <0>        -0.1669
     10 C9          0.2966   -0.4721   -0.6961 C.2       1 <0>         0.3872
     11 O1          0.5119   -1.5658   -0.2134 O.2       1 <0>        -0.4724
     12 C10        -0.6137    0.3925   -0.0652 C.2       1 <0>        -0.2526
     13 C11        -0.9975    1.5400   -0.6648 C.2       1 <0>         0.0273
     14 C12        -1.9075    2.5263    0.0259 C.3       1 <0>        -0.0968
     15 C13        -1.3575    3.9283   -0.2347 C.3       1 <0>        -0.1148
     16 C14        -1.2619    4.2222   -1.7219 C.3       1 <0>        -0.0546
     17 H2         -2.2928    4.3864   -2.0688 H         1 <0>         0.0893
     18 C15        -0.3729    5.4374   -1.9479 C.3       1 <0>        -0.0754
     19 H3          0.5698    5.1794   -1.4431 H         1 <0>         0.0827
     20 C16        -0.9243    6.7665   -1.4041 C.3       1 <0>        -0.1184
     21 C17        -0.2082    7.8365   -2.2706 C.3       1 <0>        -0.1469
     22 C18         0.2048    7.1303   -3.5846 C.3       1 <0>         0.1606
     23 C19        -0.4120    7.8470   -4.7874 C.3       1 <0>        -0.1388
     24 C20         0.1526    9.2659   -4.8802 C.3       1 <0>        -0.1245
     25 C21        -0.4642    9.9826   -6.0830 C.3       1 <0>         0.0859
     26 O2          0.0632   11.3079   -6.1697 O.3       1 <0>        -0.6054
     27 O3          1.6286    7.0994   -3.7030 O.3       1 <0>        -0.5784
     28 C22        -1.4921    3.3348   -4.8354 C.ar      1 <0>        -0.1017
     29 C23        -2.6973    2.8613   -4.3502 C.ar      1 <0>        -0.0825
     30 C24        -3.8255    2.8964   -5.1460 C.ar      1 <0>        -0.1868
     31 C25        -3.7461    3.3977   -6.4391 C.ar      1 <0>         0.2072
     32 C26        -2.5326    3.8674   -6.9252 C.ar      1 <0>        -0.1866
     33 C27        -1.4095    3.8345   -6.1221 C.ar      1 <0>        -0.0751
     34 N1         -4.8840    3.4299   -7.2484 N.pl3     1 <0>        -0.6387
     35 C28        -4.7747    3.8426   -8.6498 C.3       1 <0>         0.0935
     36 C29        -6.1868    3.0510   -6.6959 C.3       1 <0>         0.0932
     37 H4         -1.7418    5.8542   -5.1206 H         1 <0>         0.0640
     38 H5         -2.3868    6.4235   -3.5437 H         1 <0>         0.0448
     39 H6         -2.2002    4.6643   -3.8554 H         1 <0>         0.1044
     40 H7          0.6593    4.8600   -5.1759 H         1 <0>         0.0706
     41 H8          1.4727    4.5698   -3.6009 H         1 <0>         0.0754
     42 H9         -0.7233    0.1065   -3.2454 H         1 <0>         0.0807
     43 H10         0.6389    1.1934   -3.6809 H         1 <0>         0.0942
     44 H11         1.3336   -0.9690   -2.4977 H         1 <0>         0.0951
     45 H12         1.8917    0.5389   -1.6968 H         1 <0>         0.1000
     46 H13        -1.0142    0.1286    0.9247 H         1 <0>         0.1368
     47 H14        -2.9253    2.4332   -0.3809 H         1 <0>         0.0880
     48 H15        -1.9236    2.3165    1.1056 H         1 <0>         0.0852
     49 H16        -2.0223    4.6743    0.2252 H         1 <0>         0.0768
     50 H17        -0.3517    4.0147    0.2022 H         1 <0>         0.0681
     51 H18        -2.0169    6.7888   -1.5293 H         1 <0>         0.0672
     52 H19        -0.6757    6.8572   -0.3364 H         1 <0>         0.0649
     53 H20        -0.8993    8.6685   -2.4710 H         1 <0>         0.0680
     54 H21         0.6737    8.2140   -1.7324 H         1 <0>         0.0724
     55 H22        -0.1692    7.2949   -5.7073 H         1 <0>         0.0705
     56 H23        -1.5042    7.8942   -4.6656 H         1 <0>         0.0761
     57 H24        -0.0902    9.8180   -3.9603 H         1 <0>         0.0703
     58 H25         1.2448    9.2187   -5.0020 H         1 <0>         0.0693
     59 H26        -0.2214    9.4304   -7.0029 H         1 <0>         0.0404
     60 H27        -1.5564   10.0298   -5.9612 H         1 <0>         0.0394
     61 H28        -0.2655   11.9789   -6.9770 H         1 <0>         0.4097
     62 H29         2.1936    8.0390   -3.7922 H         1 <0>         0.3986
     63 H30        -2.7573    2.4672   -3.3465 H         1 <0>         0.1210
     64 H31        -4.7675    2.5305   -4.7650 H         1 <0>         0.1182
     65 H32        -2.4673    4.2575   -7.9302 H         1 <0>         0.1185
     66 H33        -0.4658    4.1999   -6.4994 H         1 <0>         0.1216
     67 H34        -5.7676    3.8048   -9.1217 H         1 <0>         0.0730
     68 H35        -4.0908    3.1633   -9.1798 H         1 <0>         0.0539
     69 H36        -4.3836    4.8695   -8.7002 H         1 <0>         0.0531
     70 H37        -6.9560    3.1387   -7.4774 H         1 <0>         0.0732
     71 H38        -6.4377    3.7180   -5.8580 H         1 <0>         0.0534
     72 H39        -6.1449    2.0119   -6.3376 H         1 <0>         0.0536
@<TRIPOS>BOND
     1    1    2 1
     2    1   37 1
     3    1   38 1
     4    1   39 1
     5    2   18 1
     6    2   22 1
     7    2    3 1
     8    3    4 1
     9    3   40 1
    10    3   41 1
    11    4    5 1
    12    4    6 1
    13    4   28 1
    14    6   16 1
    15    6    7 2
    16    7   13 1
    17    7    8 1
    18    8    9 1
    19    8   42 1
    20    8   43 1
    21    9   10 1
    22    9   44 1
    23    9   45 1
    24   10   11 2
    25   10   12 1
    26   12   13 2
    27   12   46 1
    28   13   14 1
    29   14   15 1
    30   14   47 1
    31   14   48 1
    32   15   16 1
    33   15   49 1
    34   15   50 1
    35   16   17 1
    36   16   18 1
    37   18   19 1
    38   18   20 1
    39   20   21 1
    40   20   51 1
    41   20   52 1
    42   21   22 1
    43   21   53 1
    44   21   54 1
    45   22   23 1
    46   22   27 1
    47   23   24 1
    48   23   55 1
    49   23   56 1
    50   24   25 1
    51   24   57 1
    52   24   58 1
    53   25   26 1
    54   25   59 1
    55   25   60 1
    56   26   61 1
    57   27   62 1
    58   28   33 ar
    59   28   29 ar
    60   29   30 ar
    61   29   63 1
    62   30   31 ar
    63   30   64 1
    64   31   32 ar
    65   31   34 1
    66   32   33 ar
    67   32   65 1
    68   33   66 1
    69   34   35 1
    70   34   36 1
    71   35   67 1
    72   35   68 1
    73   35   69 1
    74   36   70 1
    75   36   71 1
    76   36   72 1
@<TRIPOS>MOLECULE
ZINC34633676
   72    76     0     0     0
SMALL
USER_CHARGES

@<TRIPOS>ATOM
      1 C1         -0.0183    1.6985    0.4380 C.3       1 <0>        -0.1551
      2 C2         -0.0218    0.1992    0.1237 C.3       1 <0>        -0.0357
      3 C3         -1.4474   -0.2813   -0.0533 C.3       1 <0>        -0.0916
      4 C4         -1.9159   -0.8933    1.2772 C.3       1 <0>        -0.0098
      5 H1         -1.4437   -1.9028    1.3351 H         1 <0>         0.0816
      6 C5         -1.3032   -0.0759    2.3934 C.2       1 <0>        -0.0402
      7 C6         -1.8732    0.8997    3.0721 C.2       1 <0>        -0.1140
      8 C7         -3.2190    1.4850    2.7051 C.3       1 <0>        -0.0705
      9 C8         -3.1953    3.0085    2.8891 C.3       1 <0>        -0.1706
     10 C9         -2.7031    3.3433    4.2708 C.2       1 <0>         0.3896
     11 O1         -3.2365    4.2225    4.9098 O.2       1 <0>        -0.4702
     12 C10        -1.6209    2.6302    4.8113 C.2       1 <0>        -0.2566
     13 C11        -1.1711    1.5084    4.2129 C.2       1 <0>         0.0260
     14 C12         0.1030    0.8546    4.6979 C.3       1 <0>        -0.1008
     15 C13         0.9310    0.5295    3.4467 C.3       1 <0>        -0.1077
     16 C14         0.1664   -0.4380    2.5783 C.3       1 <0>        -0.0507
     17 H2          0.1781   -1.4205    3.0752 H         1 <0>         0.0793
     18 C15         0.7411   -0.6103    1.1917 C.3       1 <0>        -0.0729
     19 H3          0.7031   -1.6854    0.9237 H         1 <0>         0.0822
     20 C16         2.1846   -0.1203    0.9997 C.3       1 <0>        -0.1161
     21 C17         2.3162    0.0064   -0.5420 C.3       1 <0>        -0.1510
     22 C18         0.8766   -0.0102   -1.1107 C.3       1 <0>         0.1389
     23 C19         0.6784    1.1346   -2.1016 C.3       1 <0>        -0.1421
     24 C20         1.5755    0.9144   -3.3213 C.3       1 <0>        -0.1262
     25 C21         1.3770    2.0614   -4.3142 C.3       1 <0>         0.0759
     26 O2          2.2149    1.8557   -5.4534 O.3       1 <0>        -0.5764
     27 O3          0.5974   -1.2666   -1.7223 O.3       1 <0>        -0.5498
     28 C22        -3.4069   -1.1007    1.3480 C.ar      1 <0>        -0.1253
     29 C23        -4.2476   -0.3397    0.5565 C.ar      1 <0>        -0.0645
     30 C24        -5.6144   -0.5271    0.6189 C.ar      1 <0>        -0.1971
     31 C25        -6.1445   -1.4813    1.4780 C.ar      1 <0>         0.2159
     32 C26        -5.2972   -2.2440    2.2717 C.ar      1 <0>        -0.1977
     33 C27        -3.9309   -2.0554    2.2002 C.ar      1 <0>        -0.0603
     34 N1         -7.5264   -1.6732    1.5440 N.pl3     1 <0>        -0.6392
     35 C28        -8.4101   -0.9592    0.6189 C.3       1 <0>         0.0925
     36 C29        -8.0923   -2.5884    2.5382 C.3       1 <0>         0.0889
     37 H4          1.0094    2.0600    0.4727 H         1 <0>         0.0581
     38 H5         -0.5658    2.2336   -0.3378 H         1 <0>         0.0587
     39 H6         -0.4960    1.8685    1.4029 H         1 <0>         0.0706
     40 H7         -2.0884    0.5672   -0.3067 H         1 <0>         0.0654
     41 H8         -1.5050   -1.0270   -0.8432 H         1 <0>         0.0862
     42 H9         -3.4267    1.3119    1.6460 H         1 <0>         0.0902
     43 H10        -3.9979    1.0514    3.3244 H         1 <0>         0.0764
     44 H11        -2.5297    3.4496    2.1482 H         1 <0>         0.0957
     45 H12        -4.2020    3.4023    2.7556 H         1 <0>         0.0914
     46 H13        -1.1440    2.9846    5.7137 H         1 <0>         0.1336
     47 H14         0.6534    1.5395    5.3369 H         1 <0>         0.0844
     48 H15        -0.1318   -0.0634    5.2314 H         1 <0>         0.0869
     49 H16         1.1349    1.4525    2.9126 H         1 <0>         0.0735
     50 H17         1.8732    0.0785    3.7608 H         1 <0>         0.0768
     51 H18         2.3528    0.8371    1.4845 H         1 <0>         0.0733
     52 H19         2.8907   -0.8636    1.3782 H         1 <0>         0.0656
     53 H20         2.8092    0.9432   -0.7994 H         1 <0>         0.0706
     54 H21         2.8830   -0.8364   -0.9378 H         1 <0>         0.0709
     55 H22        -0.3642    1.1649   -2.4182 H         1 <0>         0.0728
     56 H23         0.9405    2.0785   -1.6236 H         1 <0>         0.0801
     57 H24         2.6181    0.8842   -3.0048 H         1 <0>         0.0716
     58 H25         1.3134   -0.0295   -3.7994 H         1 <0>         0.0698
     59 H26         0.3344    2.0916   -4.6307 H         1 <0>         0.0455
     60 H27         1.6391    3.0053   -3.8361 H         1 <0>         0.0449
     61 H28         2.1408    2.5465   -6.1260 H         1 <0>         0.3816
     62 H29         1.1345   -1.4510   -2.5050 H         1 <0>         0.3747
     63 H30        -3.8348    0.4023   -0.1110 H         1 <0>         0.1225
     64 H31        -6.2704    0.0678    0.0008 H         1 <0>         0.1213
     65 H32        -5.7061   -2.9865    2.9409 H         1 <0>         0.1220
     66 H33        -3.2713   -2.6511    2.8137 H         1 <0>         0.1177
     67 H34        -8.5536   -1.5572   -0.2810 H         1 <0>         0.0482
     68 H35        -9.3739   -0.7861    1.0978 H         1 <0>         0.0659
     69 H36        -7.9602   -0.0030    0.3518 H         1 <0>         0.0691
     70 H37        -7.2987   -2.9506    3.1918 H         1 <0>         0.0774
     71 H38        -8.8403   -2.0627    3.1317 H         1 <0>         0.0561
     72 H39        -8.5589   -3.4327    2.0308 H         1 <0>         0.0518
@<TRIPOS>BOND
     1    1    2 1
     2    1   37 1
     3    1   38 1
     4    1   39 1
     5    2   18 1
     6    2   22 1
     7    2    3 1
     8    3    4 1
     9    3   40 1
    10    3   41 1
    11    4    5 1
    12    4    6 1
    13    4   28 1
    14    6   16 1
    15    6    7 2
    16    7   13 1
    17    7    8 1
    18    8    9 1
    19    8   42 1
    20    8   43 1
    21    9   10 1
    22    9   44 1
    23    9   45 1
    24   10   11 2
    25   10   12 1
    26   12   13 2
    27   12   46 1
    28   13   14 1
    29   14   15 1
    30   14   47 1
    31   14   48 1
    32   15   16 1
    33   15   49 1
    34   15   50 1
    35   16   17 1
    36   16   18 1
    37   18   19 1
    38   18   20 1
    39   20   21 1
    40   20   51 1
    41   20   52 1
    42   21   22 1
    43   21   53 1
    44   21   54 1
    45   22   23 1
    46   22   27 1
    47   23   24 1
    48   23   55 1
    49   23   56 1
    50   24   25 1
    51   24   57 1
    52   24   58 1
    53   25   26 1
    54   25   59 1
    55   25   60 1
    56   26   61 1
    57   27   62 1
    58   28   33 ar
    59   28   29 ar
    60   29   30 ar
    61   29   63 1
    62   30   31 ar
    63   30   64 1
    64   31   32 ar
    65   31   34 1
    66   32   33 ar
    67   32   65 1
    68   33   66 1
    69   34   35 1
    70   34   36 1
    71   35   67 1
    72   35   68 1
    73   35   69 1
    74   36   70 1
    75   36   71 1
    76   36   72 1
@<TRIPOS>MOLECULE
ZINC06245719
   36    38     0     0     0
SMALL
USER_CHARGES

@<TRIPOS>ATOM
      1 C1         -0.8467    1.6941    1.7169 C.3       1 <0>        -0.1434
      2 C2         -0.6517    0.1873    1.5369 C.3       1 <0>         0.1487
      3 C3         -1.9429   -0.4373    1.0709 C.ar      1 <0>        -0.1391
      4 C4         -2.8255    0.2667    0.2862 C.ar      1 <0>        -0.0476
      5 C5         -4.0140   -0.3376   -0.1334 C.ar      1 <0>        -0.0248
      6 C6         -4.2992   -1.6516    0.2458 C.ar      1 <0>        -0.0903
      7 C7         -3.4098   -2.3504    1.0338 C.ar      1 <0>        -0.1203
      8 C8         -2.2308   -1.7467    1.4487 C.ar      1 <0>         0.1305
      9 N1         -1.3139   -2.4330    2.2507 N.pl3     1 <0>        -0.6076
     10 C9         -0.3482   -1.7410    2.8899 C.2       1 <0>         0.5013
     11 S1          0.8026   -2.5770    3.8428 S.2       1 <0>        -0.4891
     12 O1         -0.2793   -0.4005    2.7868 O.3       1 <0>        -0.2751
     13 C10        -4.9674    0.4123   -0.9761 C.2       1 <0>         0.0858
     14 C11        -5.0442    1.7842   -1.0826 C.2       1 <0>        -0.1724
     15 C12        -6.0716    2.0823   -1.9768 C.2       1 <0>        -0.1073
     16 C13        -6.6092    0.8845   -2.4048 C.2       1 <0>         0.0623
     17 N2         -5.9203   -0.1356   -1.7879 N.pl3     1 <0>        -0.4145
     18 C14        -6.1692   -1.5679   -1.9689 C.3       1 <0>         0.0542
     19 C15        -7.6903    0.7304   -3.3311 C.1       1 <0>         0.2742
     20 N3         -8.5479    0.6081   -4.0659 N.1       1 <0>        -0.3987
     21 C16         0.4468   -0.0677    0.5029 C.3       1 <0>        -0.1712
     22 H1          0.0841    2.1419    2.0648 H         1 <0>         0.0831
     23 H2         -1.1304    2.1401    0.7636 H         1 <0>         0.0913
     24 H3         -1.6328    1.8737    2.4503 H         1 <0>         0.0760
     25 H4         -2.6015    1.2825   -0.0045 H         1 <0>         0.1487
     26 H5         -5.2168   -2.1200   -0.0783 H         1 <0>         0.1404
     27 H6         -3.6297   -3.3662    1.3274 H         1 <0>         0.1427
     28 H7         -1.3717   -3.3965    2.3468 H         1 <0>         0.4430
     29 H8         -4.4212    2.4994   -0.5662 H         1 <0>         0.1541
     30 H9         -6.3889    3.0693   -2.2793 H         1 <0>         0.1562
     31 H10        -6.8229   -1.9264   -1.1737 H         1 <0>         0.0871
     32 H11        -6.6466   -1.7345   -2.9345 H         1 <0>         0.0901
     33 H12        -5.2234   -2.1085   -1.9331 H         1 <0>         0.0978
     34 H13         1.3795    0.3800    0.8459 H         1 <0>         0.0850
     35 H14         0.5842   -1.1415    0.3761 H         1 <0>         0.0610
     36 H15         0.1591    0.3768   -0.4499 H         1 <0>         0.0879
@<TRIPOS>BOND
     1    1    2 1
     2    1   22 1
     3    1   23 1
     4    1   24 1
     5    2   12 1
     6    2    3 1
     7    2   21 1
     8    3    8 ar
     9    3    4 ar
    10    4    5 ar
    11    4   25 1
    12    5    6 ar
    13    5   13 1
    14    6    7 ar
    15    6   26 1
    16    7    8 ar
    17    7   27 1
    18    8    9 1
    19    9   10 1
    20    9   28 1
    21   10   11 2
    22   10   12 1
    23   13   17 1
    24   13   14 2
    25   14   15 1
    26   14   29 1
    27   15   16 2
    28   15   30 1
    29   16   17 1
    30   16   19 1
    31   17   18 1
    32   18   31 1
    33   18   32 1
    34   18   33 1
    35   19   20 3
    36   21   34 1
    37   21   35 1
    38   21   36 1
@<TRIPOS>MOLECULE
ZINC20291925
   38    41     0     0     0
SMALL
USER_CHARGES

@<TRIPOS>ATOM
      1 C1         -0.0184    1.5028    0.0103 C.3       1 <0>        -0.1319
      2 C2          0.0021   -0.0041    0.0020 C.ar      1 <0>         0.1140
      3 C3          0.0063   -0.7201   -1.2052 C.ar      1 <0>        -0.1510
      4 C4          0.0265   -2.1280   -1.1409 C.ar      1 <0>         0.4800
      5 N1          0.0406   -2.7684    0.0038 N.ar      1 <0>        -0.5250
      6 C5          0.0367   -2.1309    1.1986 C.ar      1 <0>         0.2542
      7 C6          0.0229   -0.7162    1.1736 C.ar      1 <0>        -0.2514
      8 S1          0.0345   -0.2707    2.8933 S.3       1 <0>         0.1393
      9 C7          0.0711   -1.9047    3.5694 C.2       1 <0>         0.1410
     10 C8          0.0478   -2.7295    2.4792 C.2       1 <0>        -0.1885
     11 C9          0.0343   -4.2401    2.6984 C.3       1 <0>         0.0239
     12 H1         -0.9957   -4.5929    2.7511 H         1 <0>         0.1106
     13 C10         0.7500   -4.5494    4.0124 C.3       1 <0>        -0.1451
     14 C11         0.2987   -3.6367    5.1184 C.2       1 <0>         0.5354
     15 O1          0.1378   -4.0817    6.2351 O.2       1 <0>        -0.4935
     16 N2          0.0928   -2.3229    4.8815 N.am      1 <0>        -0.6192
     17 C12         0.7450   -4.9230    1.5584 C.ar      1 <0>        -0.0753
     18 C13         2.0764   -4.6409    1.3038 C.ar      1 <0>         0.1261
     19 C14         2.7282   -5.2688    0.2562 C.ar      1 <0>        -0.1470
     20 C15         2.0498   -6.1769   -0.5350 C.ar      1 <0>        -0.0789
     21 C16         0.7208   -6.4585   -0.2808 C.ar      1 <0>        -0.1197
     22 C17         0.0694   -5.8359    0.7695 C.ar      1 <0>         0.0135
     23 Cl1        -1.5980   -6.1957    1.0922 Cl        1 <0>        -0.0539
     24 F1          2.7390   -3.7530    2.0770 F         1 <0>        -0.1305
     25 N3          0.0310   -2.8563   -2.3204 N.pl3     1 <0>        -0.8362
     26 C18        -0.0099   -0.0401   -2.4654 C.1       1 <0>         0.2620
     27 N4         -0.0227    0.4994   -3.4651 N.1       1 <0>        -0.4110
     28 H2          1.0042    1.8801    0.0026 H         1 <0>         0.0951
     29 H3         -0.5455    1.8639   -0.8728 H         1 <0>         0.0813
     30 H4         -0.5286    1.8543    0.9071 H         1 <0>         0.0839
     31 H5          0.5427   -5.5813    4.2959 H         1 <0>         0.1185
     32 H6          1.8240   -4.4303    3.8689 H         1 <0>         0.1159
     33 H7         -0.0511   -1.6991    5.6103 H         1 <0>         0.4262
     34 H8          3.7666   -5.0490    0.0568 H         1 <0>         0.1376
     35 H9          2.5584   -6.6663   -1.3523 H         1 <0>         0.1399
     36 H10         0.1915   -7.1678   -0.8998 H         1 <0>         0.1388
     37 H11         0.0204   -2.3964   -3.1744 H         1 <0>         0.4103
     38 H12         0.0448   -3.8257   -2.2917 H         1 <0>         0.4106
@<TRIPOS>BOND
     1    1    2 1
     2    1   28 1
     3    1   29 1
     4    1   30 1
     5    2    7 ar
     6    2    3 ar
     7    3    4 ar
     8    3   26 1
     9    4    5 ar
    10    4   25 1
    11    5    6 ar
    12    6   10 1
    13    6    7 ar
    14    7    8 1
    15    8    9 1
    16    9   16 1
    17    9   10 2
    18   10   11 1
    19   11   12 1
    20   11   13 1
    21   11   17 1
    22   13   14 1
    23   13   31 1
    24   13   32 1
    25   14   15 2
    26   14   16 am
    27   16   33 1
    28   17   22 ar
    29   17   18 ar
    30   18   19 ar
    31   18   24 1
    32   19   20 ar
    33   19   34 1
    34   20   21 ar
    35   20   35 1
    36   21   22 ar
    37   21   36 1
    38   22   23 1
    39   25   37 1
    40   25   38 1
    41   26   27 3
@<TRIPOS>MOLECULE
ZINC20291928
   38    41     0     0     0
SMALL
USER_CHARGES

@<TRIPOS>ATOM
      1 C1         -0.0184    1.5028    0.0103 C.3       1 <0>        -0.1319
      2 C2          0.0021   -0.0041    0.0020 C.ar      1 <0>         0.1152
      3 C3          0.0063   -0.7201   -1.2052 C.ar      1 <0>        -0.1544
      4 C4          0.0265   -2.1280   -1.1409 C.ar      1 <0>         0.4811
      5 N1          0.0406   -2.7684    0.0038 N.ar      1 <0>        -0.5291
      6 C5          0.0367   -2.1309    1.1986 C.ar      1 <0>         0.2591
      7 C6          0.0229   -0.7162    1.1736 C.ar      1 <0>        -0.2554
      8 S1          0.0345   -0.2707    2.8933 S.3       1 <0>         0.1344
      9 C7          0.0711   -1.9047    3.5694 C.2       1 <0>         0.1584
     10 C8          0.0478   -2.7295    2.4792 C.2       1 <0>        -0.2045
     11 C9          0.0343   -4.2401    2.6984 C.3       1 <0>         0.0261
     12 H1          0.5510   -4.7338    1.8754 H         1 <0>         0.1270
     13 C10         0.7500   -4.5494    4.0124 C.3       1 <0>        -0.1425
     14 C11         0.2987   -3.6367    5.1184 C.2       1 <0>         0.5416
     15 O1          0.1378   -4.0817    6.2351 O.2       1 <0>        -0.4999
     16 N2          0.0928   -2.3229    4.8815 N.am      1 <0>        -0.6186
     17 C12        -1.3898   -4.7284    2.7671 C.ar      1 <0>        -0.1041
     18 C13        -2.2437   -4.2390    3.7410 C.ar      1 <0>         0.1086
     19 C14        -3.5517   -4.6885    3.8030 C.ar      1 <0>        -0.1439
     20 C15        -4.0045   -5.6253    2.8930 C.ar      1 <0>        -0.0777
     21 C16        -3.1522   -6.1138    1.9210 C.ar      1 <0>        -0.1178
     22 C17        -1.8460   -5.6614    1.8539 C.ar      1 <0>         0.0045
     23 Cl1        -0.7783   -6.2704    0.6281 Cl        1 <0>        -0.0405
     24 F1         -1.8006   -3.3237    4.6304 F         1 <0>        -0.1187
     25 N3          0.0310   -2.8563   -2.3204 N.pl3     1 <0>        -0.8370
     26 C18        -0.0099   -0.0401   -2.4654 C.1       1 <0>         0.2626
     27 N4         -0.0227    0.4994   -3.4651 N.1       1 <0>        -0.4121
     28 H2          1.0042    1.8801    0.0026 H         1 <0>         0.0953
     29 H3         -0.5455    1.8639   -0.8728 H         1 <0>         0.0811
     30 H4         -0.5286    1.8543    0.9071 H         1 <0>         0.0836
     31 H5          0.5427   -5.5813    4.2959 H         1 <0>         0.1160
     32 H6          1.8240   -4.4303    3.8689 H         1 <0>         0.1180
     33 H7         -0.0511   -1.6991    5.6103 H         1 <0>         0.4241
     34 H8         -4.2181   -4.3074    4.5626 H         1 <0>         0.1423
     35 H9         -5.0248   -5.9759    2.9419 H         1 <0>         0.1445
     36 H10        -3.5068   -6.8460    1.2107 H         1 <0>         0.1428
     37 H11         0.0204   -2.3964   -3.1744 H         1 <0>         0.4104
     38 H12         0.0448   -3.8257   -2.2917 H         1 <0>         0.4116
@<TRIPOS>BOND
     1    1    2 1
     2    1   28 1
     3    1   29 1
     4    1   30 1
     5    2    7 ar
     6    2    3 ar
     7    3    4 ar
     8    3   26 1
     9    4    5 ar
    10    4   25 1
    11    5    6 ar
    12    6   10 1
    13    6    7 ar
    14    7    8 1
    15    8    9 1
    16    9   16 1
    17    9   10 2
    18   10   11 1
    19   11   12 1
    20   11   13 1
    21   11   17 1
    22   13   14 1
    23   13   31 1
    24   13   32 1
    25   14   15 2
    26   14   16 am
    27   16   33 1
    28   17   22 ar
    29   17   18 ar
    30   18   19 ar
    31   18   24 1
    32   19   20 ar
    33   19   34 1
    34   20   21 ar
    35   20   35 1
    36   21   22 ar
    37   21   36 1
    38   22   23 1
    39   25   37 1
    40   25   38 1
    41   26   27 3
@<TRIPOS>MOLECULE
ZINC20150262
   38    41     0     0     0
SMALL
USER_CHARGES

@<TRIPOS>ATOM
      1 C1         -0.0184    1.5028    0.0103 C.3       1 <0>        -0.1318
      2 C2          0.0021   -0.0041    0.0020 C.ar      1 <0>         0.1128
      3 C3          0.0063   -0.7201   -1.2052 C.ar      1 <0>        -0.1506
      4 C4          0.0265   -2.1280   -1.1409 C.ar      1 <0>         0.4793
      5 N1          0.0406   -2.7684    0.0038 N.ar      1 <0>        -0.5179
      6 C5          0.0367   -2.1309    1.1986 C.ar      1 <0>         0.2542
      7 C6          0.0229   -0.7162    1.1736 C.ar      1 <0>        -0.2523
      8 S1          0.0345   -0.2707    2.8933 S.3       1 <0>         0.1351
      9 C7          0.0711   -1.9047    3.5694 C.2       1 <0>         0.1359
     10 C8          0.0478   -2.7295    2.4792 C.2       1 <0>        -0.1865
     11 C9          0.0343   -4.2401    2.6984 C.3       1 <0>         0.0199
     12 H1         -0.9957   -4.5929    2.7511 H         1 <0>         0.1062
     13 C10         0.7500   -4.5494    4.0124 C.3       1 <0>        -0.1374
     14 C11         0.2987   -3.6367    5.1184 C.2       1 <0>         0.5322
     15 O1          0.1378   -4.0817    6.2351 O.2       1 <0>        -0.4941
     16 N2          0.0928   -2.3229    4.8815 N.am      1 <0>        -0.6201
     17 C12         0.7450   -4.9230    1.5584 C.ar      1 <0>        -0.0382
     18 C13         2.0743   -4.6412    1.3045 C.ar      1 <0>        -0.0910
     19 C14         2.7263   -5.2674    0.2589 C.ar      1 <0>        -0.1109
     20 C15         2.0495   -6.1760   -0.5335 C.ar      1 <0>        -0.1079
     21 C16         0.7206   -6.4585   -0.2807 C.ar      1 <0>        -0.1099
     22 C17         0.0689   -5.8362    0.7694 C.ar      1 <0>        -0.0104
     23 Cl1        -1.5986   -6.1955    1.0918 Cl        1 <0>        -0.0697
     24 N3          0.0310   -2.8563   -2.3204 N.pl3     1 <0>        -0.8360
     25 C18        -0.0099   -0.0401   -2.4654 C.1       1 <0>         0.2617
     26 N4         -0.0227    0.4994   -3.4651 N.1       1 <0>        -0.4114
     27 H2          1.0042    1.8801    0.0026 H         1 <0>         0.0947
     28 H3         -0.5455    1.8639   -0.8728 H         1 <0>         0.0809
     29 H4         -0.5286    1.8543    0.9071 H         1 <0>         0.0836
     30 H5          0.5427   -5.5813    4.2959 H         1 <0>         0.1180
     31 H6          1.8240   -4.4303    3.8689 H         1 <0>         0.1118
     32 H7         -0.0511   -1.6991    5.6103 H         1 <0>         0.4257
     33 H8          2.6034   -3.9313    1.9230 H         1 <0>         0.1221
     34 H9          3.7648   -5.0467    0.0607 H         1 <0>         0.1236
     35 H10         2.5594   -6.6647   -1.3506 H         1 <0>         0.1275
     36 H11         0.1919   -7.1680   -0.9000 H         1 <0>         0.1300
     37 H12         0.0204   -2.3964   -3.1744 H         1 <0>         0.4098
     38 H13         0.0448   -3.8257   -2.2917 H         1 <0>         0.4112
@<TRIPOS>BOND
     1    1    2 1
     2    1   27 1
     3    1   28 1
     4    1   29 1
     5    2    7 ar
     6    2    3 ar
     7    3    4 ar
     8    3   25 1
     9    4    5 ar
    10    4   24 1
    11    5    6 ar
    12    6   10 1
    13    6    7 ar
    14    7    8 1
    15    8    9 1
    16    9   16 1
    17    9   10 2
    18   10   11 1
    19   11   12 1
    20   11   13 1
    21   11   17 1
    22   13   14 1
    23   13   30 1
    24   13   31 1
    25   14   15 2
    26   14   16 am
    27   16   32 1
    28   17   22 ar
    29   17   18 ar
    30   18   19 ar
    31   18   33 1
    32   19   20 ar
    33   19   34 1
    34   20   21 ar
    35   20   35 1
    36   21   22 ar
    37   21   36 1
    38   22   23 1
    39   24   37 1
    40   24   38 1
    41   25   26 3
@<TRIPOS>MOLECULE
ZINC20150263
   38    41     0     0     0
SMALL
USER_CHARGES

@<TRIPOS>ATOM
      1 C1         -0.0184    1.5028    0.0103 C.3       1 <0>        -0.1319
      2 C2          0.0021   -0.0041    0.0020 C.ar      1 <0>         0.1137
      3 C3          0.0063   -0.7201   -1.2052 C.ar      1 <0>        -0.1504
      4 C4          0.0265   -2.1280   -1.1409 C.ar      1 <0>         0.4802
      5 N1          0.0406   -2.7684    0.0038 N.ar      1 <0>        -0.5250
      6 C5          0.0367   -2.1309    1.1986 C.ar      1 <0>         0.2541
      7 C6          0.0229   -0.7162    1.1736 C.ar      1 <0>        -0.2523
      8 S1          0.0345   -0.2707    2.8933 S.3       1 <0>         0.1373
      9 C7          0.0711   -1.9047    3.5694 C.2       1 <0>         0.1353
     10 C8          0.0478   -2.7295    2.4792 C.2       1 <0>        -0.1821
     11 C9          0.0343   -4.2401    2.6984 C.3       1 <0>         0.0206
     12 H1          0.5510   -4.7338    1.8754 H         1 <0>         0.1240
     13 C10         0.7500   -4.5494    4.0124 C.3       1 <0>        -0.1388
     14 C11         0.2987   -3.6367    5.1184 C.2       1 <0>         0.5306
     15 O1          0.1378   -4.0817    6.2351 O.2       1 <0>        -0.4931
     16 N2          0.0928   -2.3229    4.8815 N.am      1 <0>        -0.6234
     17 C12        -1.3898   -4.7284    2.7671 C.ar      1 <0>        -0.0693
     18 C13        -2.2421   -4.2396    3.7395 C.ar      1 <0>        -0.1043
     19 C14        -3.5482   -4.6873    3.8026 C.ar      1 <0>        -0.1107
     20 C15        -4.0031   -5.6243    2.8933 C.ar      1 <0>        -0.1053
     21 C16        -3.1520   -6.1138    1.9208 C.ar      1 <0>        -0.1093
     22 C17        -1.8459   -5.6617    1.8536 C.ar      1 <0>        -0.0188
     23 Cl1        -0.7780   -6.2711    0.6280 Cl        1 <0>        -0.0560
     24 N3          0.0310   -2.8563   -2.3204 N.pl3     1 <0>        -0.8365
     25 C18        -0.0099   -0.0401   -2.4654 C.1       1 <0>         0.2618
     26 N4         -0.0227    0.4994   -3.4651 N.1       1 <0>        -0.4104
     27 H2          1.0042    1.8801    0.0026 H         1 <0>         0.0955
     28 H3         -0.5455    1.8639   -0.8728 H         1 <0>         0.0813
     29 H4         -0.5286    1.8543    0.9071 H         1 <0>         0.0838
     30 H5          0.5427   -5.5813    4.2959 H         1 <0>         0.1176
     31 H6          1.8240   -4.4303    3.8689 H         1 <0>         0.1166
     32 H7         -0.0511   -1.6991    5.6103 H         1 <0>         0.4255
     33 H8         -1.8872   -3.5079    4.4502 H         1 <0>         0.1206
     34 H9         -4.2136   -4.3054    4.5626 H         1 <0>         0.1288
     35 H10        -5.0237   -5.9741    2.9433 H         1 <0>         0.1329
     36 H11        -3.5073   -6.8459    1.2108 H         1 <0>         0.1348
     37 H12         0.0204   -2.3964   -3.1744 H         1 <0>         0.4105
     38 H13         0.0448   -3.8257   -2.2917 H         1 <0>         0.4122
@<TRIPOS>BOND
     1    1    2 1
     2    1   27 1
     3    1   28 1
     4    1   29 1
     5    2    7 ar
     6    2    3 ar
     7    3    4 ar
     8    3   25 1
     9    4    5 ar
    10    4   24 1
    11    5    6 ar
    12    6   10 1
    13    6    7 ar
    14    7    8 1
    15    8    9 1
    16    9   16 1
    17    9   10 2
    18   10   11 1
    19   11   12 1
    20   11   13 1
    21   11   17 1
    22   13   14 1
    23   13   30 1
    24   13   31 1
    25   14   15 2
    26   14   16 am
    27   16   32 1
    28   17   22 ar
    29   17   18 ar
    30   18   19 ar
    31   18   33 1
    32   19   20 ar
    33   19   34 1
    34   20   21 ar
    35   20   35 1
    36   21   22 ar
    37   21   36 1
    38   22   23 1
    39   24   37 1
    40   24   38 1
    41   25   26 3
@<TRIPOS>MOLECULE
ZINC20347569
   41    44     0     0     0
SMALL
USER_CHARGES
amino-methyl-(o-tolyl)-oxo-BLAHcarbonitrile
@<TRIPOS>ATOM
      1 C1         -4.3202    2.4540    6.1563 C.3       1 <0>        -0.1221
      2 C2         -5.2187    1.4610    5.4651 C.ar      1 <0>        -0.0676
      3 C3         -5.5031    0.2497    6.0679 C.ar      1 <0>        -0.1198
      4 C4         -6.3271   -0.6611    5.4339 C.ar      1 <0>        -0.1151
      5 C5         -6.8677   -0.3604    4.1975 C.ar      1 <0>        -0.1233
      6 C6         -6.5876    0.8527    3.5973 C.ar      1 <0>        -0.1116
      7 C7         -5.7587    1.7614    4.2289 C.ar      1 <0>        -0.0795
      8 C8         -5.4491    3.0819    3.5721 C.3       1 <0>         0.0263
      9 H1         -4.7037    3.6047    4.1894 H         1 <0>         0.1180
     10 C9         -6.7250    3.9156    3.4598 C.3       1 <0>        -0.1389
     11 C10        -7.6417    3.3871    2.3919 C.2       1 <0>         0.5310
     12 O1         -8.8395    3.3778    2.5817 O.2       1 <0>        -0.4984
     13 N1         -7.1464    2.9209    1.2209 N.am      1 <0>        -0.6390
     14 C11        -5.7811    2.7669    1.1236 C.2       1 <0>         0.1463
     15 C12        -4.9022    2.8402    2.1675 C.2       1 <0>        -0.1887
     16 C13        -3.5266    2.6783    1.8858 C.ar      1 <0>         0.2593
     17 C14        -3.1938    2.4355    0.5320 C.ar      1 <0>        -0.2586
     18 S1         -4.7682    2.4474   -0.2911 S.3       1 <0>         0.1253
     19 C15        -1.9006    2.2438    0.1184 C.ar      1 <0>         0.1151
     20 C16        -0.8831    2.3079    1.0832 C.ar      1 <0>        -0.1588
     21 C17        -1.2519    2.5612    2.4199 C.ar      1 <0>         0.4865
     22 N2         -2.5039    2.7322    2.7718 N.ar      1 <0>        -0.5382
     23 N3         -0.2638    2.6319    3.3895 N.pl3     1 <0>        -0.8601
     24 C18         0.4894    2.1211    0.7202 C.1       1 <0>         0.2649
     25 N4          1.5783    1.9728    0.4322 N.1       1 <0>        -0.4163
     26 C19        -1.5806    1.9783   -1.3301 C.3       1 <0>        -0.1358
     27 H2         -3.9907    2.0408    7.1210 H         1 <0>         0.0641
     28 H3         -4.8717    3.3902    6.3276 H         1 <0>         0.0691
     29 H4         -3.4424    2.6558    5.5248 H         1 <0>         0.0826
     30 H5         -5.0811    0.0149    7.0339 H         1 <0>         0.1221
     31 H6         -6.5489   -1.6075    5.9046 H         1 <0>         0.1212
     32 H7         -7.5118   -1.0719    3.7023 H         1 <0>         0.1194
     33 H8         -7.0131    1.0893    2.6333 H         1 <0>         0.1131
     34 H9         -7.2625    3.8944    4.4193 H         1 <0>         0.1162
     35 H10        -6.4635    4.9542    3.2089 H         1 <0>         0.1130
     36 H11        -7.8285    2.6808    0.3920 H         1 <0>         0.4526
     37 H12        -0.5345    2.8288    4.4373 H         1 <0>         0.4330
     38 H13         0.7910    2.4911    3.1111 H         1 <0>         0.4310
     39 H14        -0.4941    1.8543   -1.4488 H         1 <0>         0.0768
     40 H15        -1.9220    2.8260   -1.9423 H         1 <0>         0.0926
     41 H16        -2.0922    1.0608   -1.6564 H         1 <0>         0.0923
@<TRIPOS>BOND
     1    1    2 1
     2    1   27 1
     3    1   28 1
     4    1   29 1
     5    2    7 ar
     6    2    3 ar
     7    3    4 ar
     8    3   30 1
     9    4    5 ar
    10    4   31 1
    11    5    6 ar
    12    5   32 1
    13    6    7 ar
    14    6   33 1
    15    7    8 1
    16    8    9 1
    17    8   15 1
    18    8   10 1
    19   10   11 1
    20   10   34 1
    21   10   35 1
    22   11   12 2
    23   11   13 am
    24   13   14 1
    25   13   36 1
    26   14   18 1
    27   14   15 2
    28   15   16 1
    29   16   22 ar
    30   16   17 ar
    31   17   18 1
    32   17   19 ar
    33   19   20 ar
    34   19   26 1
    35   20   21 ar
    36   20   24 1
    37   21   22 ar
    38   21   23 1
    39   23   37 1
    40   23   38 1
    41   24   25 3
    42   26   39 1
    43   26   40 1
    44   26   41 1
@<TRIPOS>MOLECULE
ZINC20347571
   41    44     0     0     0
SMALL
USER_CHARGES
amino-methyl-(o-tolyl)-oxo-BLAHcarbonitrile
@<TRIPOS>ATOM
      1 C1          3.1696    3.6822   -2.9564 C.3       1 <0>        -0.1199
      2 C2          3.3233    4.3319   -1.6053 C.ar      1 <0>        -0.0639
      3 C3          4.5069    4.9644   -1.2730 C.ar      1 <0>        -0.1196
      4 C4          4.6476    5.5606   -0.0340 C.ar      1 <0>        -0.1172
      5 C5          3.6048    5.5244    0.8730 C.ar      1 <0>        -0.1222
      6 C6          2.4198    4.8966    0.5388 C.ar      1 <0>        -0.0908
      7 C7          2.2808    4.2956   -0.6986 C.ar      1 <0>        -0.0475
      8 C8          0.9905    3.6065   -1.0609 C.3       1 <0>         0.0260
      9 H1          1.0536    3.2903   -2.1126 H         1 <0>         0.0999
     10 C9          0.7827    2.3962   -0.1519 C.3       1 <0>        -0.1372
     11 C10        -0.6220    1.8682   -0.2432 C.2       1 <0>         0.5298
     12 O1         -0.8143    0.6708   -0.2364 O.2       1 <0>        -0.5004
     13 N1         -1.6744    2.7151   -0.3385 N.am      1 <0>        -0.6357
     14 C11        -1.4039    4.0500   -0.5331 C.2       1 <0>         0.1449
     15 C12        -0.1799    4.5679   -0.8680 C.2       1 <0>        -0.1935
     16 C13        -0.0817    5.9599   -1.0149 C.ar      1 <0>         0.2469
     17 C14        -1.2798    6.7002   -0.8072 C.ar      1 <0>        -0.2636
     18 S1         -2.4735    5.4575   -0.4178 S.3       1 <0>         0.1227
     19 C15        -1.3731    8.0635   -0.9121 C.ar      1 <0>         0.1178
     20 C16        -0.1672    8.7160   -1.2471 C.ar      1 <0>        -0.1620
     21 C17         0.9993    7.9555   -1.4437 C.ar      1 <0>         0.4717
     22 N2          1.0478    6.6418   -1.3343 N.ar      1 <0>        -0.4975
     23 N3          2.1674    8.6260   -1.7715 N.pl3     1 <0>        -0.8604
     24 C18        -0.1323   10.1407   -1.3875 C.1       1 <0>         0.2633
     25 N4         -0.1046   11.2709   -1.4989 N.1       1 <0>        -0.4199
     26 C19        -2.6633    8.8086   -0.6856 C.3       1 <0>        -0.1310
     27 H2          4.0965    3.8136   -3.5340 H         1 <0>         0.0646
     28 H3          2.3324    4.1500   -3.4951 H         1 <0>         0.0701
     29 H4          2.9678    2.6087   -2.8262 H         1 <0>         0.0672
     30 H5          5.3213    4.9931   -1.9817 H         1 <0>         0.1170
     31 H6          5.5721    6.0551    0.2254 H         1 <0>         0.1154
     32 H7          3.7147    5.9906    1.8410 H         1 <0>         0.1133
     33 H8          1.6036    4.8721    1.2457 H         1 <0>         0.1089
     34 H9          1.4746    1.5933   -0.4465 H         1 <0>         0.1164
     35 H10         0.9777    2.6837    0.8918 H         1 <0>         0.1101
     36 H11        -2.7010    2.3277   -0.2602 H         1 <0>         0.4525
     37 H12         3.0983    8.0626   -1.9324 H         1 <0>         0.4325
     38 H13         2.1634    9.7215   -1.8707 H         1 <0>         0.4272
     39 H14        -2.4934    9.8865   -0.8243 H         1 <0>         0.0779
     40 H15        -3.0194    8.6223    0.3384 H         1 <0>         0.0930
     41 H16        -3.4188    8.4608   -1.4055 H         1 <0>         0.0932
@<TRIPOS>BOND
     1    1    2 1
     2    1   27 1
     3    1   28 1
     4    1   29 1
     5    2    7 ar
     6    2    3 ar
     7    3    4 ar
     8    3   30 1
     9    4    5 ar
    10    4   31 1
    11    5    6 ar
    12    5   32 1
    13    6    7 ar
    14    6   33 1
    15    7    8 1
    16    8    9 1
    17    8   15 1
    18    8   10 1
    19   10   11 1
    20   10   34 1
    21   10   35 1
    22   11   12 2
    23   11   13 am
    24   13   14 1
    25   13   36 1
    26   14   18 1
    27   14   15 2
    28   15   16 1
    29   16   22 ar
    30   16   17 ar
    31   17   18 1
    32   17   19 ar
    33   19   20 ar
    34   19   26 1
    35   20   21 ar
    36   20   24 1
    37   21   22 ar
    38   21   23 1
    39   23   37 1
    40   23   38 1
    41   24   25 3
    42   26   39 1
    43   26   40 1
    44   26   41 1
@<TRIPOS>MOLECULE
ZINC20029523
   42    45     0     0     0
SMALL
USER_CHARGES

@<TRIPOS>ATOM
      1 C1         -0.0184    1.5028    0.0103 C.3       1 <0>        -0.1321
      2 C2          0.0021   -0.0041    0.0020 C.ar      1 <0>         0.1144
      3 C3          0.0063   -0.7201   -1.2052 C.ar      1 <0>        -0.1516
      4 C4          0.0265   -2.1280   -1.1409 C.ar      1 <0>         0.4804
      5 N1          0.0406   -2.7684    0.0038 N.ar      1 <0>        -0.5311
      6 C5          0.0367   -2.1309    1.1986 C.ar      1 <0>         0.2554
      7 C6          0.0229   -0.7162    1.1736 C.ar      1 <0>        -0.2531
      8 S1          0.0345   -0.2707    2.8933 S.3       1 <0>         0.1361
      9 C7          0.0711   -1.9047    3.5694 C.2       1 <0>         0.1382
     10 C8          0.0478   -2.7295    2.4792 C.2       1 <0>        -0.1837
     11 C9          0.0343   -4.2401    2.6984 C.3       1 <0>         0.0300
     12 H1          0.5510   -4.7338    1.8754 H         1 <0>         0.1168
     13 C10         0.7500   -4.5494    4.0124 C.3       1 <0>        -0.1389
     14 C11         0.2987   -3.6367    5.1184 C.2       1 <0>         0.5321
     15 O1          0.1378   -4.0817    6.2351 O.2       1 <0>        -0.4940
     16 N2          0.0928   -2.3229    4.8815 N.am      1 <0>        -0.6234
     17 C12        -1.3898   -4.7284    2.7671 C.ar      1 <0>        -0.0389
     18 C13        -2.2418   -4.2390    3.7402 C.ar      1 <0>        -0.1526
     19 C14        -3.5487   -4.6849    3.8058 C.ar      1 <0>        -0.0750
     20 C15        -4.0066   -5.6215    2.8991 C.ar      1 <0>        -0.2075
     21 C16        -3.1540   -6.1140    1.9221 C.ar      1 <0>         0.1293
     22 C17        -1.8445   -5.6603    1.8546 C.ar      1 <0>        -0.1316
     23 O2         -3.6021   -7.0352    1.0291 O.3       1 <0>        -0.3165
     24 C18        -4.9631   -7.4521    1.1548 C.3       1 <0>         0.0269
     25 N3          0.0310   -2.8563   -2.3204 N.pl3     1 <0>        -0.8367
     26 C19        -0.0099   -0.0401   -2.4654 C.1       1 <0>         0.2620
     27 N4         -0.0227    0.4994   -3.4651 N.1       1 <0>        -0.4105
     28 H2          1.0042    1.8801    0.0026 H         1 <0>         0.0957
     29 H3         -0.5455    1.8639   -0.8728 H         1 <0>         0.0814
     30 H4         -0.5286    1.8543    0.9071 H         1 <0>         0.0840
     31 H5          0.5427   -5.5813    4.2959 H         1 <0>         0.1182
     32 H6          1.8240   -4.4303    3.8689 H         1 <0>         0.1154
     33 H7         -0.0511   -1.6991    5.6103 H         1 <0>         0.4251
     34 H8         -1.8855   -3.5073    4.4502 H         1 <0>         0.1137
     35 H9         -4.2121   -4.3011    4.5667 H         1 <0>         0.1243
     36 H10        -5.0275   -5.9701    2.9513 H         1 <0>         0.1277
     37 H11        -1.1800   -6.0387    1.0919 H         1 <0>         0.1345
     38 H12        -5.1173   -7.8976    2.1376 H         1 <0>         0.0560
     39 H13        -5.6194   -6.5895    1.0400 H         1 <0>         0.0552
     40 H14        -5.1907   -8.1872    0.3829 H         1 <0>         0.1011
     41 H15         0.0204   -2.3964   -3.1744 H         1 <0>         0.4106
     42 H16         0.0448   -3.8257   -2.2917 H         1 <0>         0.4127
@<TRIPOS>BOND
     1    1    2 1
     2    1   28 1
     3    1   29 1
     4    1   30 1
     5    2    7 ar
     6    2    3 ar
     7    3    4 ar
     8    3   26 1
     9    4    5 ar
    10    4   25 1
    11    5    6 ar
    12    6   10 1
    13    6    7 ar
    14    7    8 1
    15    8    9 1
    16    9   16 1
    17    9   10 2
    18   10   11 1
    19   11   12 1
    20   11   13 1
    21   11   17 1
    22   13   14 1
    23   13   31 1
    24   13   32 1
    25   14   15 2
    26   14   16 am
    27   16   33 1
    28   17   22 ar
    29   17   18 ar
    30   18   19 ar
    31   18   34 1
    32   19   20 ar
    33   19   35 1
    34   20   21 ar
    35   20   36 1
    36   21   22 ar
    37   21   23 1
    38   22   37 1
    39   23   24 1
    40   24   38 1
    41   24   39 1
    42   24   40 1
    43   25   41 1
    44   25   42 1
    45   26   27 3
@<TRIPOS>MOLECULE
ZINC20029524
   42    45     0     0     0
SMALL
USER_CHARGES

@<TRIPOS>ATOM
      1 C1         -0.0184    1.5028    0.0103 C.3       1 <0>        -0.1316
      2 C2          0.0021   -0.0041    0.0020 C.ar      1 <0>         0.1122
      3 C3          0.0063   -0.7201   -1.2052 C.ar      1 <0>        -0.1512
      4 C4          0.0265   -2.1280   -1.1409 C.ar      1 <0>         0.4787
      5 N1          0.0406   -2.7684    0.0038 N.ar      1 <0>        -0.5151
      6 C5          0.0367   -2.1309    1.1986 C.ar      1 <0>         0.2548
      7 C6          0.0229   -0.7162    1.1736 C.ar      1 <0>        -0.2526
      8 S1          0.0345   -0.2707    2.8933 S.3       1 <0>         0.1330
      9 C7          0.0711   -1.9047    3.5694 C.2       1 <0>         0.1357
     10 C8          0.0478   -2.7295    2.4792 C.2       1 <0>        -0.1865
     11 C9          0.0343   -4.2401    2.6984 C.3       1 <0>         0.0289
     12 H1         -0.9957   -4.5929    2.7511 H         1 <0>         0.0993
     13 C10         0.7500   -4.5494    4.0124 C.3       1 <0>        -0.1380
     14 C11         0.2987   -3.6367    5.1184 C.2       1 <0>         0.5315
     15 O1          0.1378   -4.0817    6.2351 O.2       1 <0>        -0.4957
     16 N2          0.0928   -2.3229    4.8815 N.am      1 <0>        -0.6205
     17 C12         0.7450   -4.9230    1.5584 C.ar      1 <0>        -0.0098
     18 C13         2.0748   -4.6405    1.3050 C.ar      1 <0>        -0.1376
     19 C14         2.7296   -5.2652    0.2600 C.ar      1 <0>        -0.0766
     20 C15         2.0564   -6.1734   -0.5343 C.ar      1 <0>        -0.2086
     21 C16         0.7225   -6.4585   -0.2822 C.ar      1 <0>         0.1280
     22 C17         0.0692   -5.8347    0.7711 C.ar      1 <0>        -0.1250
     23 O2          0.0582   -7.3515   -1.0620 O.3       1 <0>        -0.3188
     24 C18         0.7955   -7.9595   -2.1244 C.3       1 <0>         0.0282
     25 N3          0.0310   -2.8563   -2.3204 N.pl3     1 <0>        -0.8364
     26 C19        -0.0099   -0.0401   -2.4654 C.1       1 <0>         0.2621
     27 N4         -0.0227    0.4994   -3.4651 N.1       1 <0>        -0.4122
     28 H2          1.0042    1.8801    0.0026 H         1 <0>         0.0945
     29 H3         -0.5455    1.8639   -0.8728 H         1 <0>         0.0807
     30 H4         -0.5286    1.8543    0.9071 H         1 <0>         0.0836
     31 H5          0.5427   -5.5813    4.2959 H         1 <0>         0.1183
     32 H6          1.8240   -4.4303    3.8689 H         1 <0>         0.1127
     33 H7         -0.0511   -1.6991    5.6103 H         1 <0>         0.4252
     34 H8          2.6026   -3.9303    1.9243 H         1 <0>         0.1142
     35 H9          3.7682   -5.0429    0.0641 H         1 <0>         0.1189
     36 H10         2.5682   -6.6607   -1.3510 H         1 <0>         0.1225
     37 H11        -0.9680   -6.0585    0.9723 H         1 <0>         0.1257
     38 H12         1.1558   -7.1879   -2.8047 H         1 <0>         0.0538
     39 H13         1.6440   -8.5054   -1.7119 H         1 <0>         0.0546
     40 H14         0.1489   -8.6492   -2.6671 H         1 <0>         0.0989
     41 H15         0.0204   -2.3964   -3.1744 H         1 <0>         0.4093
     42 H16         0.0448   -3.8257   -2.2917 H         1 <0>         0.4110
@<TRIPOS>BOND
     1    1    2 1
     2    1   28 1
     3    1   29 1
     4    1   30 1
     5    2    7 ar
     6    2    3 ar
     7    3    4 ar
     8    3   26 1
     9    4    5 ar
    10    4   25 1
    11    5    6 ar
    12    6   10 1
    13    6    7 ar
    14    7    8 1
    15    8    9 1
    16    9   16 1
    17    9   10 2
    18   10   11 1
    19   11   12 1
    20   11   13 1
    21   11   17 1
    22   13   14 1
    23   13   31 1
    24   13   32 1
    25   14   15 2
    26   14   16 am
    27   16   33 1
    28   17   22 ar
    29   17   18 ar
    30   18   19 ar
    31   18   34 1
    32   19   20 ar
    33   19   35 1
    34   20   21 ar
    35   20   36 1
    36   21   22 ar
    37   21   23 1
    38   22   37 1
    39   23   24 1
    40   24   38 1
    41   24   39 1
    42   24   40 1
    43   25   41 1
    44   25   42 1
    45   26   27 3
@<TRIPOS>MOLECULE
ZINC20029530
   42    45     0     0     0
SMALL
USER_CHARGES

@<TRIPOS>ATOM
      1 C1         -0.0184    1.5028    0.0103 C.3       1 <0>        -0.1311
      2 C2          0.0021   -0.0041    0.0020 C.ar      1 <0>         0.1109
      3 C3          0.0062   -0.7198   -1.2054 C.ar      1 <0>        -0.1525
      4 C4          0.0256   -2.1281   -1.1416 C.ar      1 <0>         0.4751
      5 N1          0.0398   -2.7688    0.0025 N.ar      1 <0>        -0.5264
      6 C5          0.0366   -2.1318    1.1986 C.ar      1 <0>         0.2436
      7 C6          0.0229   -0.7161    1.1740 C.ar      1 <0>        -0.2563
      8 S1          0.0344   -0.2681    2.8932 S.3       1 <0>         0.1502
      9 C7          0.0709   -1.9002    3.5733 C.2       1 <0>         0.1234
     10 C8          0.0489   -2.7290    2.4755 C.2       1 <0>        -0.1958
     11 C9          0.0412   -4.2382    2.7068 C.3       1 <0>         0.0400
     12 H1          0.5561   -4.7393    1.8872 H         1 <0>         0.1251
     13 C10         0.7686   -4.5184    4.0225 C.3       1 <0>        -0.1121
     14 C11         0.3502   -3.5655    5.1054 C.2       1 <0>         0.4116
     15 N2          0.0856   -2.3168    4.8553 N.2       1 <0>        -0.5410
     16 O1          0.2682   -4.0134    6.3739 O.3       1 <0>        -0.4440
     17 C12        -1.3797   -4.7330    2.7938 C.ar      1 <0>        -0.1127
     18 C13        -2.2245   -4.2412    3.7702 C.ar      1 <0>        -0.0796
     19 C14        -3.5278   -4.6949    3.8509 C.ar      1 <0>        -0.1543
     20 C15        -3.9896   -5.6415    2.9547 C.ar      1 <0>        -0.0770
     21 C16        -3.1491   -6.1359    1.9764 C.ar      1 <0>        -0.2087
     22 C17        -1.8421   -5.6782    1.8901 C.ar      1 <0>         0.1469
     23 O2         -1.0149   -6.1590    0.9250 O.3       1 <0>        -0.3050
     24 C18        -1.5588   -7.1304    0.0291 C.3       1 <0>         0.0275
     25 N3          0.0302   -2.8558   -2.3213 N.pl3     1 <0>        -0.8394
     26 C19        -0.0092   -0.0394   -2.4653 C.1       1 <0>         0.2639
     27 N4         -0.0215    0.5003   -3.4648 N.1       1 <0>        -0.4140
     28 H2          1.0042    1.8801    0.0026 H         1 <0>         0.0945
     29 H3         -0.5455    1.8639   -0.8728 H         1 <0>         0.0801
     30 H4         -0.5286    1.8543    0.9071 H         1 <0>         0.0841
     31 H5          0.5471   -5.5371    4.3408 H         1 <0>         0.1132
     32 H6          1.8425   -4.4237    3.8617 H         1 <0>         0.1162
     33 H7         -0.0074   -3.3406    7.0115 H         1 <0>         0.4152
     34 H8         -1.8662   -3.5019    4.4713 H         1 <0>         0.1219
     35 H9         -4.1864   -4.3098    4.6153 H         1 <0>         0.1235
     36 H10        -5.0081   -5.9947    3.0199 H         1 <0>         0.1251
     37 H11        -3.5102   -6.8752    1.2768 H         1 <0>         0.1288
     38 H12        -0.7958   -7.4295   -0.6895 H         1 <0>         0.1007
     39 H13        -1.8872   -8.0025    0.5945 H         1 <0>         0.0544
     40 H14        -2.4085   -6.7001   -0.5011 H         1 <0>         0.0540
     41 H15         0.0201   -2.3955   -3.1751 H         1 <0>         0.4091
     42 H16         0.0434   -3.8253   -2.2930 H         1 <0>         0.4109
@<TRIPOS>BOND
     1    1    2 1
     2    1   28 1
     3    1   29 1
     4    1   30 1
     5    2    7 ar
     6    2    3 ar
     7    3    4 ar
     8    3   26 1
     9    4    5 ar
    10    4   25 1
    11    5    6 ar
    12    6   10 1
    13    6    7 ar
    14    7    8 1
    15    8    9 1
    16    9   15 1
    17    9   10 2
    18   10   11 1
    19   11   12 1
    20   11   13 1
    21   11   17 1
    22   13   14 1
    23   13   31 1
    24   13   32 1
    25   14   15 2
    26   14   16 1
    27   16   33 1
    28   17   22 ar
    29   17   18 ar
    30   18   19 ar
    31   18   34 1
    32   19   20 ar
    33   19   35 1
    34   20   21 ar
    35   20   36 1
    36   21   22 ar
    37   21   37 1
    38   22   23 1
    39   23   24 1
    40   24   38 1
    41   24   39 1
    42   24   40 1
    43   25   41 1
    44   25   42 1
    45   26   27 3
@<TRIPOS>MOLECULE
ZINC20029531
   42    45     0     0     0
SMALL
USER_CHARGES

@<TRIPOS>ATOM
      1 C1         -0.0184    1.5028    0.0103 C.3       1 <0>        -0.1308
      2 C2          0.0021   -0.0041    0.0020 C.ar      1 <0>         0.1096
      3 C3          0.0062   -0.7198   -1.2054 C.ar      1 <0>        -0.1519
      4 C4          0.0256   -2.1281   -1.1416 C.ar      1 <0>         0.4741
      5 N1          0.0390   -2.7688    0.0025 N.ar      1 <0>        -0.5169
      6 C5          0.0356   -2.1318    1.1986 C.ar      1 <0>         0.2445
      7 C6          0.0229   -0.7161    1.1740 C.ar      1 <0>        -0.2559
      8 S1          0.0344   -0.2681    2.8932 S.3       1 <0>         0.1480
      9 C7          0.0709   -1.9002    3.5733 C.2       1 <0>         0.1220
     10 C8          0.0471   -2.7290    2.4755 C.2       1 <0>        -0.1989
     11 C9          0.0383   -4.2383    2.7068 C.3       1 <0>         0.0390
     12 H1         -0.9896   -4.5953    2.7702 H         1 <0>         0.1033
     13 C10         0.7651   -4.5189    4.0228 C.3       1 <0>        -0.1111
     14 C11         0.3468   -3.5658    5.1055 C.2       1 <0>         0.4105
     15 N2          0.0856   -2.3168    4.8553 N.2       1 <0>        -0.5385
     16 O1          0.2640   -4.0136    6.3740 O.3       1 <0>        -0.4452
     17 C12         0.7492   -4.9315    1.5732 C.ar      1 <0>        -0.0773
     18 C13         2.0771   -4.6505    1.3150 C.ar      1 <0>        -0.0655
     19 C14         2.7297   -5.2858    0.2749 C.ar      1 <0>        -0.1525
     20 C15         2.0557   -6.2041   -0.5092 C.ar      1 <0>        -0.0793
     21 C16         0.7283   -6.4889   -0.2548 C.ar      1 <0>        -0.2073
     22 C17         0.0725   -5.8565    0.7918 C.ar      1 <0>         0.1522
     23 O2         -1.2319   -6.1391    1.0476 O.3       1 <0>        -0.3153
     24 C18        -1.8650   -7.1017    0.2023 C.3       1 <0>         0.0290
     25 N3          0.0302   -2.8558   -2.3213 N.pl3     1 <0>        -0.8390
     26 C19        -0.0092   -0.0394   -2.4653 C.1       1 <0>         0.2638
     27 N4         -0.0215    0.5003   -3.4648 N.1       1 <0>        -0.4151
     28 H2          1.0042    1.8801    0.0026 H         1 <0>         0.0938
     29 H3         -0.5455    1.8639   -0.8728 H         1 <0>         0.0796
     30 H4         -0.5286    1.8543    0.9071 H         1 <0>         0.0838
     31 H5          0.5428   -5.5375    4.3410 H         1 <0>         0.1128
     32 H6          1.8391   -4.4249    3.8624 H         1 <0>         0.1122
     33 H7         -0.0114   -3.3406    7.0115 H         1 <0>         0.4160
     34 H8          2.6056   -3.9337    1.9259 H         1 <0>         0.1181
     35 H9          3.7675   -5.0643    0.0742 H         1 <0>         0.1185
     36 H10         2.5676   -6.6988   -1.3214 H         1 <0>         0.1202
     37 H11         0.2024   -7.2061   -0.8675 H         1 <0>         0.1247
     38 H12        -2.9011   -7.2336    0.5142 H         1 <0>         0.0983
     39 H13        -1.8380   -6.7525   -0.8299 H         1 <0>         0.0542
     40 H14        -1.3390   -8.0534    0.2778 H         1 <0>         0.0546
     41 H15         0.0201   -2.3955   -3.1751 H         1 <0>         0.4085
     42 H16         0.0434   -3.8253   -2.2930 H         1 <0>         0.4093
@<TRIPOS>BOND
     1    1    2 1
     2    1   28 1
     3    1   29 1
     4    1   30 1
     5    2    7 ar
     6    2    3 ar
     7    3    4 ar
     8    3   26 1
     9    4    5 ar
    10    4   25 1
    11    5    6 ar
    12    6   10 1
    13    6    7 ar
    14    7    8 1
    15    8    9 1
    16    9   15 1
    17    9   10 2
    18   10   11 1
    19   11   12 1
    20   11   13 1
    21   11   17 1
    22   13   14 1
    23   13   31 1
    24   13   32 1
    25   14   15 2
    26   14   16 1
    27   16   33 1
    28   17   22 ar
    29   17   18 ar
    30   18   19 ar
    31   18   34 1
    32   19   20 ar
    33   19   35 1
    34   20   21 ar
    35   20   36 1
    36   21   22 ar
    37   21   37 1
    38   22   23 1
    39   23   24 1
    40   24   38 1
    41   24   39 1
    42   24   40 1
    43   25   41 1
    44   25   42 1
    45   26   27 3
