@<TRIPOS>MOLECULE
ZINC37858692
   37    40     0     0     0
SMALL
USER_CHARGES

@<TRIPOS>ATOM
      1 C1          0.0269    1.2799   -0.9668 C.ar      1 <0>        -0.0753
      2 C2          1.2108    2.0132   -0.9686 C.ar      1 <0>        -0.0973
      3 C3          2.4101    1.4061   -0.7479 C.ar      1 <0>        -0.0938
      4 C4          2.4567    0.0226   -0.5147 C.ar      1 <0>        -0.0622
      5 C5          1.2528   -0.7240   -0.5122 C.ar      1 <0>         0.0009
      6 C6          0.0352   -0.0637   -0.7441 C.ar      1 <0>        -0.1062
      7 C7          1.2900   -2.1132   -0.2795 C.ar      1 <0>        -0.0878
      8 C8          2.4732   -2.7373   -0.0581 C.ar      1 <0>        -0.0669
      9 C9          3.6796   -2.0136   -0.0560 C.ar      1 <0>        -0.1476
     10 C10         3.6813   -0.6374   -0.2832 C.ar      1 <0>         0.1811
     11 O1          4.8431    0.0485   -0.2803 O.3       1 <0>        -0.2137
     12 C11         6.0240   -0.5614   -0.0619 C.2       1 <0>         0.5100
     13 C12         6.1020   -1.9513    0.1750 C.2       1 <0>        -0.3865
     14 C13         4.9612   -2.6969    0.1855 C.2       1 <0>         0.3406
     15 O2          5.0054   -4.0316    0.4105 O.3       1 <0>        -0.4171
     16 N1          7.1259    0.1513   -0.0699 N.pl3     1 <0>        -0.4977
     17 C14         8.4458   -0.4935    0.0163 C.3       1 <0>         0.0537
     18 C15         9.3250    0.0516   -1.1149 C.3       1 <0>         0.0434
     19 O3          9.3127    1.4806   -1.0738 O.3       1 <0>        -0.3613
     20 C16         8.0240    2.0611   -1.2883 C.3       1 <0>         0.0446
     21 C17         7.0783    1.6186   -0.1716 C.3       1 <0>         0.0409
     22 H1         -0.9120    1.7848   -1.1402 H         1 <0>         0.1433
     23 H2          1.1777    3.0778   -1.1478 H         1 <0>         0.1419
     24 H3          3.3209    1.9864   -0.7527 H         1 <0>         0.1366
     25 H4         -0.8909   -0.6193   -0.7460 H         1 <0>         0.1493
     26 H5          0.3725   -2.6829   -0.2771 H         1 <0>         0.1562
     27 H6          2.4896   -3.8025    0.1192 H         1 <0>         0.1571
     28 H7          7.0594   -2.4202    0.3478 H         1 <0>         0.1882
     29 H8          8.9033   -0.2659    0.9791 H         1 <0>         0.1238
     30 H9          8.3350   -1.5724   -0.0922 H         1 <0>         0.1220
     31 H10        10.3463   -0.3075   -0.9875 H         1 <0>         0.1344
     32 H11         8.9358   -0.2884   -2.0746 H         1 <0>         0.0713
     33 H12         8.1092    3.1478   -1.2856 H         1 <0>         0.1323
     34 H13         7.6300    1.7284   -2.2486 H         1 <0>         0.0698
     35 H14         6.0623    1.9376   -0.4045 H         1 <0>         0.1192
     36 H15         7.3958    2.0624    0.7719 H         1 <0>         0.1209
     37 H16         5.8969   -4.3765    0.5569 H         1 <0>         0.4319
@<TRIPOS>BOND
     1    1    6 ar
     2    1    2 ar
     3    1   22 1
     4    2    3 ar
     5    2   23 1
     6    3    4 ar
     7    3   24 1
     8    4   10 ar
     9    4    5 ar
    10    5    6 ar
    11    5    7 ar
    12    6   25 1
    13    7    8 ar
    14    7   26 1
    15    8    9 ar
    16    8   27 1
    17    9   14 1
    18    9   10 ar
    19   10   11 1
    20   11   12 1
    21   12   13 1
    22   12   16 2
    23   13   14 2
    24   13   28 1
    25   14   15 1
    26   15   37 1
    27   16   21 1
    28   16   17 1
    29   17   18 1
    30   17   29 1
    31   17   30 1
    32   18   19 1
    33   18   31 1
    34   18   32 1
    35   19   20 1
    36   20   21 1
    37   20   33 1
    38   20   34 1
    39   21   35 1
    40   21   36 1
@<TRIPOS>MOLECULE
ZINC37858692
   36    39     0     0     0
SMALL
USER_CHARGES

@<TRIPOS>ATOM
      1 C1         -0.0027    1.3314   -0.5809 C.ar      1 <0>        -0.0957
      2 C2          1.1814    2.0639   -0.5824 C.ar      1 <0>        -0.1189
      3 C3          2.3878    1.4437   -0.4550 C.ar      1 <0>        -0.0885
      4 C4          2.4414    0.0480   -0.3203 C.ar      1 <0>        -0.0638
      5 C5          1.2377   -0.6980   -0.3186 C.ar      1 <0>        -0.0077
      6 C6          0.0127   -0.0245   -0.4520 C.ar      1 <0>        -0.1117
      7 C7          1.2810   -2.1004   -0.1848 C.ar      1 <0>        -0.1294
      8 C8          2.4713   -2.7380   -0.0577 C.ar      1 <0>        -0.0442
      9 C9          3.6757   -2.0151   -0.0567 C.ar      1 <0>        -0.2125
     10 C10         3.6738   -0.6264   -0.1867 C.ar      1 <0>         0.1717
     11 O1          4.8376    0.0519   -0.1847 O.3       1 <0>        -0.2410
     12 C11         6.0234   -0.5588   -0.0603 C.2       1 <0>         0.4275
     13 C12         6.1365   -1.9100    0.0731 C.2       1 <0>        -0.3910
     14 C13         4.9739   -2.7047    0.0820 C.2       1 <0>         0.4293
     15 O2          5.0371   -3.9184    0.1993 O.2       1 <0>        -0.4888
     16 N1          7.1643    0.2032   -0.0680 N.pl3     1 <0>        -0.6067
     17 C14         8.4220   -0.3216   -0.6231 C.3       1 <0>         0.0934
     18 C15         8.9802    0.7073   -1.6128 C.3       1 <0>         0.0439
     19 O3          9.0521    1.9841   -0.9739 O.3       1 <0>        -0.3748
     20 C16         7.7856    2.5064   -0.5653 C.3       1 <0>         0.0447
     21 C17         7.1648    1.5716    0.4730 C.3       1 <0>         0.0804
     22 H1         -0.9471    1.8460   -0.6788 H         1 <0>         0.1304
     23 H2          1.1431    3.1382   -0.6864 H         1 <0>         0.1299
     24 H3          3.2989    2.0237   -0.4581 H         1 <0>         0.1312
     25 H4         -0.9138   -0.5795   -0.4529 H         1 <0>         0.1369
     26 H5          0.3631   -2.6694   -0.1831 H         1 <0>         0.1399
     27 H6          2.4933   -3.8129    0.0443 H         1 <0>         0.1431
     28 H7          7.1097   -2.3679    0.1714 H         1 <0>         0.1553
     29 H8          9.1391   -0.4835    0.1817 H         1 <0>         0.0892
     30 H9          8.2310   -1.2621   -1.1399 H         1 <0>         0.1019
     31 H10         9.9772    0.4027   -1.9311 H         1 <0>         0.1148
     32 H11         8.3238    0.7710   -2.4807 H         1 <0>         0.0592
     33 H12         7.9232    3.4961   -0.1299 H         1 <0>         0.1116
     34 H13         7.1249    2.5766   -1.4294 H         1 <0>         0.0585
     35 H14         6.1417    1.8843    0.6816 H         1 <0>         0.0958
     36 H15         7.7532    1.6036    1.3900 H         1 <0>         0.0861
@<TRIPOS>BOND
     1    1    6 ar
     2    1    2 ar
     3    1   22 1
     4    2    3 ar
     5    2   23 1
     6    3    4 ar
     7    3   24 1
     8    4   10 ar
     9    4    5 ar
    10    5    6 ar
    11    5    7 ar
    12    6   25 1
    13    7    8 ar
    14    7   26 1
    15    8    9 ar
    16    8   27 1
    17    9   14 1
    18    9   10 ar
    19   10   11 1
    20   11   12 1
    21   12   13 2
    22   12   16 1
    23   13   14 1
    24   13   28 1
    25   14   15 2
    26   16   21 1
    27   16   17 1
    28   17   18 1
    29   17   29 1
    30   17   30 1
    31   18   19 1
    32   18   31 1
    33   18   32 1
    34   19   20 1
    35   20   21 1
    36   20   33 1
    37   20   34 1
    38   21   35 1
    39   21   36 1
@<TRIPOS>MOLECULE
ZINC20148984
   41    45     0     0     0
SMALL
USER_CHARGES
1-cyclopentyl-3-(1H-pyrrolo[3,2-e]pyridin-5-yl)pyrazolo[4,5-e]pyrimidin-4-amine
@<TRIPOS>ATOM
      1 C1          4.4845    4.9055    2.0125 C.2       1 <0>        -0.1900
      2 C2          5.5992    4.3307    1.5348 C.2       1 <0>         0.0669
      3 N1          5.2848    3.4893    0.5015 N.pl3     1 <0>        -0.5784
      4 H1          5.9256    2.9627   -0.0014 H         1 <0>         0.4233
      5 C3          3.9281    3.5001    0.2812 C.ar      1 <0>         0.2921
      6 C4          3.3669    4.3889    1.2195 C.ar      1 <0>        -0.1505
      7 C5          1.9890    4.6049    1.2249 C.ar      1 <0>         0.0123
      8 C6          1.2154    3.9130    0.2940 C.ar      1 <0>        -0.1086
      9 C7          1.8449    3.0477   -0.6050 C.ar      1 <0>         0.1517
     10 N2          3.1471    2.8701   -0.5872 N.ar      1 <0>        -0.4865
     11 C8         -0.2553    4.0974    0.2542 C.2       1 <0>         0.1769
     12 C9         -1.2579    3.0400    0.1283 C.ar      1 <0>        -0.3246
     13 C10        -1.2161    1.6416    0.0009 C.ar      1 <0>         0.5185
     14 N3         -2.3661    0.9828   -0.1017 N.ar      1 <0>        -0.6042
     15 C11        -3.5224    1.6223   -0.0898 C.ar      1 <0>         0.3863
     16 N4         -3.6100    2.9293    0.0228 N.ar      1 <0>        -0.5738
     17 C12        -2.5123    3.6779    0.1313 C.ar      1 <0>         0.3755
     18 N5         -2.2765    5.0144    0.2581 N.pl3     1 <0>        -0.3684
     19 N6         -0.8976    5.2388    0.3304 N.2       1 <0>        -0.2292
     20 C13        -3.3071    6.0542    0.3110 C.3       1 <0>         0.1632
     21 C14        -3.0862    7.0753   -0.8240 C.3       1 <0>        -0.1330
     22 C15        -3.4640    8.4369   -0.1879 C.3       1 <0>        -0.1220
     23 C16        -2.9184    8.3038    1.2556 C.3       1 <0>        -0.1210
     24 C17        -3.2009    6.8348    1.6328 C.3       1 <0>        -0.1322
     25 N7         -0.0104    0.9674   -0.0117 N.pl3     1 <0>        -0.8291
     26 H2          4.4234    5.6137    2.8256 H         1 <0>         0.1556
     27 H3          6.5967    4.5059    1.9100 H         1 <0>         0.1829
     28 H4          1.5348    5.2845    1.9308 H         1 <0>         0.1424
     29 H5          1.2485    2.5132   -1.3297 H         1 <0>         0.1671
     30 H6         -4.4328    1.0478   -0.1756 H         1 <0>         0.2050
     31 H7         -4.2959    5.6044    0.2215 H         1 <0>         0.1144
     32 H8         -2.0422    7.0775   -1.1374 H         1 <0>         0.0814
     33 H9         -3.7386    6.8539   -1.6687 H         1 <0>         0.0742
     34 H10        -4.5455    8.5726   -0.1810 H         1 <0>         0.0720
     35 H11        -2.9740    9.2575   -0.7119 H         1 <0>         0.0733
     36 H12        -3.4484    8.9788    1.9276 H         1 <0>         0.0704
     37 H13        -1.8473    8.5043    1.2786 H         1 <0>         0.0705
     38 H14        -4.1384    6.7646    2.1843 H         1 <0>         0.0772
     39 H15        -2.3825    6.4400    2.2349 H         1 <0>         0.0748
     40 H16         0.0305    0.0526   -0.3317 H         1 <0>         0.4120
     41 H17         0.7961    1.4102    0.2956 H         1 <0>         0.4116
@<TRIPOS>BOND
     1    1    6 1
     2    1    2 2
     3    1   26 1
     4    2    3 1
     5    2   27 1
     6    3    4 1
     7    3    5 1
     8    5   10 ar
     9    5    6 ar
    10    6    7 ar
    11    7    8 ar
    12    7   28 1
    13    8    9 ar
    14    8   11 1
    15    9   10 ar
    16    9   29 1
    17   11   19 2
    18   11   12 1
    19   12   17 ar
    20   12   13 ar
    21   13   14 ar
    22   13   25 1
    23   14   15 ar
    24   15   16 ar
    25   15   30 1
    26   16   17 ar
    27   17   18 1
    28   18   19 1
    29   18   20 1
    30   20   24 1
    31   20   21 1
    32   20   31 1
    33   21   22 1
    34   21   32 1
    35   21   33 1
    36   22   23 1
    37   22   34 1
    38   22   35 1
    39   23   24 1
    40   23   36 1
    41   23   37 1
    42   24   38 1
    43   24   39 1
    44   25   40 1
    45   25   41 1
@<TRIPOS>MOLECULE
ZINC53227598
   77    83     0     0     0
SMALL
USER_CHARGES

@<TRIPOS>ATOM
      1 C1         -2.5705    1.0336   -3.5686 C.3       1 <0>        -0.1888
      2 C2         -2.4328   -0.4879   -3.6514 C.3       1 <0>        -0.0098
      3 N1         -1.0604   -0.8348   -4.0440 N.4       1 <0>        -0.3884
      4 C3         -0.1287   -0.4155   -2.9887 C.3       1 <0>        -0.0048
      5 C4          1.3029   -0.7596   -3.4056 C.3       1 <0>         0.0270
      6 N2          1.4098   -2.2081   -3.6303 N.3       1 <0>        -0.5216
      7 C5          0.4650   -2.6467   -4.6672 C.3       1 <0>         0.0184
      8 C6         -0.9597   -2.2870   -4.2399 C.3       1 <0>         0.0014
      9 C7          2.7860   -2.5867   -3.9779 C.3       1 <0>         0.0355
     10 C8          2.9137   -4.0882   -3.9598 C.2       1 <0>         0.5142
     11 O1          1.9529   -4.7753   -3.6844 O.2       1 <0>        -0.4999
     12 N3          4.0956   -4.6675   -4.2496 N.am      1 <0>        -0.6726
     13 C9          4.2355   -6.0540   -4.1554 C.ar      1 <0>         0.1828
     14 C10         3.6813   -6.7243   -3.0833 C.ar      1 <0>        -0.1123
     15 C11         3.7986   -8.0955   -2.9562 C.ar      1 <0>        -0.0585
     16 C12         4.4899   -8.8162   -3.9295 C.ar      1 <0>        -0.0040
     17 C13         5.0502   -8.1447   -5.0120 C.ar      1 <0>        -0.0667
     18 C14         4.9398   -6.7574   -5.1648 C.ar      1 <0>        -0.0899
     19 C15         5.5818   -6.1874   -6.3701 C.ar      1 <0>        -0.0712
     20 C16         5.6219   -4.8300   -6.7557 C.ar      1 <0>        -0.0914
     21 C17         6.2599   -4.4495   -7.9090 C.ar      1 <0>        -0.1154
     22 C18         6.8817   -5.3810   -8.7270 C.ar      1 <0>        -0.0905
     23 C19         6.8589   -6.7167   -8.3752 C.ar      1 <0>        -0.0699
     24 C20         6.2189   -7.1068   -7.2164 C.ar      1 <0>        -0.1053
     25 S1          5.9816   -8.6772   -6.4251 S.3       1 <0>         0.0715
     26 C21         4.6274  -10.2869   -3.8116 C.ar      1 <0>        -0.0819
     27 C22         3.5028  -11.1027   -3.8877 C.ar      1 <0>        -0.0424
     28 C23         3.6231  -12.4770   -3.7785 C.ar      1 <0>        -0.1431
     29 C24         4.8606  -13.0574   -3.5925 C.ar      1 <0>        -0.0219
     30 C25         5.9982  -12.2554   -3.5138 C.ar      1 <0>        -0.2125
     31 C26         5.8904  -10.8632   -3.6287 C.ar      1 <0>         0.1715
     32 O2          6.9978  -10.0959   -3.5570 O.3       1 <0>        -0.2391
     33 C27         8.2195  -10.6175   -3.3826 C.2       1 <0>         0.4337
     34 C28         8.4335  -11.9581   -3.2651 C.2       1 <0>        -0.3985
     35 C29         7.3393  -12.8431   -3.3146 C.2       1 <0>         0.4322
     36 O3          7.4944  -14.0496   -3.2129 O.2       1 <0>        -0.4825
     37 N4          9.2956   -9.7700   -3.3204 N.pl3     1 <0>        -0.6035
     38 C30        10.6148  -10.1825   -3.8252 C.3       1 <0>         0.0931
     39 C31        11.1356   -9.0901   -4.7662 C.3       1 <0>         0.0445
     40 O4         11.0776   -7.8271   -4.0988 O.3       1 <0>        -0.3735
     41 C32         9.7565   -7.4144   -3.7408 C.3       1 <0>         0.0473
     42 C33         9.1638   -8.4189   -2.7524 C.3       1 <0>         0.0832
     43 H1         -1.8715    1.4219   -2.8278 H         1 <0>         0.0802
     44 H2         -2.3492    1.4720   -4.5418 H         1 <0>         0.0796
     45 H3         -3.5888    1.2910   -3.2773 H         1 <0>         0.1072
     46 H4         -2.6541   -0.9262   -2.6783 H         1 <0>         0.1306
     47 H5         -3.1318   -0.8762   -4.3922 H         1 <0>         0.1310
     48 H6         -0.2138    0.6603   -2.8353 H         1 <0>         0.1386
     49 H7         -0.3721   -0.9350   -2.0619 H         1 <0>         0.1392
     50 H8          1.5512   -0.2296   -4.3251 H         1 <0>         0.0632
     51 H9          1.9930   -0.4621   -2.6161 H         1 <0>         0.1259
     52 H10         0.6996   -2.1478   -5.6075 H         1 <0>         0.0579
     53 H11         0.5439   -3.7259   -4.7981 H         1 <0>         0.1392
     54 H12        -1.1988   -2.7969   -3.3066 H         1 <0>         0.1400
     55 H13        -1.6608   -2.5987   -5.0141 H         1 <0>         0.1361
     56 H14         3.0248   -2.2138   -4.9739 H         1 <0>         0.0802
     57 H15         3.4758   -2.1546   -3.2530 H         1 <0>         0.1236
     58 H16         4.8491   -4.1216   -4.5237 H         1 <0>         0.4118
     59 H17         3.1462   -6.1664   -2.3291 H         1 <0>         0.1387
     60 H18         3.3593   -8.6041   -2.1108 H         1 <0>         0.1452
     61 H19         5.1453   -4.0839   -6.1370 H         1 <0>         0.1145
     62 H20         6.2781   -3.4056   -8.1852 H         1 <0>         0.1306
     63 H21         7.3794   -5.0647   -9.6318 H         1 <0>         0.1399
     64 H22         7.3391   -7.4519   -9.0040 H         1 <0>         0.1368
     65 H23         2.5284  -10.6599   -4.0329 H         1 <0>         0.1427
     66 H24         2.7424  -13.0992   -3.8389 H         1 <0>         0.1422
     67 H25         4.9480  -14.1305   -3.5076 H         1 <0>         0.1471
     68 H26         9.4346  -12.3386   -3.1255 H         1 <0>         0.1552
     69 H27        11.3046  -10.3075   -2.9905 H         1 <0>         0.0897
     70 H28        10.5222  -11.1223   -4.3695 H         1 <0>         0.1026
     71 H29        12.1670   -9.3089   -5.0425 H         1 <0>         0.1151
     72 H30        10.5169   -9.0567   -5.6630 H         1 <0>         0.0590
     73 H31         9.7959   -6.4276   -3.2794 H         1 <0>         0.1068
     74 H32         9.1329   -7.3749   -4.6338 H         1 <0>         0.0562
     75 H33         8.1108   -8.1914   -2.5867 H         1 <0>         0.0927
     76 H34         9.7050   -8.3633   -1.8079 H         1 <0>         0.0851
     77 H35        -0.8275   -0.3626   -4.9048 H         1 <0>         0.4193
@<TRIPOS>BOND
     1    1    2 1
     2    1   43 1
     3    1   44 1
     4    1   45 1
     5    2    3 1
     6    2   46 1
     7    2   47 1
     8    3    8 1
     9    3    4 1
    10    3   77 1
    11    4    5 1
    12    4   48 1
    13    4   49 1
    14    5    6 1
    15    5   50 1
    16    5   51 1
    17    6    7 1
    18    6    9 1
    19    7    8 1
    20    7   52 1
    21    7   53 1
    22    8   54 1
    23    8   55 1
    24    9   10 1
    25    9   56 1
    26    9   57 1
    27   10   11 2
    28   10   12 am
    29   12   13 1
    30   12   58 1
    31   13   18 ar
    32   13   14 ar
    33   14   15 ar
    34   14   59 1
    35   15   16 ar
    36   15   60 1
    37   16   17 ar
    38   16   26 1
    39   17   25 1
    40   17   18 ar
    41   18   19 1
    42   19   24 ar
    43   19   20 ar
    44   20   21 ar
    45   20   61 1
    46   21   22 ar
    47   21   62 1
    48   22   23 ar
    49   22   63 1
    50   23   24 ar
    51   23   64 1
    52   24   25 1
    53   26   31 ar
    54   26   27 ar
    55   27   28 ar
    56   27   65 1
    57   28   29 ar
    58   28   66 1
    59   29   30 ar
    60   29   67 1
    61   30   35 1
    62   30   31 ar
    63   31   32 1
    64   32   33 1
    65   33   34 2
    66   33   37 1
    67   34   35 1
    68   34   68 1
    69   35   36 2
    70   37   42 1
    71   37   38 1
    72   38   39 1
    73   38   69 1
    74   38   70 1
    75   39   40 1
    76   39   71 1
    77   39   72 1
    78   40   41 1
    79   41   42 1
    80   41   73 1
    81   41   74 1
    82   42   75 1
    83   42   76 1
@<TRIPOS>MOLECULE
ZINC20148983
   39    42     0     0     0
SMALL
USER_CHARGES
1-isopropyl-3-(6-quinolyl)pyrazolo[4,5-e]pyrimidin-4-amine
@<TRIPOS>ATOM
      1 C1          1.0254    8.7978   -2.0248 C.3       1 <0>        -0.1621
      2 C2          1.2018    8.9153   -0.5095 C.3       1 <0>         0.1606
      3 C3         -0.1710    9.0289    0.1564 C.3       1 <0>        -0.1621
      4 N1          1.8926    7.7262   -0.0046 N.pl3     1 <0>        -0.3691
      5 C4          3.0880    7.7288    0.6508 C.ar      1 <0>         0.3756
      6 C5          3.3891    6.3885    0.9574 C.ar      1 <0>        -0.3235
      7 C6          2.2832    5.5859    0.4354 C.2       1 <0>         0.1611
      8 N2          1.4309    6.4112   -0.1252 N.2       1 <0>        -0.2249
      9 C7          2.1525    4.1119    0.5188 C.ar      1 <0>        -0.0128
     10 C8          1.7465    3.3824   -0.6110 C.ar      1 <0>        -0.0754
     11 C9          1.6190    2.0318   -0.5611 C.ar      1 <0>        -0.0829
     12 C10         1.8956    1.3409    0.6333 C.ar      1 <0>         0.1347
     13 C11         2.3061    2.0687    1.7786 C.ar      1 <0>        -0.1018
     14 C12         2.4317    3.4637    1.7084 C.ar      1 <0>        -0.0831
     15 C13         2.5804    1.3697    2.9700 C.ar      1 <0>        -0.0542
     16 C14         2.4374    0.0111    2.9678 C.ar      1 <0>        -0.1718
     17 C15         2.0303   -0.6425    1.8073 C.ar      1 <0>         0.1391
     18 N3          1.7757    0.0115    0.6997 N.ar      1 <0>        -0.4734
     19 C16         4.5832    6.1084    1.6415 C.ar      1 <0>         0.5181
     20 N4          5.3762    7.1241    1.9688 N.ar      1 <0>        -0.6038
     21 C17         5.0541    8.3678    1.6609 C.ar      1 <0>         0.3865
     22 N5          3.9473    8.6775    1.0220 N.ar      1 <0>        -0.5731
     23 N6          4.9255    4.8098    1.9657 N.pl3     1 <0>        -0.8303
     24 H1          2.0034    8.7169   -2.4992 H         1 <0>         0.0603
     25 H2          0.4358    7.9102   -2.2542 H         1 <0>         0.0702
     26 H3          0.5114    9.6825   -2.4004 H         1 <0>         0.0791
     27 H4          1.7914    9.8029   -0.2801 H         1 <0>         0.1120
     28 H5         -0.0453    9.1126    1.2359 H         1 <0>         0.0600
     29 H6         -0.6850    9.9136   -0.2192 H         1 <0>         0.0791
     30 H7         -0.7606    8.1413   -0.0730 H         1 <0>         0.0701
     31 H8          1.5326    3.9036   -1.5325 H         1 <0>         0.1376
     32 H9          1.3057    1.4868   -1.4393 H         1 <0>         0.1440
     33 H10         2.7434    4.0269    2.5755 H         1 <0>         0.1398
     34 H11         2.8910    1.8936    3.8619 H         1 <0>         0.1419
     35 H12         2.6394   -0.5553    3.8649 H         1 <0>         0.1418
     36 H13         1.9210   -1.7169    1.8201 H         1 <0>         0.1629
     37 H14         5.7273    9.1628    1.9460 H         1 <0>         0.2058
     38 H15         4.4796    4.0672    1.5292 H         1 <0>         0.4125
     39 H16         5.6119    4.6406    2.6300 H         1 <0>         0.4110
@<TRIPOS>BOND
     1    1    2 1
     2    1   24 1
     3    1   25 1
     4    1   26 1
     5    2    3 1
     6    2    4 1
     7    2   27 1
     8    3   28 1
     9    3   29 1
    10    3   30 1
    11    4    8 1
    12    4    5 1
    13    5   22 ar
    14    5    6 ar
    15    6    7 1
    16    6   19 ar
    17    7    8 2
    18    7    9 1
    19    9   14 ar
    20    9   10 ar
    21   10   11 ar
    22   10   31 1
    23   11   12 ar
    24   11   32 1
    25   12   18 ar
    26   12   13 ar
    27   13   14 ar
    28   13   15 ar
    29   14   33 1
    30   15   16 ar
    31   15   34 1
    32   16   17 ar
    33   16   35 1
    34   17   18 ar
    35   17   36 1
    36   19   20 ar
    37   19   23 1
    38   20   21 ar
    39   21   22 ar
    40   21   37 1
    41   23   38 1
    42   23   39 1
@<TRIPOS>MOLECULE
ZINC64479803
   28    31     0     0     0
SMALL
USER_CHARGES

@<TRIPOS>ATOM
      1 C1          0.5734    0.2607    1.7090 C.ar      1 <0>        -0.0968
      2 C2          1.7855    0.9164    1.7833 C.ar      1 <0>        -0.0956
      3 C3          2.6025    1.0004    0.6663 C.ar      1 <0>         0.0496
      4 C4          2.2013    0.4212   -0.5370 C.ar      1 <0>         0.0388
      5 C5          0.9878   -0.2369   -0.6157 C.ar      1 <0>        -0.0670
      6 C6          0.1673   -0.3201    0.5088 C.ar      1 <0>        -0.0169
      7 C7         -1.1344   -1.0246    0.4278 C.2       1 <0>         0.1756
      8 C8         -2.4095   -0.5536    0.9681 C.ar      1 <0>        -0.3232
      9 C9         -2.8292    0.5869    1.6726 C.ar      1 <0>         0.5197
     10 N1         -4.1105    0.6816    2.0140 N.ar      1 <0>        -0.6022
     11 C10        -4.9721   -0.2701    1.7012 C.ar      1 <0>         0.3901
     12 N2         -4.6251   -1.3542    1.0434 N.ar      1 <0>        -0.5739
     13 C11        -3.3629   -1.5409    0.6572 C.ar      1 <0>         0.3793
     14 N3         -2.7066   -2.5266   -0.0178 N.pl3     1 <0>        -0.4767
     15 H1         -3.1133   -3.3383   -0.3593 H         1 <0>         0.4499
     16 N4         -1.3567   -2.1830   -0.1469 N.2       1 <0>        -0.2263
     17 N5         -1.9328    1.5849    2.0028 N.pl3     1 <0>        -0.8280
     18 O1          3.1719    0.6412   -1.4716 O.3       1 <0>        -0.3037
     19 C12         3.9802    1.7086   -0.9423 C.3       1 <0>         0.2118
     20 O2          3.8240    1.5820    0.4834 O.3       1 <0>        -0.3039
     21 H2         -0.0586    0.1937    2.5822 H         1 <0>         0.1483
     22 H3          2.0983    1.3658    2.7142 H         1 <0>         0.1472
     23 H4          0.6757   -0.6860   -1.5470 H         1 <0>         0.1441
     24 H5         -6.0038   -0.1527    1.9985 H         1 <0>         0.2076
     25 H6         -1.0708    1.6284    1.5602 H         1 <0>         0.4136
     26 H7         -2.1655    2.2422    2.6771 H         1 <0>         0.4125
     27 H8          5.0241    1.5756   -1.2264 H         1 <0>         0.1366
     28 H9          3.6095    2.6751   -1.2837 H         1 <0>         0.0896
@<TRIPOS>BOND
     1    1    6 ar
     2    1    2 ar
     3    1   21 1
     4    2    3 ar
     5    2   22 1
     6    3   20 1
     7    3    4 ar
     8    4    5 ar
     9    4   18 1
    10    5    6 ar
    11    5   23 1
    12    6    7 1
    13    7   16 2
    14    7    8 1
    15    8   13 ar
    16    8    9 ar
    17    9   10 ar
    18    9   17 1
    19   10   11 ar
    20   11   12 ar
    21   11   24 1
    22   12   13 ar
    23   13   14 1
    24   14   15 1
    25   14   16 1
    26   17   25 1
    27   17   26 1
    28   18   19 1
    29   19   20 1
    30   19   27 1
    31   19   28 1
@<TRIPOS>MOLECULE
ZINC08581881
   25    27     0     0     0
SMALL
USER_CHARGES

@<TRIPOS>ATOM
      1 C1          0.2447    1.7699    0.6882 C.ar      1 <0>        -0.1041
      2 C2          0.7307    1.0893    1.7901 C.ar      1 <0>        -0.1153
      3 C3          1.9036    0.3682    1.6970 C.ar      1 <0>        -0.1092
      4 C4          2.5990    0.3265    0.4895 C.ar      1 <0>        -0.0287
      5 C5          2.1044    1.0143   -0.6175 C.ar      1 <0>        -0.0842
      6 C6          0.9305    1.7321   -0.5126 C.ar      1 <0>        -0.1144
      7 C7          3.8599   -0.4460    0.3833 C.2       1 <0>         0.1738
      8 C8          4.0960   -1.7941    0.8992 C.ar      1 <0>        -0.3250
      9 C9          3.3258   -2.7401    1.5961 C.ar      1 <0>         0.5194
     10 N1          3.8885   -3.9022    1.9123 N.ar      1 <0>        -0.6034
     11 C10         5.1403   -4.1665    1.5821 C.ar      1 <0>         0.3892
     12 N2          5.8986   -3.3123    0.9309 N.ar      1 <0>        -0.5748
     13 C11         5.4245   -2.1202    0.5690 C.ar      1 <0>         0.3781
     14 N3          5.9423   -1.0476   -0.0940 N.pl3     1 <0>        -0.4788
     15 H1          6.8449   -0.9877   -0.4442 H         1 <0>         0.4490
     16 N4          4.9681   -0.0488   -0.1959 N.2       1 <0>        -0.2315
     17 N5          2.0167   -2.4693    1.9444 N.pl3     1 <0>        -0.8276
     18 H2         -0.6759    2.3293    0.7645 H         1 <0>         0.1293
     19 H3          0.1913    1.1227    2.7252 H         1 <0>         0.1321
     20 H4          2.2823   -0.1625    2.5581 H         1 <0>         0.1315
     21 H5          2.6392    0.9858   -1.5554 H         1 <0>         0.1300
     22 H6          0.5463    2.2653   -1.3696 H         1 <0>         0.1313
     23 H7          5.5579   -5.1233    1.8588 H         1 <0>         0.2073
     24 H8          1.5430   -1.7376    1.5187 H         1 <0>         0.4144
     25 H9          1.5712   -3.0107    2.6147 H         1 <0>         0.4116
@<TRIPOS>BOND
     1    1    6 ar
     2    1    2 ar
     3    1   18 1
     4    2    3 ar
     5    2   19 1
     6    3    4 ar
     7    3   20 1
     8    4    5 ar
     9    4    7 1
    10    5    6 ar
    11    5   21 1
    12    6   22 1
    13    7   16 2
    14    7    8 1
    15    8   13 ar
    16    8    9 ar
    17    9   10 ar
    18    9   17 1
    19   10   11 ar
    20   11   12 ar
    21   11   23 1
    22   12   13 ar
    23   13   14 1
    24   14   15 1
    25   14   16 1
    26   17   24 1
    27   17   25 1
@<TRIPOS>MOLECULE
ZINC08581906
   35    37     0     0     0
SMALL
USER_CHARGES

@<TRIPOS>ATOM
      1 C1          0.4062    0.7134    0.7743 C.3       1 <0>        -0.1622
      2 C2          0.2062   -0.7227    0.2861 C.3       1 <0>         0.1603
      3 C3          0.8807   -1.6910    1.2599 C.3       1 <0>        -0.1622
      4 N1         -1.2267   -1.0197    0.2161 N.pl3     1 <0>        -0.3682
      5 C4         -1.9008   -1.3860   -0.9107 C.ar      1 <0>         0.3764
      6 C5         -3.2452   -1.5750   -0.5394 C.ar      1 <0>        -0.3225
      7 C6         -3.3224   -1.2938    0.8939 C.2       1 <0>         0.1576
      8 N2         -2.1144   -0.9772    1.2964 N.2       1 <0>        -0.2230
      9 C7         -4.5398   -1.3596    1.7373 C.ar      1 <0>         0.0119
     10 C8         -5.4110   -2.4425    1.6242 C.ar      1 <0>        -0.1154
     11 C9         -6.5434   -2.5019    2.4107 C.ar      1 <0>        -0.0699
     12 C10        -6.8177   -1.4892    3.3123 C.ar      1 <0>        -0.1122
     13 C11        -5.9551   -0.4073    3.4309 C.ar      1 <0>         0.1435
     14 C12        -4.8137   -0.3425    2.6492 C.ar      1 <0>        -0.1062
     15 O1         -6.2283    0.5856    4.3181 O.3       1 <0>        -0.4823
     16 Br1        -8.3720   -1.5780    4.3858 Br        1 <0>        -0.0262
     17 C13        -4.1663   -1.9613   -1.5268 C.ar      1 <0>         0.5186
     18 N3         -3.7252   -2.1311   -2.7695 N.ar      1 <0>        -0.6031
     19 C14        -2.4536   -1.9426   -3.0738 C.ar      1 <0>         0.3877
     20 N4         -1.5560   -1.5814   -2.1832 N.ar      1 <0>        -0.5731
     21 N5         -5.4973   -2.1603   -1.2145 N.pl3     1 <0>        -0.8288
     22 H1          1.4723    0.9344    0.8264 H         1 <0>         0.0796
     23 H2         -0.0744    1.4033    0.0805 H         1 <0>         0.0606
     24 H3         -0.0369    0.8258    1.7638 H         1 <0>         0.0698
     25 H4          0.6493   -0.8351   -0.7034 H         1 <0>         0.1127
     26 H5          0.4376   -1.5786    2.2494 H         1 <0>         0.0699
     27 H6          0.7383   -2.7142    0.9121 H         1 <0>         0.0604
     28 H7          1.9468   -1.4701    1.3120 H         1 <0>         0.0794
     29 H8         -5.1997   -3.2345    0.9210 H         1 <0>         0.1438
     30 H9         -7.2175   -3.3410    2.3219 H         1 <0>         0.1472
     31 H10        -4.1397    0.4960    2.7436 H         1 <0>         0.1455
     32 H11        -5.8524    0.4419    5.1973 H         1 <0>         0.3991
     33 H12        -2.1380   -2.0919   -4.0958 H         1 <0>         0.2063
     34 H13        -5.8559   -1.8196   -0.3801 H         1 <0>         0.4127
     35 H14        -6.0732   -2.6406   -1.8297 H         1 <0>         0.4121
@<TRIPOS>BOND
     1    1    2 1
     2    1   22 1
     3    1   23 1
     4    1   24 1
     5    2    3 1
     6    2    4 1
     7    2   25 1
     8    3   26 1
     9    3   27 1
    10    3   28 1
    11    4    8 1
    12    4    5 1
    13    5   20 ar
    14    5    6 ar
    15    6    7 1
    16    6   17 ar
    17    7    8 2
    18    7    9 1
    19    9   14 ar
    20    9   10 ar
    21   10   11 ar
    22   10   29 1
    23   11   12 ar
    24   11   30 1
    25   12   13 ar
    26   12   16 1
    27   13   14 ar
    28   13   15 1
    29   14   31 1
    30   15   32 1
    31   17   18 ar
    32   17   21 1
    33   18   19 ar
    34   19   20 ar
    35   19   33 1
    36   21   34 1
    37   21   35 1
@<TRIPOS>MOLECULE
ZINC36056301
   39    42     0     0     0
SMALL
USER_CHARGES

@<TRIPOS>ATOM
      1 C1          0.9254    1.9991    0.1115 C.3       1 <0>        -0.1625
      2 C2          0.5644    0.5164    0.0017 C.3       1 <0>         0.1602
      3 C3         -0.9547    0.3678   -0.1037 C.3       1 <0>        -0.1630
      4 N1          1.1948   -0.0526   -1.1921 N.pl3     1 <0>        -0.3660
      5 C4          2.0845   -1.0857   -1.1960 C.ar      1 <0>         0.3791
      6 C5          2.4399   -1.3150   -2.5382 C.ar      1 <0>        -0.3289
      7 C6          1.6949   -0.3401   -3.3365 C.2       1 <0>         0.1761
      8 N2          0.9724    0.3761   -2.5050 N.2       1 <0>        -0.2098
      9 C7          1.7418   -0.1929   -4.8056 C.2       1 <0>         0.1339
     10 C8          0.6708    0.0518   -5.6025 C.2       1 <0>        -0.1346
     11 C9          1.1678    0.1218   -6.9754 C.ar      1 <0>        -0.0943
     12 C10         0.5575    0.3431   -8.2141 C.ar      1 <0>        -0.0897
     13 C11         1.3249    0.3481   -9.3611 C.ar      1 <0>         0.0805
     14 C12         2.6992    0.1341   -9.2873 C.ar      1 <0>        -0.1109
     15 C13         3.3112   -0.0854   -8.0732 C.ar      1 <0>        -0.1139
     16 C14         2.5568   -0.0941   -6.9049 C.ar      1 <0>         0.1038
     17 N3          2.8789   -0.2768   -5.5757 N.pl3     1 <0>        -0.5932
     18 H1          3.7722   -0.4418   -5.2356 H         1 <0>         0.4168
     19 O1          0.7369    0.5623  -10.5684 O.3       1 <0>        -0.4967
     20 C15         3.3555   -2.3402   -2.8244 C.ar      1 <0>         0.5168
     21 N4          3.8460   -3.0492   -1.8121 N.ar      1 <0>        -0.6021
     22 C16         3.4845   -2.7997   -0.5663 C.ar      1 <0>         0.3889
     23 N5          2.6311   -1.8502   -0.2510 N.ar      1 <0>        -0.5714
     24 N6          3.7369   -2.6060   -4.1255 N.pl3     1 <0>        -0.8317
     25 H2          2.0076    2.1050    0.1866 H         1 <0>         0.0602
     26 H3          0.5693    2.5263   -0.7736 H         1 <0>         0.0709
     27 H4          0.4564    2.4224    0.9997 H         1 <0>         0.0802
     28 H5          0.9205   -0.0108    0.8868 H         1 <0>         0.1134
     29 H6         -1.3108    0.8949   -0.9888 H         1 <0>         0.0712
     30 H7         -1.2119   -0.6886   -0.1820 H         1 <0>         0.0610
     31 H8         -1.4237    0.7911    0.7845 H         1 <0>         0.0801
     32 H9         -0.3538    0.1719   -5.2829 H         1 <0>         0.1573
     33 H10        -0.5081    0.5089   -8.2728 H         1 <0>         0.1338
     34 H11         3.2906    0.1399  -10.1910 H         1 <0>         0.1358
     35 H12         4.3776   -0.2505   -8.0283 H         1 <0>         0.1290
     36 H13         0.6969    1.4933  -10.8268 H         1 <0>         0.3892
     37 H14         3.9074   -3.3999    0.2258 H         1 <0>         0.2077
     38 H15         3.2729   -2.1806   -4.8634 H         1 <0>         0.4091
     39 H16         4.4688   -3.2179   -4.3009 H         1 <0>         0.4134
@<TRIPOS>BOND
     1    1    2 1
     2    1   25 1
     3    1   26 1
     4    1   27 1
     5    2    3 1
     6    2    4 1
     7    2   28 1
     8    3   29 1
     9    3   30 1
    10    3   31 1
    11    4    8 1
    12    4    5 1
    13    5   23 ar
    14    5    6 ar
    15    6    7 1
    16    6   20 ar
    17    7    8 2
    18    7    9 1
    19    9   17 1
    20    9   10 2
    21   10   11 1
    22   10   32 1
    23   11   16 ar
    24   11   12 ar
    25   12   13 ar
    26   12   33 1
    27   13   14 ar
    28   13   19 1
    29   14   15 ar
    30   14   34 1
    31   15   16 ar
    32   15   35 1
    33   16   17 1
    34   17   18 1
    35   19   36 1
    36   20   21 ar
    37   20   24 1
    38   21   22 ar
    39   22   23 ar
    40   22   37 1
    41   24   38 1
    42   24   39 1
@<TRIPOS>MOLECULE
ZINC36056301
   40    43     0     0     0
SMALL
NO_CHARGES

@<TRIPOS>ATOM
      1 C1          0.4668   -0.4939    1.1218 C.3       1 <0>        -0.1699
      2 C2          0.3340   -1.7615    0.2754 C.3       1 <0>         0.1613
      3 C3          1.1061   -2.9024    0.9410 C.3       1 <0>        -0.1701
      4 N1         -1.0799   -2.1284    0.1641 N.pl3     1 <0>        -0.3634
      5 C4         -1.7908   -2.2350   -1.0057 C.ar      1 <0>         0.4043
      6 C5         -3.1109   -2.6092   -0.6652 C.ar      1 <0>        -0.2157
      7 C6         -4.0447   -2.7836   -1.7054 C.ar      1 <0>         0.3985
      8 N2         -3.6387   -2.5876   -2.9589 N.ar      1 <0>        -0.5485
      9 C7         -2.3961   -2.2391   -3.2258 C.ar      1 <0>         0.3110
     10 N3         -1.4867   -2.0641   -2.2858 N.ar      1 <0>        -0.5580
     11 N4         -5.3440   -3.1479   -1.4334 N.pl3     1 <0>        -0.8571
     12 C8         -3.1685   -2.7231    0.7407 C.2       1 <0>         0.1060
     13 C9         -4.3454   -3.0906    1.5281 C.2       1 <0>         0.1145
     14 C10        -4.5167   -2.8192    2.8889 C.2       1 <0>        -0.1932
     15 C11        -5.7650   -3.3339    3.2429 C.ar      1 <0>        -0.0803
     16 C12        -6.5191   -3.3917    4.4278 C.ar      1 <0>        -0.1106
     17 C13        -7.7442   -3.9909    4.4147 C.ar      1 <0>         0.0839
     18 C14        -8.2689   -4.5512    3.2463 C.ar      1 <0>        -0.1283
     19 C15        -7.5862   -4.5260    2.0714 C.ar      1 <0>        -0.1066
     20 C16        -6.3164   -3.9222    2.0150 C.ar      1 <0>         0.0610
     21 N5         -5.4208   -3.7321    1.0501 N.pl3     1 <0>        -0.5313
     22 O1         -8.4709   -4.0448    5.5631 O.3       1 <0>        -0.5017
     23 N6         -1.9318   -2.4352    1.2329 N.pl3     1 <0>        -0.4440
     24 H1          1.5188   -0.2209    1.2046 H         1 <0>         0.0835
     25 H2         -0.0832    0.3190    0.6476 H         1 <0>         0.0676
     26 H3          0.0595   -0.6766    2.1162 H         1 <0>         0.0606
     27 H4          0.7413   -1.5787   -0.7190 H         1 <0>         0.1243
     28 H5          1.0115   -3.8055    0.3380 H         1 <0>         0.0673
     29 H6          2.1581   -2.6294    1.0238 H         1 <0>         0.0835
     30 H7          0.6988   -3.0851    1.9354 H         1 <0>         0.0606
     31 H8         -2.1102   -2.0906   -4.2566 H         1 <0>         0.1998
     32 H9         -5.8197   -2.7336   -0.6966 H         1 <0>         0.4069
     33 H10        -5.7838   -3.8189   -1.9786 H         1 <0>         0.4071
     34 H11        -3.8197   -2.3112    3.5389 H         1 <0>         0.1445
     35 H12        -6.1313   -2.9654    5.3413 H         1 <0>         0.1279
     36 H13        -9.2428   -5.0169    3.2782 H         1 <0>         0.1286
     37 H14        -8.0164   -4.9676    1.1847 H         1 <0>         0.1247
     38 H15        -9.0572   -3.2870    5.6936 H         1 <0>         0.3860
     39 H16        -1.6823   -2.4395    2.1702 H         1 <0>         0.4490
     40 H17        -5.5296   -4.0197    0.1301 H         1 <0>         0.4163
@<TRIPOS>BOND
     1    1    2 1
     2    1   24 1
     3    1   25 1
     4    1   26 1
     5    2    3 1
     6    2    4 1
     7    2   27 1
     8    3   28 1
     9    3   29 1
    10    3   30 1
    11    4   23 1
    12    4    5 1
    13    5   10 ar
    14    5    6 ar
    15    6    7 ar
    16    6   12 1
    17    7    8 ar
    18    7   11 1
    19    8    9 ar
    20    9   10 ar
    21    9   31 1
    22   11   32 1
    23   11   33 1
    24   12   13 2
    25   12   23 1
    26   13   21 1
    27   13   14 1
    28   14   15 2
    29   14   34 1
    30   15   20 ar
    31   15   16 ar
    32   16   17 ar
    33   16   35 1
    34   17   18 ar
    35   17   22 1
    36   18   19 ar
    37   18   36 1
    38   19   20 ar
    39   19   37 1
    40   20   21 2
    41   21   40 1
    42   22   38 1
    43   23   39 1
@<TRIPOS>MOLECULE
ZINC43465534
   35    37     0     0     0
SMALL
USER_CHARGES

@<TRIPOS>ATOM
      1 C1          0.4068    0.7074    0.7781 C.3       1 <0>        -0.1627
      2 C2          0.2063   -0.7277    0.2871 C.3       1 <0>         0.1599
      3 C3          0.8804   -1.6981    1.2590 C.3       1 <0>        -0.1628
      4 N1         -1.2267   -1.0239    0.2164 N.pl3     1 <0>        -0.3665
      5 C4         -1.9011   -1.3879   -0.9114 C.ar      1 <0>         0.3770
      6 C5         -3.2456   -1.5763   -0.5412 C.ar      1 <0>        -0.3202
      7 C6         -3.3233   -1.2974    0.8930 C.2       1 <0>         0.1500
      8 N2         -2.1144   -0.9832    1.2968 N.2       1 <0>        -0.2166
      9 C7         -4.5400   -1.3639    1.7350 C.ar      1 <0>         0.0405
     10 C8         -5.4108   -2.4492    1.6175 C.ar      1 <0>        -0.1236
     11 C9         -6.5343   -2.5157    2.3909 C.ar      1 <0>        -0.0350
     12 C10        -6.8185   -1.4966    3.3050 C.ar      1 <0>        -0.0471
     13 C11        -5.9488   -0.4059    3.4275 C.ar      1 <0>         0.1574
     14 C12        -4.8115   -0.3452    2.6483 C.ar      1 <0>        -0.1216
     15 F1         -6.2198    0.5812    4.3092 F         1 <0>        -0.1185
     16 C13        -7.9977   -1.5677    4.1144 C.1       1 <0>         0.2436
     17 N3         -8.9331   -1.6242    4.7564 N.1       1 <0>        -0.3868
     18 C14        -4.1666   -1.9604   -1.5294 C.ar      1 <0>         0.5185
     19 N4         -3.7251   -2.1289   -2.7722 N.ar      1 <0>        -0.6017
     20 C15        -2.4531   -1.9410   -3.0755 C.ar      1 <0>         0.3888
     21 N5         -1.5559   -1.5814   -2.1840 N.ar      1 <0>        -0.5722
     22 N6         -5.4979   -2.1588   -1.2179 N.pl3     1 <0>        -0.8291
     23 H1          1.4730    0.9278    0.8306 H         1 <0>         0.0799
     24 H2         -0.0734    1.3988    0.0856 H         1 <0>         0.0609
     25 H3         -0.0363    0.8181    1.7678 H         1 <0>         0.0705
     26 H4          0.6494   -0.8384   -0.7026 H         1 <0>         0.1133
     27 H5          0.4373   -1.5875    2.2488 H         1 <0>         0.0706
     28 H6          0.7375   -2.7206    0.9093 H         1 <0>         0.0608
     29 H7          1.9466   -1.4777    1.3116 H         1 <0>         0.0797
     30 H8         -5.1952   -3.2384    0.9125 H         1 <0>         0.1508
     31 H9         -7.2048   -3.3571    2.2960 H         1 <0>         0.1545
     32 H10        -4.1355    0.4918    2.7420 H         1 <0>         0.1555
     33 H11        -2.1372   -2.0892   -4.0976 H         1 <0>         0.2066
     34 H12        -5.8568   -1.8178   -0.3838 H         1 <0>         0.4121
     35 H13        -6.0736   -2.6390   -1.8334 H         1 <0>         0.4130
@<TRIPOS>BOND
     1    1    2 1
     2    1   23 1
     3    1   24 1
     4    1   25 1
     5    2    3 1
     6    2    4 1
     7    2   26 1
     8    3   27 1
     9    3   28 1
    10    3   29 1
    11    4    8 1
    12    4    5 1
    13    5   21 ar
    14    5    6 ar
    15    6    7 1
    16    6   18 ar
    17    7    8 2
    18    7    9 1
    19    9   14 ar
    20    9   10 ar
    21   10   11 ar
    22   10   30 1
    23   11   12 ar
    24   11   31 1
    25   12   13 ar
    26   12   16 1
    27   13   14 ar
    28   13   15 1
    29   14   32 1
    30   16   17 3
    31   18   19 ar
    32   18   22 1
    33   19   20 ar
    34   20   21 ar
    35   20   33 1
    36   22   34 1
    37   22   35 1
@<TRIPOS>MOLECULE
ZINC64521265
   46    49     0     0     0
SMALL
USER_CHARGES

@<TRIPOS>ATOM
      1 C1          0.3476   -2.5642    0.7938 C.3       1 <0>        -0.1628
      2 C2         -0.3724   -2.4367   -0.5502 C.3       1 <0>         0.1606
      3 C3         -0.6891   -3.8315   -1.0934 C.3       1 <0>        -0.1622
      4 N1         -1.6190   -1.6892   -0.3674 N.pl3     1 <0>        -0.3682
      5 C4         -1.9328   -0.5173   -0.9891 C.ar      1 <0>         0.3758
      6 C5         -3.2117   -0.1436   -0.5353 C.ar      1 <0>        -0.3225
      7 C6         -3.6371   -1.1809    0.4040 C.2       1 <0>         0.1593
      8 N2         -2.6746   -2.0702    0.4677 N.2       1 <0>        -0.2224
      9 C7         -4.9218   -1.2229    1.1432 C.ar      1 <0>        -0.0245
     10 C8         -6.1183   -0.9455    0.4812 C.ar      1 <0>        -0.0801
     11 C9         -7.3162   -0.9844    1.1672 C.ar      1 <0>        -0.1161
     12 C10        -7.3388   -1.2973    2.5117 C.ar      1 <0>        -0.0731
     13 C11        -6.1481   -1.5766    3.1861 C.ar      1 <0>        -0.1285
     14 C12        -4.9368   -1.5447    2.4966 C.ar      1 <0>        -0.0211
     15 C13        -6.1728   -1.9106    4.6256 C.2       1 <0>         0.5570
     16 O1         -5.1357   -2.1534    5.2109 O.2       1 <0>        -0.4587
     17 N3         -7.3453   -1.9460    5.2893 N.am      1 <0>        -0.6240
     18 C14        -7.3683   -2.2582    6.6345 C.2       1 <0>         0.4093
     19 N4         -6.3504   -2.5344    7.3965 N.2       1 <0>        -0.5323
     20 C15        -6.5264   -2.8706    8.7976 C.3       1 <0>         0.0491
     21 C16        -7.9176   -2.4104    9.3123 C.3       1 <0>        -0.0885
     22 S1         -8.8003   -2.3601    7.6961 S.3       1 <0>        -0.2223
     23 C17        -3.7785    1.0433   -1.0279 C.ar      1 <0>         0.5179
     24 N5         -3.0796    1.7609   -1.9021 N.ar      1 <0>        -0.6035
     25 C18        -1.8816    1.3723   -2.3010 C.ar      1 <0>         0.3866
     26 N6         -1.3117    0.2693   -1.8675 N.ar      1 <0>        -0.5726
     27 N7         -5.0310    1.4545   -0.6148 N.pl3     1 <0>        -0.8297
     28 H1          1.2751   -3.1204    0.6578 H         1 <0>         0.0793
     29 H2          0.5732   -1.5705    1.1808 H         1 <0>         0.0605
     30 H3         -0.2926   -3.0925    1.5003 H         1 <0>         0.0708
     31 H4          0.2678   -1.9084   -1.2566 H         1 <0>         0.1123
     32 H5         -1.2020   -3.7407   -2.0509 H         1 <0>         0.0601
     33 H6          0.2384   -4.3877   -1.2294 H         1 <0>         0.0792
     34 H7         -1.3293   -4.3598   -0.3870 H         1 <0>         0.0703
     35 H8         -6.1075   -0.6993   -0.5703 H         1 <0>         0.1397
     36 H9         -8.2394   -0.7687    0.6498 H         1 <0>         0.1436
     37 H10        -8.2787   -1.3258    3.0429 H         1 <0>         0.1334
     38 H11        -4.0135   -1.7645    3.0120 H         1 <0>         0.1460
     39 H12        -8.1730   -1.7523    4.8221 H         1 <0>         0.4258
     40 H13        -6.4387   -3.9501    8.9203 H         1 <0>         0.1010
     41 H14        -5.7483   -2.3813    9.3834 H         1 <0>         0.1095
     42 H15        -8.3569   -3.1421    9.9903 H         1 <0>         0.1289
     43 H16        -7.8696   -1.4222    9.7696 H         1 <0>         0.1075
     44 H17        -1.3485    1.9855   -3.0124 H         1 <0>         0.2059
     45 H18        -5.4326    1.0649    0.1775 H         1 <0>         0.4118
     46 H19        -5.5089    2.1329   -1.1171 H         1 <0>         0.4117
@<TRIPOS>BOND
     1    1    2 1
     2    1   28 1
     3    1   29 1
     4    1   30 1
     5    2    3 1
     6    2    4 1
     7    2   31 1
     8    3   32 1
     9    3   33 1
    10    3   34 1
    11    4    8 1
    12    4    5 1
    13    5   26 ar
    14    5    6 ar
    15    6    7 1
    16    6   23 ar
    17    7    8 2
    18    7    9 1
    19    9   14 ar
    20    9   10 ar
    21   10   11 ar
    22   10   35 1
    23   11   12 ar
    24   11   36 1
    25   12   13 ar
    26   12   37 1
    27   13   14 ar
    28   13   15 1
    29   14   38 1
    30   15   16 2
    31   15   17 am
    32   17   18 1
    33   17   39 1
    34   18   22 1
    35   18   19 2
    36   19   20 1
    37   20   21 1
    38   20   40 1
    39   20   41 1
    40   21   22 1
    41   21   42 1
    42   21   43 1
    43   23   24 ar
    44   23   27 1
    45   24   25 ar
    46   25   26 ar
    47   25   44 1
    48   27   45 1
    49   27   46 1
@<TRIPOS>MOLECULE
ZINC64527573
   36    39     0     0     0
SMALL
USER_CHARGES

@<TRIPOS>ATOM
      1 C1          0.5560    0.6936    4.3903 C.ar      1 <0>        -0.1507
      2 C2          0.8160   -0.6596    4.2756 C.ar      1 <0>        -0.0817
      3 C3          1.3536   -1.1643    3.1076 C.ar      1 <0>        -0.1942
      4 C4          1.6327   -0.3120    2.0487 C.ar      1 <0>         0.1196
      5 C5          1.3708    1.0455    2.1664 C.ar      1 <0>        -0.1444
      6 C6          0.8332    1.5451    3.3367 C.ar      1 <0>        -0.0822
      7 O1          2.1620   -0.8059    0.8988 O.3       1 <0>        -0.2595
      8 C7          2.3878   -2.1435    0.8235 C.ar      1 <0>         0.0997
      9 C8          1.3960   -2.9875    0.3413 C.ar      1 <0>        -0.1202
     10 C9          1.6219   -4.3455    0.2641 C.ar      1 <0>        -0.0945
     11 C10         2.8479   -4.8711    0.6704 C.ar      1 <0>        -0.0236
     12 C11         3.8419   -4.0209    1.1537 C.ar      1 <0>        -0.0689
     13 C12         3.6118   -2.6632    1.2236 C.ar      1 <0>        -0.1197
     14 C13         3.0939   -6.3306    0.5892 C.2       1 <0>         0.1709
     15 C14         2.7682   -7.2026   -0.5391 C.ar      1 <0>        -0.3245
     16 C15         2.1792   -7.0164   -1.8008 C.ar      1 <0>         0.5196
     17 N1          2.0363   -8.0744   -2.5928 N.ar      1 <0>        -0.6023
     18 C16         2.4365   -9.2736   -2.2082 C.ar      1 <0>         0.3904
     19 N2          2.9924   -9.4953   -1.0376 N.ar      1 <0>        -0.5742
     20 C17         3.1788   -8.4979   -0.1731 C.ar      1 <0>         0.3794
     21 N3          3.7095   -8.4061    1.0790 N.pl3     1 <0>        -0.4773
     22 H1          4.0757   -9.1462    1.5880 H         1 <0>         0.4497
     23 N4          3.6491   -7.0778    1.5139 N.2       1 <0>        -0.2278
     24 N5          1.7585   -5.7651   -2.2081 N.pl3     1 <0>        -0.8276
     25 H2          0.1314    1.0856    5.3027 H         1 <0>         0.1262
     26 H3          0.5989   -1.3224    5.1002 H         1 <0>         0.1267
     27 H4          1.5568   -2.2213    3.0187 H         1 <0>         0.1278
     28 H5          1.5872    1.7110    1.3437 H         1 <0>         0.1333
     29 H6          0.6289    2.6016    3.4286 H         1 <0>         0.1324
     30 H7          0.4467   -2.5798    0.0268 H         1 <0>         0.1419
     31 H8          0.8499   -5.0015   -0.1103 H         1 <0>         0.1408
     32 H9          4.7924   -4.4251    1.4695 H         1 <0>         0.1399
     33 H10         4.3827   -2.0037    1.5940 H         1 <0>         0.1410
     34 H11         2.3009  -10.1058   -2.8831 H         1 <0>         0.2077
     35 H12         2.0648   -4.9737   -1.7382 H         1 <0>         0.4136
     36 H13         1.1568   -5.6780   -2.9639 H         1 <0>         0.4125
@<TRIPOS>BOND
     1    1    6 ar
     2    1    2 ar
     3    1   25 1
     4    2    3 ar
     5    2   26 1
     6    3    4 ar
     7    3   27 1
     8    4    5 ar
     9    4    7 1
    10    5    6 ar
    11    5   28 1
    12    6   29 1
    13    7    8 1
    14    8   13 ar
    15    8    9 ar
    16    9   10 ar
    17    9   30 1
    18   10   11 ar
    19   10   31 1
    20   11   12 ar
    21   11   14 1
    22   12   13 ar
    23   12   32 1
    24   13   33 1
    25   14   23 2
    26   14   15 1
    27   15   20 ar
    28   15   16 ar
    29   16   17 ar
    30   16   24 1
    31   17   18 ar
    32   18   19 ar
    33   18   34 1
    34   19   20 ar
    35   20   21 1
    36   21   22 1
    37   21   23 1
    38   24   35 1
    39   24   36 1
@<TRIPOS>MOLECULE
ZINC36056300
   40    43     0     0     0
SMALL
USER_CHARGES

@<TRIPOS>ATOM
      1 C1          0.4126    0.6880    0.7885 C.3       1 <0>        -0.1627
      2 C2          0.2093   -0.7440    0.2895 C.3       1 <0>         0.1569
      3 C3          0.8826   -1.7211    1.2552 C.3       1 <0>        -0.1634
      4 N1         -1.2243   -1.0374    0.2184 N.pl3     1 <0>        -0.3592
      5 C4         -1.9000   -1.3937   -0.9107 C.ar      1 <0>         0.3794
      6 C5         -3.2446   -1.5828   -0.5400 C.ar      1 <0>        -0.3179
      7 C6         -3.3202   -1.3125    0.8956 C.2       1 <0>         0.1232
      8 N2         -2.1110   -1.0014    1.2998 N.2       1 <0>        -0.2051
      9 C7         -4.5366   -1.3827    1.7391 C.ar      1 <0>         0.1178
     10 C8         -5.4061   -2.4812    1.6050 C.ar      1 <0>        -0.1519
     11 C9         -6.5306   -2.5915    2.3528 C.ar      1 <0>         0.0142
     12 C10        -6.8501   -1.5908    3.2916 C.ar      1 <0>        -0.2346
     13 C11        -5.9500   -0.4370    3.4429 C.ar      1 <0>         0.2401
     14 C12        -4.7906   -0.3737    2.6433 C.ar      1 <0>        -0.1296
     15 N3         -6.4749    0.3393    4.3746 N.pl3     1 <0>        -0.4206
     16 H1         -8.2337    0.1398    5.5248 H         1 <0>         0.4708
     17 N4         -7.6615   -0.2385    4.8390 N.pl3     1 <0>        -0.4328
     18 C13        -7.8916   -1.3947    4.1942 C.2       1 <0>         0.5311
     19 N5         -8.9722   -2.2404    4.3922 N.pl3     1 <0>        -0.7811
     20 C14        -4.1671   -1.9596   -1.5297 C.ar      1 <0>         0.5166
     21 N6         -3.7272   -2.1207   -2.7740 N.ar      1 <0>        -0.5953
     22 C15        -2.4554   -1.9324   -3.0777 C.ar      1 <0>         0.3950
     23 N7         -1.5565   -1.5799   -2.1849 N.ar      1 <0>        -0.5665
     24 N8         -5.4983   -2.1583   -1.2179 N.pl3     1 <0>        -0.8311
     25 H2          1.4792    0.9063    0.8414 H         1 <0>         0.0837
     26 H3         -0.0671    1.3841    0.1005 H         1 <0>         0.0618
     27 H4         -0.0295    0.7936    1.7793 H         1 <0>         0.0688
     28 H5          0.6513   -0.8497   -0.7013 H         1 <0>         0.1176
     29 H6          0.7377   -2.7413    0.8997 H         1 <0>         0.0624
     30 H7          1.9492   -1.5028    1.3081 H         1 <0>         0.0836
     31 H8          0.4405   -1.6155    2.2459 H         1 <0>         0.0694
     32 H9         -5.1717   -3.2546    0.8885 H         1 <0>         0.1568
     33 H10        -7.1810   -3.4447    2.2292 H         1 <0>         0.1566
     34 H11        -4.1097    0.4595    2.7357 H         1 <0>         0.1611
     35 H12        -9.0501   -3.0570    3.8746 H         1 <0>         0.4467
     36 H13        -9.6503   -2.0154    5.0483 H         1 <0>         0.4297
     37 H14        -2.1408   -2.0745   -4.1010 H         1 <0>         0.2111
     38 H15        -5.8569   -1.8183   -0.3832 H         1 <0>         0.4073
     39 H16        -6.0742   -2.6377   -1.8338 H         1 <0>         0.4151
     40 H17        -6.0974    1.1764    4.6871 H         1 <0>         0.4749
@<TRIPOS>BOND
     1    1    2 1
     2    1   25 1
     3    1   26 1
     4    1   27 1
     5    2    3 1
     6    2    4 1
     7    2   28 1
     8    3   29 1
     9    3   30 1
    10    3   31 1
    11    4    8 1
    12    4    5 1
    13    5   23 ar
    14    5    6 ar
    15    6    7 1
    16    6   20 ar
    17    7    8 2
    18    7    9 1
    19    9   14 ar
    20    9   10 ar
    21   10   11 ar
    22   10   32 1
    23   11   12 ar
    24   11   33 1
    25   12   13 ar
    26   12   18 2
    27   13   14 ar
    28   13   15 2
    29   14   34 1
    30   15   17 1
    31   15   40 1
    32   16   17 1
    33   17   18 1
    34   18   19 1
    35   19   35 1
    36   19   36 1
    37   20   21 ar
    38   20   24 1
    39   21   22 ar
    40   22   23 ar
    41   22   37 1
    42   24   38 1
    43   24   39 1
@<TRIPOS>MOLECULE
ZINC36056300
   39    42     0     0     0
SMALL
USER_CHARGES

@<TRIPOS>ATOM
      1 C1          0.4081    0.7032    0.7800 C.3       1 <0>        -0.1618
      2 C2          0.2069   -0.7312    0.2873 C.3       1 <0>         0.1609
      3 C3          0.8807   -1.7032    1.2580 C.3       1 <0>        -0.1621
      4 N1         -1.2263   -1.0267    0.2166 N.pl3     1 <0>        -0.3701
      5 C4         -1.9009   -1.3889   -0.9113 C.ar      1 <0>         0.3750
      6 C5         -3.2455   -1.5776   -0.5407 C.ar      1 <0>        -0.3215
      7 C6         -3.3224   -1.3007    0.8936 C.2       1 <0>         0.1630
      8 N2         -2.1138   -0.9869    1.2972 N.2       1 <0>        -0.2264
      9 C7         -4.5394   -1.3682    1.7366 C.ar      1 <0>         0.0337
     10 C8         -5.4112   -2.4583    1.6155 C.ar      1 <0>        -0.1607
     11 C9         -6.5335   -2.5344    2.3833 C.ar      1 <0>        -0.0251
     12 C10        -6.8222   -1.5187    3.3018 C.ar      1 <0>        -0.1880
     13 C11        -5.9521   -0.4186    3.4315 C.ar      1 <0>         0.1561
     14 C12        -4.8063   -0.3538    2.6457 C.ar      1 <0>        -0.1126
     15 N3         -6.4874    0.3998    4.3930 N.pl3     1 <0>        -0.5024
     16 N4         -7.6751   -0.1655    4.8679 N.2       1 <0>        -0.3148
     17 C13        -7.9109   -1.2946    4.2539 C.2       1 <0>         0.3617
     18 N5         -9.0056   -2.1367    4.4680 N.pl3     1 <0>        -0.8327
     19 C14        -4.1668   -1.9602   -1.5291 C.ar      1 <0>         0.5189
     20 N6         -3.7258   -2.1271   -2.7723 N.ar      1 <0>        -0.6051
     21 C15        -2.4540   -1.9390   -3.0760 C.ar      1 <0>         0.3863
     22 N7         -1.5563   -1.5804   -2.1845 N.ar      1 <0>        -0.5746
     23 N8         -5.4980   -2.1588   -1.2175 N.pl3     1 <0>        -0.8276
     24 H1          1.4744    0.9231    0.8327 H         1 <0>         0.0786
     25 H2         -0.0719    1.3956    0.0885 H         1 <0>         0.0601
     26 H3         -0.0347    0.8128    1.7700 H         1 <0>         0.0697
     27 H4          0.6497   -0.8409   -0.7026 H         1 <0>         0.1118
     28 H5          0.4378   -1.5935    2.2479 H         1 <0>         0.0700
     29 H6          0.7373   -2.7251    0.9069 H         1 <0>         0.0603
     30 H7          1.9470   -1.4833    1.3106 H         1 <0>         0.0785
     31 H8         -5.1917   -3.2441    0.9078 H         1 <0>         0.1359
     32 H9         -7.2005   -3.3779    2.2831 H         1 <0>         0.1334
     33 H10        -4.1302    0.4831    2.7395 H         1 <0>         0.1348
     34 H11        -9.0923   -2.9581    3.9594 H         1 <0>         0.4132
     35 H12        -9.6785   -1.8997    5.1251 H         1 <0>         0.4096
     36 H13        -2.1385   -2.0855   -4.0984 H         1 <0>         0.2050
     37 H14        -5.8568   -1.8182   -0.3831 H         1 <0>         0.4149
     38 H15        -6.0739   -2.6388   -1.8330 H         1 <0>         0.4105
     39 H16        -6.1031    1.2373    4.6959 H         1 <0>         0.4433
@<TRIPOS>BOND
     1    1    2 1
     2    1   24 1
     3    1   25 1
     4    1   26 1
     5    2    3 1
     6    2    4 1
     7    2   27 1
     8    3   28 1
     9    3   29 1
    10    3   30 1
    11    4    8 1
    12    4    5 1
    13    5   22 ar
    14    5    6 ar
    15    6    7 1
    16    6   19 ar
    17    7    8 2
    18    7    9 1
    19    9   14 ar
    20    9   10 ar
    21   10   11 ar
    22   10   31 1
    23   11   12 ar
    24   11   32 1
    25   12   13 ar
    26   12   17 1
    27   13   14 ar
    28   13   15 1
    29   14   33 1
    30   15   16 1
    31   15   39 1
    32   16   17 2
    33   17   18 1
    34   18   34 1
    35   18   35 1
    36   19   20 ar
    37   19   23 1
    38   20   21 ar
    39   21   22 ar
    40   21   36 1
    41   23   37 1
    42   23   38 1
@<TRIPOS>MOLECULE
ZINC64539506
   73    79     0     0     0
SMALL
USER_CHARGES

@<TRIPOS>ATOM
      1 C1         -0.8034    1.1981   -2.0475 C.3       1 <0>        -0.1373
      2 C2         -0.9132   -0.3251   -1.9533 C.3       1 <0>        -0.1439
      3 C3         -1.8869   -0.6921   -0.8632 C.2       1 <0>         0.5116
      4 O1         -2.4388    0.1788   -0.2246 O.2       1 <0>        -0.5400
      5 N1         -2.1445   -1.9882   -0.5981 N.am      1 <0>        -0.6057
      6 C4         -1.4786   -3.0541   -1.3597 C.3       1 <0>         0.0914
      7 C5         -0.7731   -3.9935   -0.3738 C.3       1 <0>         0.1227
      8 N2         -1.7246   -4.3662    0.6825 N.pl3     1 <0>        -0.6412
      9 C6         -2.3905   -3.3002    1.4441 C.3       1 <0>         0.0982
     10 C7         -3.0917   -2.3609    0.4620 C.3       1 <0>         0.0636
     11 C8         -1.9917   -5.7105    0.9575 C.ar      1 <0>         0.2762
     12 C9         -0.9536   -6.5704    1.2942 C.ar      1 <0>        -0.1610
     13 C10        -1.2176   -7.8974    1.5661 C.ar      1 <0>        -0.0493
     14 C11        -2.5211   -8.3734    1.5033 C.ar      1 <0>         0.0715
     15 C12        -3.5587   -7.5142    1.1664 C.ar      1 <0>        -0.0251
     16 C13        -3.2958   -6.1854    0.8999 C.ar      1 <0>        -0.2300
     17 C14        -4.4227   -5.2515    0.5409 C.3       1 <0>         0.5187
     18 F1         -5.5990   -5.9873    0.3618 F         1 <0>        -0.1736
     19 F2         -4.6056   -4.3235    1.5717 F         1 <0>        -0.1666
     20 F3         -4.1097   -4.5767   -0.6439 F         1 <0>        -0.1590
     21 N3         -2.7889   -9.7207    1.7794 N.am      1 <0>        -0.4580
     22 C15        -3.0107  -10.5803    0.7663 C.2       1 <0>         0.5296
     23 O2         -2.9762  -10.1764   -0.3836 O.2       1 <0>        -0.5112
     24 C16        -3.2818  -11.9407    1.0174 C.2       1 <0>        -0.2197
     25 C17        -3.3235  -12.4049    2.2923 C.2       1 <0>         0.0019
     26 C18        -3.0911  -11.5032    3.3608 C.ar      1 <0>        -0.1955
     27 C19        -2.8179  -10.1560    3.0758 C.ar      1 <0>         0.2428
     28 C20        -2.5848   -9.2810    4.1622 C.ar      1 <0>        -0.1182
     29 C21        -2.3121   -7.9243    3.9592 C.ar      1 <0>        -0.1236
     30 C22        -2.0902   -7.1022    5.0517 C.ar      1 <0>        -0.0374
     31 C23        -2.1382   -7.6250    6.3522 C.ar      1 <0>        -0.0785
     32 C24        -2.4020   -8.9415    6.5657 C.ar      1 <0>        -0.0891
     33 C25        -2.6316   -9.8018    5.4788 C.ar      1 <0>         0.1627
     34 N4         -2.8928  -11.1013    5.6841 N.ar      1 <0>        -0.4901
     35 C26        -3.1232  -11.9324    4.7010 C.ar      1 <0>         0.2010
     36 C27        -1.7999   -5.6625    4.8453 C.ar      1 <0>        -0.1016
     37 C28        -1.5923   -4.8284    5.9343 C.ar      1 <0>        -0.0453
     38 C29        -1.3208   -3.4723    5.6840 C.ar      1 <0>        -0.0944
     39 C30        -1.0992   -2.5671    6.7358 C.ar      1 <0>        -0.0959
     40 C31        -0.8385   -1.2607    6.4555 C.ar      1 <0>        -0.1116
     41 C32        -0.7888   -0.8087    5.1382 C.ar      1 <0>        -0.0939
     42 C33        -0.9990   -1.6577    4.0955 C.ar      1 <0>        -0.0952
     43 C34        -1.2702   -3.0147    4.3431 C.ar      1 <0>         0.1182
     44 N5         -1.4790   -3.8675    3.3344 N.ar      1 <0>        -0.4443
     45 C35        -1.7275   -5.1349    3.5462 C.ar      1 <0>         0.0932
     46 H1         -0.0991    1.4635   -2.8359 H         1 <0>         0.0611
     47 H2         -1.7820    1.6193   -2.2775 H         1 <0>         0.0612
     48 H3         -0.4509    1.5965   -1.0961 H         1 <0>         0.0611
     49 H4         -1.2657   -0.7235   -2.9046 H         1 <0>         0.0917
     50 H5          0.0655   -0.7463   -1.7232 H         1 <0>         0.0919
     51 H6         -2.2196   -3.6131   -1.9312 H         1 <0>         0.0768
     52 H7         -0.7449   -2.6165   -2.0367 H         1 <0>         0.0956
     53 H8         -0.4386   -4.8891   -0.8974 H         1 <0>         0.0876
     54 H9          0.0831   -3.4839    0.0682 H         1 <0>         0.0691
     55 H10        -3.1241   -3.7379    2.1211 H         1 <0>         0.1097
     56 H11        -1.6495   -2.7412    2.0156 H         1 <0>         0.1163
     57 H12        -3.4232   -1.4654    0.9877 H         1 <0>         0.0941
     58 H13        -3.9503   -2.8693    0.0232 H         1 <0>         0.0751
     59 H14         0.0599   -6.2005    1.3427 H         1 <0>         0.1551
     60 H15        -0.4106   -8.5659    1.8275 H         1 <0>         0.1467
     61 H16        -4.5721   -7.8845    1.1173 H         1 <0>         0.1487
     62 H17        -3.4573  -12.6157    0.1928 H         1 <0>         0.1630
     63 H18        -3.5312  -13.4462    2.4896 H         1 <0>         0.1550
     64 H19        -2.2745   -7.5207    2.9581 H         1 <0>         0.1643
     65 H20        -1.9630   -6.9732    7.1952 H         1 <0>         0.1371
     66 H21        -2.4352   -9.3272    7.5739 H         1 <0>         0.1467
     67 H22        -3.3290  -12.9695    4.9208 H         1 <0>         0.1769
     68 H23        -1.6383   -5.2094    6.9438 H         1 <0>         0.1431
     69 H24        -1.1358   -2.9058    7.7606 H         1 <0>         0.1315
     70 H25        -0.6683   -0.5656    7.2644 H         1 <0>         0.1300
     71 H26        -0.5805    0.2326    4.9415 H         1 <0>         0.1318
     72 H27        -0.9575   -1.2900    3.0808 H         1 <0>         0.1353
     73 H28        -1.8855   -5.7895    2.7018 H         1 <0>         0.1764
@<TRIPOS>BOND
     1    1    2 1
     2    1   46 1
     3    1   47 1
     4    1   48 1
     5    2    3 1
     6    2   49 1
     7    2   50 1
     8    3    4 2
     9    3    5 am
    10    5   10 1
    11    5    6 1
    12    6    7 1
    13    6   51 1
    14    6   52 1
    15    7    8 1
    16    7   53 1
    17    7   54 1
    18    8    9 1
    19    8   11 1
    20    9   10 1
    21    9   55 1
    22    9   56 1
    23   10   57 1
    24   10   58 1
    25   11   16 ar
    26   11   12 ar
    27   12   13 ar
    28   12   59 1
    29   13   14 ar
    30   13   60 1
    31   14   15 ar
    32   14   21 1
    33   15   16 ar
    34   15   61 1
    35   16   17 1
    36   17   18 1
    37   17   19 1
    38   17   20 1
    39   21   27 1
    40   21   22 am
    41   22   23 2
    42   22   24 1
    43   24   25 2
    44   24   62 1
    45   25   26 1
    46   25   63 1
    47   26   35 ar
    48   26   27 ar
    49   27   28 ar
    50   28   33 ar
    51   28   29 ar
    52   29   30 ar
    53   29   64 1
    54   30   31 ar
    55   30   36 1
    56   31   32 ar
    57   31   65 1
    58   32   33 ar
    59   32   66 1
    60   33   34 ar
    61   34   35 ar
    62   35   67 1
    63   36   45 ar
    64   36   37 ar
    65   37   38 ar
    66   37   68 1
    67   38   43 ar
    68   38   39 ar
    69   39   40 ar
    70   39   69 1
    71   40   41 ar
    72   40   70 1
    73   41   42 ar
    74   41   71 1
    75   42   43 ar
    76   42   72 1
    77   43   44 ar
    78   44   45 ar
    79   45   73 1
@<TRIPOS>MOLECULE
ZINC64744203
   44    47     0     0     0
SMALL
USER_CHARGES

@<TRIPOS>ATOM
      1 C1         -0.0055    1.4955    0.4053 C.3       1 <0>        -0.1666
      2 C2          0.0135   -0.0104    0.3513 C.2       1 <0>         0.5025
      3 O1          1.0712   -0.6032    0.3340 O.2       1 <0>        -0.4720
      4 N1         -1.1451   -0.6983    0.3221 N.am      1 <0>        -0.6203
      5 C3         -1.1277   -2.0825    0.2725 C.2       1 <0>         0.3552
      6 N2         -0.0949   -2.8927    0.2531 N.2       1 <0>        -0.4984
      7 C4         -0.2257   -4.2354    0.2035 C.ar      1 <0>         0.0890
      8 C5          0.7997   -5.2108    0.1777 C.ar      1 <0>        -0.0571
      9 C6          0.5046   -6.5350    0.1263 C.ar      1 <0>        -0.0952
     10 C7         -0.8178   -6.9885    0.0974 C.ar      1 <0>         0.0025
     11 C8         -1.8543   -6.0561    0.1220 C.ar      1 <0>        -0.0583
     12 C9         -1.5546   -4.7198    0.1734 C.ar      1 <0>        -0.1363
     13 S1         -2.5055   -3.2199    0.2263 S.3       1 <0>        -0.0053
     14 C10        -1.1138   -8.4409    0.0408 C.ar      1 <0>        -0.0495
     15 C11        -0.0755   -9.3759    0.0214 C.ar      1 <0>        -0.2045
     16 C12        -0.4055  -10.7247   -0.0319 C.ar      1 <0>         0.2566
     17 C13        -1.7471  -11.0932   -0.0639 C.ar      1 <0>         0.1229
     18 N3         -2.7004  -10.1820   -0.0446 N.ar      1 <0>        -0.4446
     19 C14        -2.4313   -8.8932    0.0120 C.ar      1 <0>         0.0216
     20 Cl1        -2.1716  -12.7752   -0.1306 Cl        1 <0>        -0.0448
     21 N4          0.5971  -11.6987   -0.0537 N.2       1 <0>        -1.0618
     22 S2          2.1861  -11.2488   -0.1759 S.o2      1 <0>         2.6037
     23 O2          2.3229  -10.5748   -1.4194 O.2       1 <0>        -1.0221
     24 O3          2.5327  -10.6422    1.0615 O.2       1 <0>        -1.0212
     25 C15         3.1382  -12.7265   -0.2965 C.ar      1 <0>        -0.6279
     26 C16         3.6074  -13.3412    0.8493 C.ar      1 <0>         0.0065
     27 C17         4.3539  -14.5005    0.7560 C.ar      1 <0>        -0.1789
     28 C18         4.6317  -15.0463   -0.4859 C.ar      1 <0>         0.1347
     29 C19         4.1612  -14.4296   -1.6328 C.ar      1 <0>        -0.1789
     30 C20         3.4105  -13.2733   -1.5367 C.ar      1 <0>         0.0067
     31 F1          5.3617  -16.1793   -0.5784 F         1 <0>        -0.1387
     32 H1          1.0175    1.8714    0.4227 H         1 <0>         0.1008
     33 H2         -0.5205    1.8842   -0.4733 H         1 <0>         0.0946
     34 H3         -0.5273    1.8203    1.3055 H         1 <0>         0.0946
     35 H4         -1.9912   -0.2241    0.3359 H         1 <0>         0.4279
     36 H5          1.8329   -4.8968    0.1988 H         1 <0>         0.1353
     37 H6          1.3097   -7.2546    0.1070 H         1 <0>         0.1393
     38 H7         -2.8832   -6.3837    0.1001 H         1 <0>         0.1410
     39 H8          0.9565   -9.0585    0.0469 H         1 <0>         0.1226
     40 H9         -3.2413   -8.1791    0.0311 H         1 <0>         0.1487
     41 H10         3.3909  -12.9152    1.8178 H         1 <0>         0.1477
     42 H11         4.7207  -14.9804    1.6512 H         1 <0>         0.1402
     43 H12         4.3776  -14.8542   -2.6020 H         1 <0>         0.1402
     44 H13         3.0396  -12.7946   -2.4309 H         1 <0>         0.1477
@<TRIPOS>BOND
     1    1    2 1
     2    1   32 1
     3    1   33 1
     4    1   34 1
     5    2    3 2
     6    2    4 am
     7    4    5 1
     8    4   35 1
     9    5   13 1
    10    5    6 2
    11    6    7 1
    12    7   12 ar
    13    7    8 ar
    14    8    9 ar
    15    8   36 1
    16    9   10 ar
    17    9   37 1
    18   10   11 ar
    19   10   14 1
    20   11   12 ar
    21   11   38 1
    22   12   13 1
    23   14   19 ar
    24   14   15 ar
    25   15   16 ar
    26   15   39 1
    27   16   17 ar
    28   16   21 1
    29   17   18 ar
    30   17   20 1
    31   18   19 ar
    32   19   40 1
    33   21   22 1
    34   22   23 2
    35   22   24 2
    36   22   25 1
    37   25   30 ar
    38   25   26 ar
    39   26   27 ar
    40   26   41 1
    41   27   28 ar
    42   27   42 1
    43   28   29 ar
    44   28   31 1
    45   29   30 ar
    46   29   43 1
    47   30   44 1
@<TRIPOS>MOLECULE
ZINC04262465
   55    59     0     0     0
SMALL
USER_CHARGES

@<TRIPOS>ATOM
      1 C1          0.2203    1.6706    0.2500 C.3       1 <0>        -0.1382
      2 C2          0.2615    0.1527    0.1638 C.3       1 <0>        -0.1192
      3 C3         -1.0988   -0.5299    0.0838 C.3       1 <0>        -0.0893
      4 C4         -1.9304    0.0144    1.2637 C.3       1 <0>        -0.0575
      5 H1         -2.4151    0.9114    0.9694 H         1 <0>         0.1261
      6 C5         -1.1707    0.2255    2.5732 C.2       1 <0>        -0.0550
      7 C6          0.1894   -0.0352    2.5682 C.2       1 <0>        -0.1019
      8 C7          0.9838   -0.5418    1.4198 C.3       1 <0>        -0.0220
      9 C8          2.3679   -0.0580    1.2975 C.3       1 <0>        -0.0878
     10 C9          2.6485   -0.2970   -0.2262 C.3       1 <0>        -0.1869
     11 C10         1.2607   -0.2678   -0.9532 C.2       1 <0>         0.3750
     12 O1          1.0384   -0.5903   -2.0787 O.2       1 <0>        -0.4174
     13 C11         1.0246    0.2256    3.8691 C.2       1 <0>         0.4445
     14 O2          2.2449    0.0995    3.8039 O.2       1 <0>        -0.4145
     15 C12         0.3248    0.6421    5.0425 C.2       1 <0>        -0.0475
     16 C13        -1.0230    0.8048    4.9808 C.2       1 <0>        -0.1175
     17 C14        -1.5092    1.0315    6.1906 C.2       1 <0>        -0.2371
     18 C15        -0.4652    1.0009    7.0766 C.2       1 <0>         0.0861
     19 O3          0.6578    0.8283    6.2891 O.3       1 <0>        -0.1207
     20 C16        -2.9438    1.2072    6.3982 C.2       1 <0>         0.5567
     21 O4         -3.5108    1.5739    7.4579 O.2       1 <0>        -0.4334
     22 O5         -3.7303    0.9246    5.2322 O.3       1 <0>        -0.3513
     23 C17        -3.2219    0.2198    4.1252 C.3       1 <0>         0.1285
     24 H2         -3.8962    0.3168    3.3232 H         1 <0>         0.1391
     25 C18        -1.9110    0.9005    3.6941 C.3       1 <0>         0.0115
     26 C19        -2.1565    2.3083    3.3040 C.3       1 <0>        -0.1476
     27 C20        -2.9644   -1.2491    4.5796 C.3       1 <0>         0.0213
     28 O6         -4.2092   -1.8740    4.8989 O.3       1 <0>        -0.3751
     29 C21        -4.0848   -3.2310    5.3292 C.3       1 <0>         0.0288
     30 C22        -2.9291   -1.0261    1.4838 C.2       1 <0>         0.4620
     31 O7         -2.5799   -2.1557    1.7326 O.2       1 <0>        -0.4876
     32 O8         -4.2359   -0.7285    1.4099 O.3       1 <0>        -0.3504
     33 C23        -5.1582   -1.7962    1.6365 C.3       1 <0>         0.0253
     34 H3          1.2374    2.0596    0.2972 H         1 <0>         0.0743
     35 H4         -0.2814    2.0711   -0.6309 H         1 <0>         0.0735
     36 H5         -0.3247    1.9690    1.1456 H         1 <0>         0.0714
     37 H6         -1.5996   -0.2108   -0.8290 H         1 <0>         0.0888
     38 H7         -1.0539   -1.5693    0.1048 H         1 <0>         0.0963
     39 H8          0.8566   -1.5540    1.3940 H         1 <0>         0.1073
     40 H9          2.5021    0.9494    1.5099 H         1 <0>         0.0821
     41 H10         3.0583   -0.6365    1.8453 H         1 <0>         0.0893
     42 H11         3.2468    0.4975   -0.6239 H         1 <0>         0.0966
     43 H12         3.1311   -1.2459   -0.3553 H         1 <0>         0.0983
     44 H13        -0.5091    1.1504    8.1977 H         1 <0>         0.2649
     45 H14        -2.7529    2.3339    2.3919 H         1 <0>         0.0878
     46 H15        -2.6935    2.8185    4.1036 H         1 <0>         0.0810
     47 H16        -1.2038    2.8083    3.1293 H         1 <0>         0.0799
     48 H17        -2.4781   -1.7988    3.7736 H         1 <0>         0.0825
     49 H18        -2.3212   -1.2498    5.4595 H         1 <0>         0.0560
     50 H19        -5.0729   -3.6335    5.5523 H         1 <0>         0.0930
     51 H20        -3.6218   -3.8218    4.5389 H         1 <0>         0.0464
     52 H21        -3.4648   -3.2728    6.2248 H         1 <0>         0.0416
     53 H22        -6.1776   -1.4207    1.5476 H         1 <0>         0.1061
     54 H23        -4.9943   -2.5808    0.8979 H         1 <0>         0.0621
     55 H24        -5.0062   -2.2014    2.6369 H         1 <0>         0.0742
@<TRIPOS>BOND
     1    1    2 1
     2    1   34 1
     3    1   35 1
     4    1   36 1
     5    2    8 1
     6    2   11 1
     7    2    3 1
     8    3    4 1
     9    3   37 1
    10    3   38 1
    11    4    5 1
    12    4    6 1
    13    4   30 1
    14    6   25 1
    15    6    7 2
    16    7    8 1
    17    7   13 1
    18    8    9 1
    19    8   39 1
    20    9   10 1
    21    9   40 1
    22    9   41 1
    23   10   11 1
    24   10   42 1
    25   10   43 1
    26   11   12 2
    27   13   14 2
    28   13   15 1
    29   15   19 1
    30   15   16 2
    31   16   25 1
    32   16   17 1
    33   17   18 2
    34   17   20 1
    35   18   19 1
    36   18   44 1
    37   20   21 2
    38   20   22 1
    39   22   23 1
    40   23   24 1
    41   23   25 1
    42   23   27 1
    43   25   26 1
    44   26   45 1
    45   26   46 1
    46   26   47 1
    47   27   28 1
    48   27   48 1
    49   27   49 1
    50   28   29 1
    51   29   50 1
    52   29   51 1
    53   29   52 1
    54   30   31 2
    55   30   32 1
    56   32   33 1
    57   33   53 1
    58   33   54 1
    59   33   55 1
@<TRIPOS>MOLECULE
ZINC00053303
   32    34     0     0     0
SMALL
USER_CHARGES

@<TRIPOS>ATOM
      1 C1          1.2967   -0.5961    3.3959 C.ar      1 <0>        -0.1447
      2 C2          2.4659    0.1480    3.3396 C.ar      1 <0>        -0.0615
      3 C3          3.2452    0.1473    2.2019 C.ar      1 <0>        -0.1356
      4 C4          2.8609   -0.6038    1.0986 C.ar      1 <0>         0.1551
      5 C5          1.6780   -1.3570    1.1550 C.ar      1 <0>        -0.1661
      6 C6          0.8981   -1.3477    2.3126 C.ar      1 <0>        -0.0503
      7 C7          1.2821   -2.1488   -0.0219 C.2       1 <0>         0.3004
      8 C8          2.0956   -2.1114   -1.1251 C.2       1 <0>        -0.2970
      9 C9          3.2606   -1.3342   -1.1020 C.2       1 <0>         0.5181
     10 O1          3.9753   -1.3093   -2.0891 O.2       1 <0>        -0.4716
     11 O2          3.6124   -0.6154   -0.0237 O.3       1 <0>        -0.2761
     12 N1          0.1304   -2.9041   -0.0145 N.pl3     1 <0>        -0.6551
     13 C10        -1.1854   -2.2616    0.1063 C.3       1 <0>         0.1341
     14 C11        -2.0713   -2.7306   -1.0522 C.3       1 <0>        -0.1372
     15 C12        -2.1177   -4.2602   -1.0668 C.3       1 <0>        -0.1184
     16 C13        -0.7071   -4.8130   -1.2830 C.3       1 <0>        -0.1396
     17 C14         0.1939   -4.3672   -0.1332 C.3       1 <0>         0.1347
     18 H1          0.6983   -0.5897    4.2950 H         1 <0>         0.1351
     19 H2          2.7686    0.7339    4.1948 H         1 <0>         0.1408
     20 H3          4.1535    0.7306    2.1687 H         1 <0>         0.1452
     21 H4         -0.0125   -1.9266    2.3587 H         1 <0>         0.1360
     22 H5          1.8394   -2.6789   -2.0075 H         1 <0>         0.1592
     23 H6         -1.6440   -2.5433    1.0541 H         1 <0>         0.0615
     24 H7         -1.0688   -1.1788    0.0619 H         1 <0>         0.0757
     25 H8         -3.0794   -2.3373   -0.9217 H         1 <0>         0.0755
     26 H9         -1.6588   -2.3701   -1.9946 H         1 <0>         0.0681
     27 H10        -2.5071   -4.6208   -0.1147 H         1 <0>         0.0640
     28 H11        -2.7672   -4.5961   -1.8752 H         1 <0>         0.0658
     29 H12        -0.7443   -5.9019   -1.3166 H         1 <0>         0.0750
     30 H13        -0.3075   -4.4330   -2.2232 H         1 <0>         0.0676
     31 H14         1.2203   -4.6732   -0.3355 H         1 <0>         0.0767
     32 H15        -0.1497   -4.8244    0.7947 H         1 <0>         0.0648
@<TRIPOS>BOND
     1    1    6 ar
     2    1    2 ar
     3    1   18 1
     4    2    3 ar
     5    2   19 1
     6    3    4 ar
     7    3   20 1
     8    4   11 1
     9    4    5 ar
    10    5    6 ar
    11    5    7 1
    12    6   21 1
    13    7    8 2
    14    7   12 1
    15    8    9 1
    16    8   22 1
    17    9   10 2
    18    9   11 1
    19   12   17 1
    20   12   13 1
    21   13   14 1
    22   13   23 1
    23   13   24 1
    24   14   15 1
    25   14   25 1
    26   14   26 1
    27   15   16 1
    28   15   27 1
    29   15   28 1
    30   16   17 1
    31   16   29 1
    32   16   30 1
    33   17   31 1
    34   17   32 1
@<TRIPOS>MOLECULE
ZINC71318831
   47    51     0     0     0
SMALL
USER_CHARGES

@<TRIPOS>ATOM
      1 C1          0.2267    1.2917    3.1105 C.ar      1 <0>        -0.1048
      2 C2          0.7883    2.0335    2.0872 C.ar      1 <0>        -0.0492
      3 C3          1.3809    1.3967    1.0124 C.ar      1 <0>        -0.1770
      4 C4          1.4134    0.0169    0.9574 C.ar      1 <0>        -0.0607
      5 C5          0.8504   -0.7308    1.9832 C.ar      1 <0>         0.1153
      6 C6          0.2562   -0.0880    3.0617 C.ar      1 <0>        -0.0726
      7 N1          0.8813   -2.1292    1.9303 N.am      1 <0>        -0.4650
      8 C7          1.9425   -2.7946    2.4261 C.2       1 <0>         0.5305
      9 O1          2.8677   -2.1707    2.9170 O.2       1 <0>        -0.5127
     10 C8          1.9975   -4.2027    2.3852 C.2       1 <0>        -0.2210
     11 C9          0.9748   -4.9109    1.8422 C.2       1 <0>         0.0033
     12 C10        -0.1435   -4.2143    1.3195 C.ar      1 <0>        -0.1948
     13 C11        -0.1693   -2.8122    1.3805 C.ar      1 <0>         0.2404
     14 C12        -1.3002   -2.1448    0.8557 C.ar      1 <0>        -0.1170
     15 C13        -1.3968   -0.7495    0.8750 C.ar      1 <0>        -0.1287
     16 C14        -2.5222   -0.1364    0.3498 C.ar      1 <0>        -0.0197
     17 C15        -3.5579   -0.9075   -0.1974 C.ar      1 <0>        -0.0774
     18 C16        -3.4791   -2.2645   -0.2231 C.ar      1 <0>        -0.0904
     19 C17        -2.3506   -2.9170    0.3011 C.ar      1 <0>         0.1577
     20 N2         -2.2672   -4.2555    0.2770 N.ar      1 <0>        -0.4883
     21 C18        -1.2302   -4.9002    0.7452 C.ar      1 <0>         0.1970
     22 C19        -2.6328    1.3425    0.3668 C.ar      1 <0>        -0.1697
     23 C20        -3.8678    1.9592    0.6001 C.ar      1 <0>        -0.0151
     24 C21        -3.9221    3.3386    0.6066 C.ar      1 <0>        -0.2349
     25 C22        -2.7560    4.0659    0.3826 C.ar      1 <0>         0.4102
     26 N3         -1.6034    3.4512    0.1646 N.ar      1 <0>        -0.5346
     27 C23        -1.5090    2.1365    0.1567 C.ar      1 <0>         0.1618
     28 N4         -2.8024    5.4544    0.3876 N.pl3     1 <0>        -0.8471
     29 C24         1.9916    2.2090   -0.1004 C.3       1 <0>         0.5102
     30 F1          1.8362    3.5713    0.1772 F         1 <0>        -0.1642
     31 F2          3.3535    1.9068   -0.2051 F         1 <0>        -0.1718
     32 F3          1.3520    1.9028   -1.3064 F         1 <0>        -0.1720
     33 H1         -0.2315    1.7920    3.9508 H         1 <0>         0.1508
     34 H2          0.7635    3.1124    2.1275 H         1 <0>         0.1536
     35 H3          1.8758   -0.4799    0.1173 H         1 <0>         0.1444
     36 H4         -0.1825   -0.6667    3.8611 H         1 <0>         0.1432
     37 H5          2.8564   -4.7197    2.7871 H         1 <0>         0.1630
     38 H6          1.0128   -5.9897    1.8085 H         1 <0>         0.1550
     39 H7         -0.5999   -0.1548    1.2966 H         1 <0>         0.1586
     40 H8         -4.4300   -0.4167   -0.6036 H         1 <0>         0.1365
     41 H9         -4.2863   -2.8427   -0.6478 H         1 <0>         0.1451
     42 H10        -1.2128   -5.9792    0.7016 H         1 <0>         0.1761
     43 H11        -4.7567    1.3699    0.7705 H         1 <0>         0.1373
     44 H12        -4.8581    3.8477    0.7829 H         1 <0>         0.1350
     45 H13        -0.5508    1.6705   -0.0194 H         1 <0>         0.1482
     46 H14        -3.6434    5.9110    0.5463 H         1 <0>         0.4097
     47 H15        -1.9939    5.9673    0.2323 H         1 <0>         0.4063
@<TRIPOS>BOND
     1    1    6 ar
     2    1    2 ar
     3    1   33 1
     4    2    3 ar
     5    2   34 1
     6    3    4 ar
     7    3   29 1
     8    4    5 ar
     9    4   35 1
    10    5    6 ar
    11    5    7 1
    12    6   36 1
    13    7   13 1
    14    7    8 am
    15    8    9 2
    16    8   10 1
    17   10   11 2
    18   10   37 1
    19   11   12 1
    20   11   38 1
    21   12   21 ar
    22   12   13 ar
    23   13   14 ar
    24   14   19 ar
    25   14   15 ar
    26   15   16 ar
    27   15   39 1
    28   16   17 ar
    29   16   22 1
    30   17   18 ar
    31   17   40 1
    32   18   19 ar
    33   18   41 1
    34   19   20 ar
    35   20   21 ar
    36   21   42 1
    37   22   27 ar
    38   22   23 ar
    39   23   24 ar
    40   23   43 1
    41   24   25 ar
    42   24   44 1
    43   25   26 ar
    44   25   28 1
    45   26   27 ar
    46   27   45 1
    47   28   46 1
    48   28   47 1
    49   29   30 1
    50   29   31 1
    51   29   32 1
@<TRIPOS>MOLECULE
ZINC71318831
   48    52     0     0     0
SMALL
USER_CHARGES

@<TRIPOS>ATOM
      1 C1          0.2240    1.2917    3.1082 C.ar      1 <0>        -0.1055
      2 C2          0.7886    2.0335    2.0865 C.ar      1 <0>        -0.0699
      3 C3          1.3842    1.3968    1.0134 C.ar      1 <0>        -0.1869
      4 C4          1.4167    0.0169    0.9584 C.ar      1 <0>        -0.0576
      5 C5          0.8507   -0.7307    1.9826 C.ar      1 <0>         0.1208
      6 C6          0.2535   -0.0880    3.0594 C.ar      1 <0>        -0.0709
      7 N1          0.8816   -2.1292    1.9297 N.am      1 <0>        -0.4702
      8 C7          1.9429   -2.7946    2.4252 C.2       1 <0>         0.5309
      9 O1          2.8682   -2.1706    2.9160 O.2       1 <0>        -0.5022
     10 C8          1.9979   -4.2027    2.3844 C.2       1 <0>        -0.2090
     11 C9          0.9751   -4.9109    1.8416 C.2       1 <0>        -0.0011
     12 C10        -0.1433   -4.2142    1.3191 C.ar      1 <0>        -0.1850
     13 C11        -0.1691   -2.8122    1.3801 C.ar      1 <0>         0.2400
     14 C12        -1.3001   -2.1448    0.8555 C.ar      1 <0>        -0.1250
     15 C13        -1.3967   -0.7495    0.8748 C.ar      1 <0>        -0.0953
     16 C14        -2.5222   -0.1364    0.3498 C.ar      1 <0>        -0.0720
     17 C15        -3.5580   -0.9075   -0.1972 C.ar      1 <0>        -0.0787
     18 C16        -3.4792   -2.2645   -0.2229 C.ar      1 <0>        -0.0796
     19 C17        -2.3506   -2.9170    0.3012 C.ar      1 <0>         0.1789
     20 N2         -2.2672   -4.2555    0.2770 N.ar      1 <0>        -0.4909
     21 C18        -1.2301   -4.9002    0.7450 C.ar      1 <0>         0.2178
     22 C19        -2.6328    1.3425    0.3668 C.ar      1 <0>        -0.0726
     23 C20        -1.5036    2.1411    0.1497 C.ar      1 <0>         0.0267
     24 C21        -1.6550    3.5131    0.1748 C.ar      1 <0>        -0.1861
     25 C22        -2.9158    4.0536    0.4133 C.ar      1 <0>         0.4528
     26 N3         -3.9639    3.2696    0.6153 N.ar      1 <0>        -0.4933
     27 C23        -3.8617    1.9556    0.5931 C.ar      1 <0>         0.1497
     28 N4         -3.0764    5.4333    0.4401 N.pl3     1 <0>        -0.8160
     29 C24         1.9982    2.2090   -0.0976 C.3       1 <0>         0.5078
     30 F1          1.8421    3.5713    0.1796 F         1 <0>        -0.1721
     31 F2          3.3604    1.9067   -0.1984 F         1 <0>        -0.1603
     32 F3          1.3620    1.9030   -1.3054 F         1 <0>        -0.1731
     33 H1         -0.2366    1.7921    3.9472 H         1 <0>         0.1554
     34 H2          0.7639    3.1125    2.1268 H         1 <0>         0.1546
     35 H3          1.8815   -0.4798    0.1196 H         1 <0>         0.1506
     36 H4         -0.1876   -0.6667    3.8575 H         1 <0>         0.1492
     37 H5          2.8569   -4.7196    2.7861 H         1 <0>         0.1689
     38 H6          1.0131   -5.9897    1.8079 H         1 <0>         0.1611
     39 H7         -0.5997   -0.1548    1.2962 H         1 <0>         0.1588
     40 H8         -4.4302   -0.4167   -0.6033 H         1 <0>         0.1399
     41 H9         -4.2865   -2.8427   -0.6475 H         1 <0>         0.1540
     42 H10        -1.2128   -5.9792    0.7015 H         1 <0>         0.1843
     43 H11        -0.5372    1.6946   -0.0326 H         1 <0>         0.1625
     44 H12        -0.8053    4.1595    0.0117 H         1 <0>         0.1839
     45 H13        -4.7398    1.3485    0.7568 H         1 <0>         0.2119
     46 H14        -2.3129    6.0134    0.2932 H         1 <0>         0.4424
     47 H15        -3.9519    5.8166    0.6056 H         1 <0>         0.4236
     48 H16        -4.8306    3.6730    0.7794 H         1 <0>         0.4467
@<TRIPOS>BOND
     1    1    6 ar
     2    1    2 ar
     3    1   33 1
     4    2    3 ar
     5    2   34 1
     6    3    4 ar
     7    3   29 1
     8    4    5 ar
     9    4   35 1
    10    5    6 ar
    11    5    7 1
    12    6   36 1
    13    7   13 1
    14    7    8 am
    15    8    9 2
    16    8   10 1
    17   10   11 2
    18   10   37 1
    19   11   12 1
    20   11   38 1
    21   12   21 ar
    22   12   13 ar
    23   13   14 ar
    24   14   19 ar
    25   14   15 ar
    26   15   16 ar
    27   15   39 1
    28   16   17 ar
    29   16   22 1
    30   17   18 ar
    31   17   40 1
    32   18   19 ar
    33   18   41 1
    34   19   20 ar
    35   20   21 ar
    36   21   42 1
    37   22   27 ar
    38   22   23 ar
    39   23   24 ar
    40   23   43 1
    41   24   25 ar
    42   24   44 1
    43   25   26 ar
    44   25   28 1
    45   26   27 ar
    46   26   48 1
    47   27   45 1
    48   28   46 1
    49   28   47 1
    50   29   30 1
    51   29   31 1
    52   29   32 1
@<TRIPOS>MOLECULE
ZINC68244543
   42    44     0     0     0
SMALL
USER_CHARGES

@<TRIPOS>ATOM
      1 C1          1.2900    2.4540    0.0853 C.3       1 <0>        -0.6503
      2 S1          0.7382    0.7264    0.0461 S.o2      1 <0>         2.4993
      3 O1          1.3870   -0.0179    1.0680 O.2       1 <0>        -0.9359
      4 O2         -0.6731    0.6667   -0.1087 O.2       1 <0>        -0.9358
      5 C2          1.3835    0.0790   -1.4603 C.ar      1 <0>        -0.6565
      6 C3          0.6375    0.1635   -2.6221 C.ar      1 <0>        -0.0191
      7 C4          1.1378   -0.3422   -3.8048 C.ar      1 <0>        -0.1291
      8 C5          2.3973   -0.9385   -3.8271 C.ar      1 <0>         0.0258
      9 C6          3.1446   -1.0205   -2.6536 C.ar      1 <0>        -0.1095
     10 C7          2.6366   -0.5067   -1.4778 C.ar      1 <0>        -0.0220
     11 C8          2.9401   -1.4843   -5.0950 C.ar      1 <0>         0.0385
     12 C9          2.2371   -1.3031   -6.2907 C.ar      1 <0>         0.1631
     13 N1          2.7148   -1.7861   -7.4209 N.ar      1 <0>        -0.4945
     14 C10         3.8673   -2.4477   -7.4282 C.ar      1 <0>         0.4191
     15 C11         4.5762   -2.6317   -6.2295 C.ar      1 <0>        -0.0401
     16 N2          4.0929   -2.1381   -5.0938 N.ar      1 <0>        -0.3623
     17 C12         5.8577   -3.3662   -6.2320 C.2       1 <0>         0.5920
     18 O3          6.3477   -3.7302   -7.2834 O.2       1 <0>        -0.5196
     19 N3          6.4838   -3.6330   -5.0687 N.am      1 <0>        -0.6505
     20 C13         7.7484   -4.2298   -5.0761 C.ar      1 <0>         0.1407
     21 C14         8.1109   -5.1050   -4.0602 C.ar      1 <0>        -0.1416
     22 C15         9.3604   -5.6931   -4.0708 C.ar      1 <0>        -0.0994
     23 C16        10.2504   -5.4113   -5.0910 C.ar      1 <0>        -0.1317
     24 C17         9.8927   -4.5401   -6.1036 C.ar      1 <0>        -0.1003
     25 C18         8.6425   -3.9533   -6.1023 C.ar      1 <0>        -0.1205
     26 N4          4.3674   -2.9542   -8.6132 N.pl3     1 <0>        -0.8137
     27 H1          2.3793    2.4881    0.0657 H         1 <0>         0.1318
     28 H2          0.8943    2.9816   -0.7826 H         1 <0>         0.1320
     29 H3          0.9279    2.9304    0.9963 H         1 <0>         0.1338
     30 H4         -0.3383    0.6258   -2.6036 H         1 <0>         0.1481
     31 H5          0.5542   -0.2764   -4.7111 H         1 <0>         0.1385
     32 H6          4.1211   -1.4818   -2.6651 H         1 <0>         0.1423
     33 H7          3.2167   -0.5657   -0.5687 H         1 <0>         0.1466
     34 H8          1.3000   -0.7663   -6.2881 H         1 <0>         0.1823
     35 H9          6.0573   -3.4109   -4.2263 H         1 <0>         0.4211
     36 H10         7.4166   -5.3250   -3.2628 H         1 <0>         0.1270
     37 H11         9.6429   -6.3737   -3.2812 H         1 <0>         0.1283
     38 H12        11.2270   -5.8723   -5.0967 H         1 <0>         0.1250
     39 H13        10.5902   -4.3218   -6.8988 H         1 <0>         0.1270
     40 H14         8.3622   -3.2764   -6.8959 H         1 <0>         0.1338
     41 H15         3.7647   -3.1637   -9.3437 H         1 <0>         0.4079
     42 H16         5.3210   -3.1001   -8.7141 H         1 <0>         0.4283
@<TRIPOS>BOND
     1    1    2 1
     2    1   27 1
     3    1   28 1
     4    1   29 1
     5    2    3 2
     6    2    4 2
     7    2    5 1
     8    5   10 ar
     9    5    6 ar
    10    6    7 ar
    11    6   30 1
    12    7    8 ar
    13    7   31 1
    14    8    9 ar
    15    8   11 1
    16    9   10 ar
    17    9   32 1
    18   10   33 1
    19   11   16 ar
    20   11   12 ar
    21   12   13 ar
    22   12   34 1
    23   13   14 ar
    24   14   15 ar
    25   14   26 1
    26   15   16 ar
    27   15   17 1
    28   17   18 2
    29   17   19 am
    30   19   20 1
    31   19   35 1
    32   20   25 ar
    33   20   21 ar
    34   21   22 ar
    35   21   36 1
    36   22   23 ar
    37   22   37 1
    38   23   24 ar
    39   23   38 1
    40   24   25 ar
    41   24   39 1
    42   25   40 1
    43   26   41 1
    44   26   42 1
@<TRIPOS>MOLECULE
ZINC13143019
   32    35     0     0     0
SMALL
USER_CHARGES

@<TRIPOS>ATOM
      1 C1         -0.0164    1.3580    0.0095 C.ar      1 <0>        -0.0930
      2 C2          1.1677    2.0902    0.0021 C.ar      1 <0>        -0.1190
      3 C3          2.3775    1.4633   -0.0133 C.ar      1 <0>        -0.0865
      4 C4          2.4341    0.0615   -0.0213 C.ar      1 <0>        -0.0665
      5 C5          1.2304   -0.6843   -0.0134 C.ar      1 <0>        -0.0052
      6 C6          0.0021   -0.0041    0.0020 C.ar      1 <0>        -0.1130
      7 C7          1.2767   -2.0933   -0.0223 C.ar      1 <0>        -0.1288
      8 C8          2.4696   -2.7377   -0.0386 C.ar      1 <0>        -0.0441
      9 C9          3.6750   -2.0158   -0.0462 C.ar      1 <0>        -0.2193
     10 C10         3.6704   -0.6196   -0.0378 C.ar      1 <0>         0.1687
     11 O1          4.8334    0.0583   -0.0461 O.3       1 <0>        -0.2140
     12 C11         6.0249   -0.5578   -0.0622 C.2       1 <0>         0.2063
     13 C12         6.1428   -1.9133   -0.0711 C.2       1 <0>        -0.3017
     14 C13         4.9756   -2.7120   -0.0643 C.2       1 <0>         0.4189
     15 O2          5.0418   -3.9305   -0.0719 O.2       1 <0>        -0.4670
     16 C14         7.2518    0.2641   -0.0709 C.ar      1 <0>        -0.1248
     17 C15         7.1726    1.6626   -0.0566 C.ar      1 <0>        -0.0368
     18 C16         8.3516    2.3861   -0.0652 C.ar      1 <0>        -0.1728
     19 C17         9.5598    1.7121   -0.0873 C.ar      1 <0>         0.1231
     20 N1          9.6044    0.3937   -0.1003 N.ar      1 <0>        -0.4785
     21 C18         8.5106   -0.3395   -0.0876 C.ar      1 <0>         0.1438
     22 H1         -0.9632    1.8774    0.0259 H         1 <0>         0.1311
     23 H2          1.1269    3.1694    0.0083 H         1 <0>         0.1310
     24 H3          3.2887    2.0430   -0.0196 H         1 <0>         0.1334
     25 H4         -0.9246   -0.5587    0.0083 H         1 <0>         0.1374
     26 H5          0.3584   -2.6617   -0.0159 H         1 <0>         0.1407
     27 H6          2.4935   -3.8174   -0.0453 H         1 <0>         0.1436
     28 H7          7.1189   -2.3751   -0.0840 H         1 <0>         0.1652
     29 H8          6.2157    2.1631   -0.0398 H         1 <0>         0.1461
     30 H9          8.3293    3.4658   -0.0550 H         1 <0>         0.1469
     31 H10        10.4817    2.2747   -0.0943 H         1 <0>         0.1662
     32 H11         8.5879   -1.4167   -0.0946 H         1 <0>         0.1687
@<TRIPOS>BOND
     1    1    6 ar
     2    1    2 ar
     3    1   22 1
     4    2    3 ar
     5    2   23 1
     6    3    4 ar
     7    3   24 1
     8    4   10 ar
     9    4    5 ar
    10    5    6 ar
    11    5    7 ar
    12    6   25 1
    13    7    8 ar
    14    7   26 1
    15    8    9 ar
    16    8   27 1
    17    9   14 1
    18    9   10 ar
    19   10   11 1
    20   11   12 1
    21   12   13 2
    22   12   16 1
    23   13   14 1
    24   13   28 1
    25   14   15 2
    26   16   21 ar
    27   16   17 ar
    28   17   18 ar
    29   17   29 1
    30   18   19 ar
    31   18   30 1
    32   19   20 ar
    33   19   31 1
    34   20   21 ar
    35   21   32 1
@<TRIPOS>MOLECULE
ZINC01702791
   30    32     0     0     0
SMALL
USER_CHARGES
2-morpholinopyrido[2,1-b]pyrimidin-4-one
@<TRIPOS>ATOM
      1 C1          2.3701    1.4013   -0.0123 C.2       1 <0>        -0.0252
      2 C2          1.1352    2.0657    0.0023 C.2       1 <0>        -0.1714
      3 C3         -0.0164    1.3587    0.0095 C.2       1 <0>         0.1049
      4 N1          0.0021   -0.0041    0.0020 N.am      1 <0>        -0.4325
      5 C4          1.1905   -0.6801   -0.0134 C.2       1 <0>         0.4143
      6 C5          2.4005    0.0395   -0.0211 C.2       1 <0>        -0.1428
      7 N2          1.2204   -2.0104   -0.0203 N.2       1 <0>        -0.5731
      8 C6          0.0981   -2.7254   -0.0134 C.2       1 <0>         0.3907
      9 C7         -1.1351   -2.0781    0.0017 C.2       1 <0>        -0.3537
     10 C8         -1.1633   -0.6853    0.0094 C.2       1 <0>         0.5152
     11 O1         -2.2290   -0.0882    0.0223 O.2       1 <0>        -0.5351
     12 N3          0.1560   -4.1068   -0.0208 N.pl3     1 <0>        -0.4730
     13 C9         -0.4674   -4.6668    1.1871 C.3       1 <0>         0.0234
     14 C10        -0.4349   -6.1954    1.1098 C.3       1 <0>         0.0628
     15 O2          0.9176   -6.6309    0.9471 O.3       1 <0>        -0.3816
     16 C11         1.5552   -6.1049   -0.2200 C.3       1 <0>         0.0589
     17 C12         1.5429   -4.5753   -0.1562 C.3       1 <0>         0.0263
     18 H1          3.2909    1.9656   -0.0182 H         1 <0>         0.1553
     19 H2          1.1045    3.1453    0.0084 H         1 <0>         0.1614
     20 H3         -0.9625    1.8796    0.0168 H         1 <0>         0.1832
     21 H4          3.3451   -0.4838   -0.0343 H         1 <0>         0.1669
     22 H5         -2.0536   -2.6461    0.0078 H         1 <0>         0.1578
     23 H6          0.0826   -4.3351    2.0677 H         1 <0>         0.0602
     24 H7         -1.5012   -4.3276    1.2538 H         1 <0>         0.1004
     25 H8         -1.0297   -6.5296    0.2597 H         1 <0>         0.0658
     26 H9         -0.8446   -6.6157    2.0283 H         1 <0>         0.1082
     27 H10         1.0184   -6.4365   -1.1088 H         1 <0>         0.0622
     28 H11         2.5852   -6.4591   -0.2636 H         1 <0>         0.1064
     29 H12         1.9766   -4.1694   -1.0701 H         1 <0>         0.0975
     30 H13         2.1253   -4.2415    0.7026 H         1 <0>         0.0666
@<TRIPOS>BOND
     1    1    6 2
     2    1    2 1
     3    1   18 1
     4    2    3 2
     5    2   19 1
     6    3    4 1
     7    3   20 1
     8    4   10 am
     9    4    5 1
    10    5    6 1
    11    5    7 2
    12    6   21 1
    13    7    8 1
    14    8    9 2
    15    8   12 1
    16    9   10 1
    17    9   22 1
    18   10   11 2
    19   12   17 1
    20   12   13 1
    21   13   14 1
    22   13   23 1
    23   13   24 1
    24   14   15 1
    25   14   25 1
    26   14   26 1
    27   15   16 1
    28   16   17 1
    29   16   27 1
    30   16   28 1
    31   17   29 1
    32   17   30 1
@<TRIPOS>MOLECULE
ZINC13608047
   36    39     0     0     0
SMALL
USER_CHARGES
2-morpholinopyrimido[2,3-a]isoquinolin-4-one
@<TRIPOS>ATOM
      1 C1         -0.0126    1.0758    0.0080 C.ar      1 <0>        -0.0791
      2 C2         -1.2299    1.7445    0.0174 C.ar      1 <0>        -0.1252
      3 C3         -1.2800    3.1110    0.0311 C.ar      1 <0>        -0.0466
      4 C4         -0.0919    3.8422    0.0227 C.ar      1 <0>        -0.0777
      5 C5          1.1470    3.1622    0.0076 C.ar      1 <0>        -0.0126
      6 C6          1.1675    1.7665    0.0004 C.ar      1 <0>        -0.1120
      7 C7          2.3773    3.9549   -0.0004 C.2       1 <0>        -0.1410
      8 C8          2.3043    5.2931    0.0067 C.2       1 <0>         0.0729
      9 N1          1.1113    5.9702    0.0208 N.am      1 <0>        -0.4490
     10 C9         -0.0849    5.3101    0.0296 C.2       1 <0>         0.4492
     11 N2         -1.2316    5.9688    0.0428 N.2       1 <0>        -0.5596
     12 C10        -1.2673    7.3023    0.0491 C.2       1 <0>         0.3790
     13 C11        -0.0777    8.0212    0.0411 C.2       1 <0>        -0.3344
     14 C12         1.1294    7.3224    0.0267 C.2       1 <0>         0.5228
     15 O1          2.1915    7.9254    0.0190 O.2       1 <0>        -0.5305
     16 N3         -2.4798    7.9650    0.0630 N.pl3     1 <0>        -0.4708
     17 C13        -2.6156    8.7899    1.2723 C.3       1 <0>         0.0222
     18 C14        -3.9431    9.5506    1.2183 C.3       1 <0>         0.0629
     19 O2         -5.0167    8.6164    1.0768 O.3       1 <0>        -0.3812
     20 C15        -4.9166    7.7970   -0.0911 C.3       1 <0>         0.0591
     21 C16        -3.5990    7.0185   -0.0503 C.3       1 <0>         0.0250
     22 H1          0.0021   -0.0041    0.0020 H         1 <0>         0.1346
     23 H2         -2.1492    1.1776    0.0187 H         1 <0>         0.1357
     24 H3         -2.2323    3.6205    0.0422 H         1 <0>         0.1447
     25 H4          2.1082    1.2361   -0.0114 H         1 <0>         0.1400
     26 H5          3.3391    3.4639   -0.0123 H         1 <0>         0.1622
     27 H6          3.2225    5.8618    0.0006 H         1 <0>         0.1784
     28 H7         -0.0878    9.1011    0.0457 H         1 <0>         0.1606
     29 H8         -2.5990    8.1489    2.1538 H         1 <0>         0.0609
     30 H9         -1.7906    9.5005    1.3227 H         1 <0>         0.1008
     31 H10        -3.9382   10.2312    0.3669 H         1 <0>         0.0661
     32 H11        -4.0748   10.1198    2.1385 H         1 <0>         0.1086
     33 H12        -4.9400    8.4265   -0.9806 H         1 <0>         0.0627
     34 H13        -5.7520    7.0973   -0.1175 H         1 <0>         0.1067
     35 H14        -3.4919    6.4360   -0.9654 H         1 <0>         0.0978
     36 H15        -3.5976    6.3487    0.8096 H         1 <0>         0.0668
@<TRIPOS>BOND
     1    1    6 ar
     2    1    2 ar
     3    1   22 1
     4    2    3 ar
     5    2   23 1
     6    3    4 ar
     7    3   24 1
     8    4   10 1
     9    4    5 ar
    10    5    6 ar
    11    5    7 1
    12    6   25 1
    13    7    8 2
    14    7   26 1
    15    8    9 1
    16    8   27 1
    17    9   14 am
    18    9   10 1
    19   10   11 2
    20   11   12 1
    21   12   13 2
    22   12   16 1
    23   13   14 1
    24   13   28 1
    25   14   15 2
    26   16   21 1
    27   16   17 1
    28   17   18 1
    29   17   29 1
    30   17   30 1
    31   18   19 1
    32   18   31 1
    33   18   32 1
    34   19   20 1
    35   20   21 1
    36   20   33 1
    37   20   34 1
    38   21   35 1
    39   21   36 1
@<TRIPOS>MOLECULE
ZINC03938693
   49    54     0     0     0
SMALL
USER_CHARGES
8-dibenzothiophen-4-yl-2-morpholino-chromen-4-one
@<TRIPOS>ATOM
      1 C1         -4.6468   -3.5753   -1.1748 C.ar      1 <0>        -0.1185
      2 C2         -5.4276   -2.6582   -0.4874 C.ar      1 <0>        -0.0911
      3 C3         -5.4502   -1.3404   -0.9006 C.ar      1 <0>        -0.0773
      4 C4         -4.6968   -0.9535   -1.9905 C.ar      1 <0>        -0.1031
      5 C5         -3.8982   -1.8587   -2.7046 C.ar      1 <0>        -0.0753
      6 C6         -3.8953   -3.1979   -2.2586 C.ar      1 <0>        -0.0772
      7 C7         -3.1490   -1.2943   -3.8499 C.ar      1 <0>        -0.0725
      8 C8         -2.2814   -1.9837   -4.7255 C.ar      1 <0>        -0.0718
      9 C9         -1.6497   -1.3284   -5.7531 C.ar      1 <0>        -0.1174
     10 C10        -1.8389    0.0258   -5.9679 C.ar      1 <0>        -0.0765
     11 C11        -2.6878    0.7383   -5.1234 C.ar      1 <0>        -0.0053
     12 C12        -3.3238    0.0768   -4.0778 C.ar      1 <0>        -0.0812
     13 S1         -4.4579    0.5984   -2.8171 S.3       1 <0>         0.0435
     14 C13        -2.9064    2.1892   -5.3334 C.ar      1 <0>        -0.0749
     15 C14        -3.5352    2.6414   -6.4891 C.ar      1 <0>        -0.0418
     16 C15        -3.7430    3.9945   -6.6925 C.ar      1 <0>        -0.1429
     17 C16        -3.3286    4.9141   -5.7514 C.ar      1 <0>        -0.0248
     18 C17        -2.6969    4.4788   -4.5876 C.ar      1 <0>        -0.2155
     19 C18        -2.4811    3.1116   -4.3698 C.ar      1 <0>         0.1667
     20 O1         -1.8696    2.7002   -3.2398 O.3       1 <0>        -0.2335
     21 C19        -1.4519    3.5582   -2.2993 C.2       1 <0>         0.3499
     22 C20        -1.6179    4.9060   -2.4118 C.2       1 <0>        -0.3553
     23 C21        -2.2405    5.4359   -3.5582 C.2       1 <0>         0.4300
     24 O2         -2.4016    6.6381   -3.6941 O.2       1 <0>        -0.4774
     25 N1         -0.8389    3.0606   -1.1783 N.pl3     1 <0>        -0.4556
     26 C22        -0.7549    1.5938   -1.2309 C.3       1 <0>         0.0069
     27 C23        -0.0127    1.0858    0.0080 C.3       1 <0>         0.0636
     28 O3         -0.6838    1.5479    1.1834 O.3       1 <0>        -0.3774
     29 C24        -0.7839    2.9721    1.2669 C.3       1 <0>         0.0623
     30 C25        -1.5339    3.4992    0.0407 C.3       1 <0>         0.0155
     31 H1         -4.6301   -4.6055   -0.8511 H         1 <0>         0.1312
     32 H2         -6.0135   -2.9719    0.3639 H         1 <0>         0.1374
     33 H3         -6.0539   -0.6165   -0.3735 H         1 <0>         0.1332
     34 H4         -3.2960   -3.9325   -2.7759 H         1 <0>         0.1266
     35 H5         -2.1128   -3.0412   -4.5848 H         1 <0>         0.1283
     36 H6         -0.9918   -1.8809   -6.4075 H         1 <0>         0.1347
     37 H7         -1.3336    0.5251   -6.7815 H         1 <0>         0.1390
     38 H8         -3.8634    1.9311   -7.2335 H         1 <0>         0.1439
     39 H9         -4.2324    4.3326   -7.5939 H         1 <0>         0.1420
     40 H10        -3.4930    5.9687   -5.9161 H         1 <0>         0.1461
     41 H11        -1.2703    5.5637   -1.6288 H         1 <0>         0.1600
     42 H12        -0.2145    1.2922   -2.1281 H         1 <0>         0.0999
     43 H13        -1.7598    1.1722   -1.2516 H         1 <0>         0.0725
     44 H14         0.0021   -0.0041    0.0020 H         1 <0>         0.1077
     45 H15         1.0097    1.4637    0.0003 H         1 <0>         0.0662
     46 H16         0.2159    3.4055    1.2962 H         1 <0>         0.0683
     47 H17        -1.3264    3.2471    2.1714 H         1 <0>         0.1127
     48 H18        -1.5620    4.5884    0.0717 H         1 <0>         0.1086
     49 H19        -2.5513    3.1080    0.0404 H         1 <0>         0.0694
@<TRIPOS>BOND
     1    1    6 ar
     2    1    2 ar
     3    1   31 1
     4    2    3 ar
     5    2   32 1
     6    3    4 ar
     7    3   33 1
     8    4   13 1
     9    4    5 ar
    10    5    6 ar
    11    5    7 1
    12    6   34 1
    13    7   12 ar
    14    7    8 ar
    15    8    9 ar
    16    8   35 1
    17    9   10 ar
    18    9   36 1
    19   10   11 ar
    20   10   37 1
    21   11   12 ar
    22   11   14 1
    23   12   13 1
    24   14   19 ar
    25   14   15 ar
    26   15   16 ar
    27   15   38 1
    28   16   17 ar
    29   16   39 1
    30   17   18 ar
    31   17   40 1
    32   18   23 1
    33   18   19 ar
    34   19   20 1
    35   20   21 1
    36   21   22 2
    37   21   25 1
    38   22   23 1
    39   22   41 1
    40   23   24 2
    41   25   30 1
    42   25   26 1
    43   26   27 1
    44   26   42 1
    45   26   43 1
    46   27   28 1
    47   27   44 1
    48   27   45 1
    49   28   29 1
    50   29   30 1
    51   29   46 1
    52   29   47 1
    53   30   48 1
    54   30   49 1
@<TRIPOS>MOLECULE
ZINC03817388
   44    48     0     0     0
SMALL
USER_CHARGES
2-morpholino-6-thianthren-1-yl-pyran-4-one
@<TRIPOS>ATOM
      1 C1         -0.0126    1.0758    0.0080 C.ar      1 <0>        -0.0962
      2 C2         -1.2178    1.7530    0.0173 C.ar      1 <0>        -0.0960
      3 C3         -1.2290    3.1318    0.0292 C.ar      1 <0>        -0.0786
      4 C4         -0.0354    3.8584    0.0205 C.ar      1 <0>        -0.1130
      5 C5          1.1703    3.1811    0.0067 C.ar      1 <0>        -0.1118
      6 C6          1.1707    1.7837    0.0005 C.ar      1 <0>        -0.0782
      7 S1          2.7249    3.9920   -0.0029 S.3       1 <0>         0.0473
      8 C7          2.4855    5.5379   -0.7955 C.ar      1 <0>        -0.1136
      9 C8          3.5773    6.0950   -1.4653 C.ar      1 <0>        -0.0568
     10 C9          3.4748    7.3097   -2.1156 C.ar      1 <0>        -0.0984
     11 C10         2.2794    7.9944   -2.1115 C.ar      1 <0>        -0.0604
     12 C11         1.1775    7.4549   -1.4479 C.ar      1 <0>        -0.0294
     13 C12         1.2797    6.2143   -0.7821 C.ar      1 <0>        -0.0806
     14 S2         -0.1517    5.6080    0.0287 S.3       1 <0>         0.0481
     15 C13        -0.1032    8.1853   -1.4422 C.2       1 <0>         0.1725
     16 C14        -0.1265    9.4998   -1.0893 C.2       1 <0>        -0.2662
     17 C15        -1.3620   10.1914   -1.0927 C.2       1 <0>         0.4064
     18 O1         -1.4187   11.3740   -0.7859 O.2       1 <0>        -0.4949
     19 C16        -2.5273    9.4817   -1.4538 C.2       1 <0>        -0.3317
     20 C17        -2.4253    8.1661   -1.7894 C.2       1 <0>         0.3238
     21 O2         -1.2363    7.5434   -1.7804 O.3       1 <0>        -0.2204
     22 N1         -3.5546    7.4666   -2.1425 N.pl3     1 <0>        -0.4524
     23 C18        -4.5684    7.5318   -1.0798 C.3       1 <0>         0.0142
     24 C19        -5.8283    6.7923   -1.5378 C.3       1 <0>         0.0625
     25 O3         -5.4872    5.4459   -1.8789 O.3       1 <0>        -0.3783
     26 C20        -4.5027    5.3453   -2.9113 C.3       1 <0>         0.0620
     27 C21        -3.2294    6.0702   -2.4672 C.3       1 <0>         0.0054
     28 H1          0.0021   -0.0041    0.0020 H         1 <0>         0.1391
     29 H2         -2.1477    1.2038    0.0196 H         1 <0>         0.1390
     30 H3         -2.1726    3.6571    0.0401 H         1 <0>         0.1334
     31 H4          2.1102    1.2512   -0.0108 H         1 <0>         0.1372
     32 H5          4.5192    5.5668   -1.4745 H         1 <0>         0.1435
     33 H6          4.3317    7.7222   -2.6274 H         1 <0>         0.1491
     34 H7          2.1957    8.9437   -2.6196 H         1 <0>         0.1476
     35 H8          0.7854   10.0092   -0.8147 H         1 <0>         0.1607
     36 H9         -3.4875    9.9760   -1.4641 H         1 <0>         0.1585
     37 H10        -4.1793    7.0626   -0.1762 H         1 <0>         0.0684
     38 H11        -4.8128    8.5738   -0.8733 H         1 <0>         0.1081
     39 H12        -6.2478    7.2936   -2.4101 H         1 <0>         0.0687
     40 H13        -6.5623    6.7888   -0.7320 H         1 <0>         0.1129
     41 H14        -4.8836    5.8046   -3.8235 H         1 <0>         0.0665
     42 H15        -4.2772    4.2955   -3.0991 H         1 <0>         0.1090
     43 H16        -2.4963    6.0452   -3.2735 H         1 <0>         0.1007
     44 H17        -2.8188    5.5776   -1.5858 H         1 <0>         0.0724
@<TRIPOS>BOND
     1    1    6 ar
     2    1    2 ar
     3    1   28 1
     4    2    3 ar
     5    2   29 1
     6    3    4 ar
     7    3   30 1
     8    4   14 1
     9    4    5 ar
    10    5    6 ar
    11    5    7 1
    12    6   31 1
    13    7    8 1
    14    8   13 ar
    15    8    9 ar
    16    9   10 ar
    17    9   32 1
    18   10   11 ar
    19   10   33 1
    20   11   12 ar
    21   11   34 1
    22   12   13 ar
    23   12   15 1
    24   13   14 1
    25   15   21 1
    26   15   16 2
    27   16   17 1
    28   16   35 1
    29   17   18 2
    30   17   19 1
    31   19   20 2
    32   19   36 1
    33   20   21 1
    34   20   22 1
    35   22   27 1
    36   22   23 1
    37   23   24 1
    38   23   37 1
    39   23   38 1
    40   24   25 1
    41   24   39 1
    42   24   40 1
    43   25   26 1
    44   26   27 1
    45   26   41 1
    46   26   42 1
    47   27   43 1
    48   27   44 1
@<TRIPOS>MOLECULE
ZINC00038933
   33    36     0     0     0
SMALL
USER_CHARGES

@<TRIPOS>ATOM
      1 C1         -0.0167    1.3795    0.0096 C.ar      1 <0>        -0.0928
      2 C2          1.1683    2.0940    0.0021 C.ar      1 <0>        -0.1226
      3 C3          2.3774    1.4303   -0.0130 C.ar      1 <0>        -0.0799
      4 C4          2.4038    0.0341   -0.0208 C.ar      1 <0>        -0.0737
      5 C5          1.2040   -0.6806   -0.0131 C.ar      1 <0>        -0.0798
      6 C6          0.0021   -0.0041    0.0020 C.ar      1 <0>        -0.1201
      7 C7          3.6945   -0.6834   -0.0374 C.2       1 <0>         0.2052
      8 C8          3.6891   -2.0439   -0.0503 C.2       1 <0>        -0.3086
      9 C9          4.9185   -2.7430   -0.0669 C.2       1 <0>         0.4186
     10 O1          4.9534   -3.9628   -0.0790 O.2       1 <0>        -0.4713
     11 C10         6.1569   -1.9414   -0.0694 C.ar      1 <0>        -0.2207
     12 C11         7.4183   -2.5611   -0.0851 C.ar      1 <0>        -0.0439
     13 C12         8.5536   -1.8202   -0.0866 C.ar      1 <0>        -0.1302
     14 C13         8.4832   -0.4118   -0.0728 C.ar      1 <0>        -0.0053
     15 C14         9.6510    0.3677   -0.0749 C.ar      1 <0>        -0.1137
     16 C15         9.5568    1.7267   -0.0617 C.ar      1 <0>        -0.0931
     17 C16         8.3161    2.3582   -0.0457 C.ar      1 <0>        -0.1198
     18 C17         7.1624    1.6330   -0.0428 C.ar      1 <0>        -0.0856
     19 C18         7.2221    0.2314   -0.0572 C.ar      1 <0>        -0.0668
     20 C19         6.0461   -0.5500   -0.0553 C.ar      1 <0>         0.1689
     21 O2          4.8311    0.0293   -0.0449 O.3       1 <0>        -0.2128
     22 H1         -0.9606    1.9042    0.0260 H         1 <0>         0.1309
     23 H2          1.1464    3.1738    0.0078 H         1 <0>         0.1325
     24 H3          3.3016    1.9892   -0.0192 H         1 <0>         0.1337
     25 H4          1.2173   -1.7605   -0.0194 H         1 <0>         0.1363
     26 H5         -0.9265   -0.5555    0.0079 H         1 <0>         0.1349
     27 H6          2.7545   -2.5851   -0.0476 H         1 <0>         0.1638
     28 H7          7.4838   -3.6391   -0.0957 H         1 <0>         0.1429
     29 H8          9.5158   -2.3106   -0.0980 H         1 <0>         0.1402
     30 H9         10.6204   -0.1083   -0.0866 H         1 <0>         0.1370
     31 H10        10.4574    2.3227   -0.0634 H         1 <0>         0.1308
     32 H11         8.2674    3.4370   -0.0350 H         1 <0>         0.1309
     33 H12         6.2063    2.1351   -0.0296 H         1 <0>         0.1339
@<TRIPOS>BOND
     1    1    6 ar
     2    1    2 ar
     3    1   22 1
     4    2    3 ar
     5    2   23 1
     6    3    4 ar
     7    3   24 1
     8    4    5 ar
     9    4    7 1
    10    5    6 ar
    11    5   25 1
    12    6   26 1
    13    7   21 1
    14    7    8 2
    15    8    9 1
    16    8   27 1
    17    9   10 2
    18    9   11 1
    19   11   20 ar
    20   11   12 ar
    21   12   13 ar
    22   12   28 1
    23   13   14 ar
    24   13   29 1
    25   14   19 ar
    26   14   15 ar
    27   15   16 ar
    28   15   30 1
    29   16   17 ar
    30   16   31 1
    31   17   18 ar
    32   17   32 1
    33   18   19 ar
    34   18   33 1
    35   19   20 ar
    36   20   21 1
@<TRIPOS>MOLECULE
ZINC01492320
   34    36     0     0     0
SMALL
USER_CHARGES

@<TRIPOS>ATOM
      1 C1         -3.9559    3.5819   -7.1607 C.ar      1 <0>        -0.0727
      2 C2         -4.4807    2.9775   -8.2840 C.ar      1 <0>        -0.1069
      3 C3         -4.4425    1.5992   -8.4138 C.ar      1 <0>        -0.0180
      4 C4         -3.8728    0.8203   -7.4206 C.ar      1 <0>        -0.1072
      5 C5         -3.3402    1.4139   -6.2953 C.ar      1 <0>        -0.0792
      6 C6         -3.3757    2.8024   -6.1589 C.ar      1 <0>        -0.0403
      7 C7         -2.8064    3.4447   -4.9550 C.2       1 <0>        -0.0127
      8 C8         -2.8099    4.8047   -4.7606 C.2       1 <0>        -0.2047
      9 C9         -2.2792    5.4219   -3.6357 C.2       1 <0>         0.3817
     10 O1         -2.3740    6.6424   -3.6407 O.2       1 <0>        -0.4932
     11 C10        -1.6625    4.9054   -2.5110 C.2       1 <0>        -0.2666
     12 C11        -1.4551    3.5608   -2.3052 C.2       1 <0>         0.1396
     13 S1         -2.0476    2.5228   -3.6296 S.3       1 <0>         0.0277
     14 N1         -0.8389    3.0606   -1.1783 N.pl3     1 <0>        -0.4412
     15 C12        -0.7549    1.5938   -1.2309 C.3       1 <0>        -0.0027
     16 C13        -0.0127    1.0858    0.0080 C.3       1 <0>         0.0647
     17 O2         -0.6838    1.5479    1.1834 O.3       1 <0>        -0.3777
     18 C14        -0.7839    2.9721    1.2669 C.3       1 <0>         0.0616
     19 C15        -1.5339    3.4992    0.0407 C.3       1 <0>         0.0138
     20 Cl1        -5.1110    0.8451   -9.8273 Cl        1 <0>        -0.0563
     21 H1         -3.9906    4.6564   -7.0583 H         1 <0>         0.1425
     22 H2         -4.9259    3.5799   -9.0620 H         1 <0>         0.1445
     23 H3         -3.8459   -0.2541   -7.5272 H         1 <0>         0.1436
     24 H4         -2.8968    0.8053   -5.5210 H         1 <0>         0.1389
     25 H5         -3.2495    5.4282   -5.5251 H         1 <0>         0.1536
     26 H6         -1.3251    5.5956   -1.7519 H         1 <0>         0.1516
     27 H7         -0.2145    1.2922   -2.1281 H         1 <0>         0.1058
     28 H8         -1.7598    1.1722   -1.2516 H         1 <0>         0.0739
     29 H9          0.0021   -0.0041    0.0020 H         1 <0>         0.1122
     30 H10         1.0097    1.4637    0.0003 H         1 <0>         0.0680
     31 H11         0.2159    3.4055    1.2962 H         1 <0>         0.0682
     32 H12        -1.3264    3.2471    2.1714 H         1 <0>         0.1127
     33 H13        -1.5620    4.5884    0.0717 H         1 <0>         0.1052
     34 H14        -2.5513    3.1080    0.0404 H         1 <0>         0.0696
@<TRIPOS>BOND
     1    1    6 ar
     2    1    2 ar
     3    1   21 1
     4    2    3 ar
     5    2   22 1
     6    3    4 ar
     7    3   20 1
     8    4    5 ar
     9    4   23 1
    10    5    6 ar
    11    5   24 1
    12    6    7 1
    13    7   13 1
    14    7    8 2
    15    8    9 1
    16    8   25 1
    17    9   10 2
    18    9   11 1
    19   11   12 2
    20   11   26 1
    21   12   13 1
    22   12   14 1
    23   14   19 1
    24   14   15 1
    25   15   16 1
    26   15   27 1
    27   15   28 1
    28   16   17 1
    29   16   29 1
    30   16   30 1
    31   17   18 1
    32   18   19 1
    33   18   31 1
    34   18   32 1
    35   19   33 1
    36   19   34 1
@<TRIPOS>MOLECULE
ZINC13608106
   33    35     0     0     0
SMALL
USER_CHARGES
6-methyl-4-morpholino-chromen-2-one
@<TRIPOS>ATOM
      1 C1          6.2734   -2.3737   -0.7974 C.3       1 <0>        -0.1142
      2 C2          5.7622   -2.0979    0.5931 C.ar      1 <0>        -0.1122
      3 C3          6.4756   -2.5505    1.6932 C.ar      1 <0>        -0.0590
      4 C4          6.0227   -2.3077    2.9729 C.ar      1 <0>        -0.1322
      5 C5          4.8414   -1.6037    3.1686 C.ar      1 <0>         0.1450
      6 C6          4.1192   -1.1456    2.0559 C.ar      1 <0>        -0.1401
      7 C7          4.5890   -1.3971    0.7658 C.ar      1 <0>        -0.0367
      8 C8          2.8684   -0.4005    2.2773 C.2       1 <0>         0.2215
      9 C9          2.4695   -0.1842    3.5713 C.2       1 <0>        -0.2892
     10 C10         3.2449   -0.6781    4.6280 C.2       1 <0>         0.5166
     11 O1          2.8770   -0.4833    5.7737 O.2       1 <0>        -0.4640
     12 O2          4.3839   -1.3569    4.4153 O.3       1 <0>        -0.2711
     13 N1          2.1251    0.0696    1.2174 N.pl3     1 <0>        -0.5099
     14 C11         0.7721   -0.5054    1.2266 C.3       1 <0>         0.0188
     15 C12         0.0021   -0.0041    0.0020 C.3       1 <0>         0.0648
     16 O3         -0.0173    1.4259    0.0099 O.3       1 <0>        -0.3804
     17 C13         1.2838    2.0194    0.0006 C.3       1 <0>         0.0647
     18 C14         2.0669    1.5386    1.2252 C.3       1 <0>         0.0195
     19 H1          5.8679   -3.3212   -1.1523 H         1 <0>         0.0743
     20 H2          5.9601   -1.5714   -1.4655 H         1 <0>         0.0700
     21 H3          7.3619   -2.4279   -0.7803 H         1 <0>         0.0707
     22 H4          7.3948   -3.0980    1.5462 H         1 <0>         0.1413
     23 H5          6.5863   -2.6644    3.8224 H         1 <0>         0.1462
     24 H6          4.0351   -1.0455   -0.0921 H         1 <0>         0.1457
     25 H7          1.5602    0.3619    3.7746 H         1 <0>         0.1605
     26 H8          0.2523   -0.1984    2.1342 H         1 <0>         0.0585
     27 H9          0.8386   -1.5929    1.1946 H         1 <0>         0.0945
     28 H10        -1.0197   -0.3821    0.0348 H         1 <0>         0.1065
     29 H11         0.4916   -0.3564   -0.9059 H         1 <0>         0.0651
     30 H12         1.8113    1.7259   -0.9069 H         1 <0>         0.0651
     31 H13         1.1891    3.1048    0.0324 H         1 <0>         0.1066
     32 H14         1.5678    1.8783    2.1328 H         1 <0>         0.0585
     33 H15         3.0785    1.9431    1.1922 H         1 <0>         0.0945
@<TRIPOS>BOND
     1    1    2 1
     2    1   19 1
     3    1   20 1
     4    1   21 1
     5    2    7 ar
     6    2    3 ar
     7    3    4 ar
     8    3   22 1
     9    4    5 ar
    10    4   23 1
    11    5   12 1
    12    5    6 ar
    13    6    7 ar
    14    6    8 1
    15    7   24 1
    16    8    9 2
    17    8   13 1
    18    9   10 1
    19    9   25 1
    20   10   11 2
    21   10   12 1
    22   13   18 1
    23   13   14 1
    24   14   15 1
    25   14   26 1
    26   14   27 1
    27   15   16 1
    28   15   28 1
    29   15   29 1
    30   16   17 1
    31   17   18 1
    32   17   30 1
    33   17   31 1
    34   18   32 1
    35   18   33 1
@<TRIPOS>MOLECULE
ZINC00312514
   30    32     0     0     0
SMALL
USER_CHARGES

@<TRIPOS>ATOM
      1 C1          0.0118    1.3352    0.5613 C.ar      1 <0>        -0.1437
      2 C2          1.1993    2.0520    0.5459 C.ar      1 <0>        -0.0604
      3 C3          2.4043    1.4113    0.3479 C.ar      1 <0>        -0.1351
      4 C4          2.4357    0.0353    0.1616 C.ar      1 <0>         0.1557
      5 C5          1.2346   -0.6904    0.1770 C.ar      1 <0>        -0.1669
      6 C6          0.0215   -0.0300    0.3784 C.ar      1 <0>        -0.0505
      7 C7          1.2821   -2.1488   -0.0219 C.2       1 <0>         0.2998
      8 C8          2.5082   -2.7317   -0.2142 C.2       1 <0>        -0.2947
      9 C9          3.6616   -1.9370   -0.2160 C.2       1 <0>         0.5185
     10 O1          4.7456   -2.4673   -0.3881 O.2       1 <0>        -0.4695
     11 O2          3.6073   -0.6077   -0.0341 O.3       1 <0>        -0.2751
     12 N1          0.1304   -2.9041   -0.0145 N.pl3     1 <0>        -0.6593
     13 C10        -0.9071   -2.7134   -1.0404 C.3       1 <0>         0.0991
     14 C11        -1.2581   -4.0827   -1.6335 C.3       1 <0>         0.0462
     15 O3         -1.5728   -4.9884   -0.5730 O.3       1 <0>        -0.3768
     16 C12        -0.4891   -5.2362    0.3259 C.3       1 <0>         0.0441
     17 C13        -0.0962   -3.9299    1.0160 C.3       1 <0>         0.0997
     18 H1         -0.9242    1.8494    0.7219 H         1 <0>         0.1358
     19 H2          1.1799    3.1222    0.6900 H         1 <0>         0.1416
     20 H3          3.3229    1.9792    0.3374 H         1 <0>         0.1459
     21 H4         -0.9042   -0.5862    0.3912 H         1 <0>         0.1360
     22 H5          2.5843   -3.7987   -0.3632 H         1 <0>         0.1593
     23 H6         -1.7945   -2.2712   -0.5874 H         1 <0>         0.0710
     24 H7         -0.5304   -2.0586   -1.8262 H         1 <0>         0.0868
     25 H8         -2.1189   -3.9833   -2.2948 H         1 <0>         0.1077
     26 H9         -0.4069   -4.4642   -2.1975 H         1 <0>         0.0578
     27 H10        -0.7965   -5.9666    1.0742 H         1 <0>         0.1072
     28 H11         0.3649   -5.6219   -0.2310 H         1 <0>         0.0573
     29 H12         0.8173   -4.0803    1.5914 H         1 <0>         0.0881
     30 H13        -0.9005   -3.6122    1.6796 H         1 <0>         0.0743
@<TRIPOS>BOND
     1    1    6 ar
     2    1    2 ar
     3    1   18 1
     4    2    3 ar
     5    2   19 1
     6    3    4 ar
     7    3   20 1
     8    4   11 1
     9    4    5 ar
    10    5    6 ar
    11    5    7 1
    12    6   21 1
    13    7    8 2
    14    7   12 1
    15    8    9 1
    16    8   22 1
    17    9   10 2
    18    9   11 1
    19   12   17 1
    20   12   13 1
    21   13   14 1
    22   13   23 1
    23   13   24 1
    24   14   15 1
    25   14   25 1
    26   14   26 1
    27   15   16 1
    28   16   17 1
    29   16   27 1
    30   16   28 1
    31   17   29 1
    32   17   30 1
@<TRIPOS>MOLECULE
ZINC14559870
   29    33     0     0     0
SMALL
USER_CHARGES
BLAHdione
@<TRIPOS>ATOM
      1 C1          2.9759    3.8341   -0.0061 C.ar      1 <0>        -0.1306
      2 C2          3.3947    2.5120   -0.0172 C.ar      1 <0>        -0.0820
      3 C3          2.4762    1.4841   -0.0141 C.ar      1 <0>        -0.1239
      4 C4          1.1147    1.7679    0.0009 C.ar      1 <0>         0.1193
      5 C5          0.6924    3.1066    0.0122 C.ar      1 <0>        -0.0737
      6 C6          1.6315    4.1362    0.0079 C.ar      1 <0>        -0.0598
      7 C7         -0.7795    3.0713    0.0261 C.2       1 <0>        -0.0973
      8 C8         -1.7990    4.1087    0.0414 C.2       1 <0>        -0.0497
      9 C9         -3.1462    3.7336    0.0523 C.2       1 <0>        -0.1086
     10 C10        -3.4795    2.3163    0.0486 C.2       1 <0>         0.0543
     11 C11        -4.6712    1.6231    0.0559 C.2       1 <0>         0.0240
     12 N1         -4.3815    0.3210    0.0467 N.2       1 <0>        -0.4427
     13 C12        -3.0844    0.1531    0.0340 C.2       1 <0>         0.1648
     14 N2         -2.4751    1.3668    0.0346 N.pl3     1 <0>        -0.3726
     15 C13        -1.1468    1.7293    0.0164 C.2       1 <0>         0.3292
     16 N3         -0.0111    0.9658    0.0074 N.pl3     1 <0>        -0.5765
     17 H1          0.0021   -0.0041    0.0020 H         1 <0>         0.4265
     18 C14        -3.9185    4.9844    0.0660 C.2       1 <0>         0.5909
     19 O1         -5.1307    5.0690    0.0782 O.2       1 <0>        -0.4444
     20 N4         -3.0589    6.0203    0.0632 N.am      1 <0>        -0.6805
     21 C15        -1.7857    5.5831    0.0489 C.2       1 <0>         0.5823
     22 O2         -0.7940    6.2843    0.0435 O.2       1 <0>        -0.4434
     23 H2          3.7061    4.6298   -0.0087 H         1 <0>         0.1343
     24 H3          4.4507    2.2857   -0.0289 H         1 <0>         0.1361
     25 H4          2.8138    0.4582   -0.0228 H         1 <0>         0.1308
     26 H5          1.3071    5.1663    0.0166 H         1 <0>         0.1415
     27 H6         -5.6605    2.0561    0.0675 H         1 <0>         0.1970
     28 H7         -2.5776   -0.8006    0.0246 H         1 <0>         0.2173
     29 H8         -3.3211    6.9542    0.0701 H         1 <0>         0.4374
@<TRIPOS>BOND
     1    1    6 ar
     2    1    2 ar
     3    1   23 1
     4    2    3 ar
     5    2   24 1
     6    3    4 ar
     7    3   25 1
     8    4   16 1
     9    4    5 ar
    10    5    6 ar
    11    5    7 1
    12    6   26 1
    13    7   15 2
    14    7    8 1
    15    8   21 1
    16    8    9 2
    17    9   10 1
    18    9   18 1
    19   10   14 1
    20   10   11 2
    21   11   12 1
    22   11   27 1
    23   12   13 2
    24   13   14 1
    25   13   28 1
    26   14   15 1
    27   15   16 1
    28   16   17 1
    29   18   19 2
    30   18   20 am
    31   20   21 am
    32   20   29 1
    33   21   22 2
@<TRIPOS>MOLECULE
ZINC14559870
   30    34     0     0     0
SMALL
USER_CHARGES
BLAHdione
@<TRIPOS>ATOM
      1 C1          2.9759    3.8341   -0.0061 C.ar      1 <0>        -0.1155
      2 C2          3.3947    2.5120   -0.0172 C.ar      1 <0>        -0.0614
      3 C3          2.4762    1.4841   -0.0141 C.ar      1 <0>        -0.1209
      4 C4          1.1147    1.7679    0.0009 C.ar      1 <0>         0.1295
      5 C5          0.6924    3.1066    0.0122 C.ar      1 <0>        -0.0818
      6 C6          1.6315    4.1362    0.0079 C.ar      1 <0>        -0.0537
      7 C7         -0.7795    3.0713    0.0261 C.2       1 <0>        -0.0524
      8 C8         -1.7990    4.1087    0.0414 C.2       1 <0>         0.0050
      9 C9         -3.1462    3.7336    0.0523 C.2       1 <0>        -0.1377
     10 C10        -3.4795    2.3163    0.0486 C.2       1 <0>         0.1323
     11 C11        -4.6712    1.6231    0.0559 C.2       1 <0>         0.0429
     12 C12        -3.0844    0.1531    0.0340 C.cat     1 <0>         0.2334
     13 N1         -2.4751    1.3668    0.0346 N.pl3     1 <0>        -0.3268
     14 C13        -1.1468    1.7293    0.0164 C.2       1 <0>         0.2979
     15 N2         -0.0111    0.9658    0.0074 N.pl3     1 <0>        -0.5619
     16 H1          0.0021   -0.0041    0.0020 H         1 <0>         0.4329
     17 C14        -3.9185    4.9844    0.0660 C.2       1 <0>         0.5944
     18 O1         -5.1307    5.0690    0.0782 O.2       1 <0>        -0.4333
     19 N3         -3.0589    6.0203    0.0632 N.am      1 <0>        -0.6713
     20 C15        -1.7857    5.5831    0.0489 C.2       1 <0>         0.5749
     21 O2         -0.7940    6.2843    0.0435 O.2       1 <0>        -0.4148
     22 H2          3.7061    4.6298   -0.0087 H         1 <0>         0.1452
     23 H3          4.4507    2.2857   -0.0289 H         1 <0>         0.1471
     24 H4          2.8138    0.4582   -0.0228 H         1 <0>         0.1400
     25 H5          1.3071    5.1663    0.0166 H         1 <0>         0.1485
     26 H6         -5.6605    2.0561    0.0675 H         1 <0>         0.2436
     27 H7         -2.5776   -0.8006    0.0246 H         1 <0>         0.2642
     28 H8         -3.3211    6.9542    0.0701 H         1 <0>         0.4480
     29 N4         -4.3834    0.3189    0.0467 N.pl3     1 <0>        -0.4408
     30 H9         -5.0759   -0.4391    0.0492 H         1 <0>         0.4927
@<TRIPOS>BOND
     1    1    6 ar
     2    1    2 ar
     3    1   22 1
     4    2    3 ar
     5    2   23 1
     6    3    4 ar
     7    3   24 1
     8    4   15 1
     9    4    5 ar
    10    5    6 ar
    11    5    7 1
    12    6   25 1
    13    7   14 2
    14    7    8 1
    15    8   20 1
    16    8    9 2
    17    9   10 1
    18    9   17 1
    19   10   13 1
    20   10   11 2
    21   11   26 1
    22   11   29 1
    23   12   13 1
    24   12   27 1
    25   12   29 2
    26   13   14 1
    27   14   15 1
    28   15   16 1
    29   17   18 2
    30   17   19 am
    31   19   20 am
    32   19   28 1
    33   20   21 2
    34   29   30 1
@<TRIPOS>MOLECULE
ZINC01619592
   55    59     0     0     0
SMALL
USER_CHARGES

@<TRIPOS>ATOM
      1 C1         -0.0184    1.5028    0.0103 C.3       1 <0>        -0.1511
      2 C2          0.0021   -0.0041    0.0020 C.2       1 <0>         0.4597
      3 O1          1.0565   -0.5939   -0.0112 O.2       1 <0>        -0.4999
      4 O2         -1.1511   -0.6910    0.0093 O.3       1 <0>        -0.3474
      5 C3         -1.0568   -2.1201    0.0008 C.3       1 <0>         0.1219
      6 H1         -0.1268   -2.3839    0.5135 H         1 <0>         0.1078
      7 C4         -0.9300   -2.5524   -1.4583 C.3       1 <0>        -0.1184
      8 C5         -1.5070   -3.9418   -1.6157 C.3       1 <0>        -0.1187
      9 C6         -3.0076   -3.8238   -1.2599 C.3       1 <0>        -0.0498
     10 H2         -3.4688   -3.0269   -1.8517 H         1 <0>         0.1063
     11 C7         -3.5424   -5.1804   -1.7235 C.3       1 <0>        -0.1009
     12 C8         -2.7629   -5.4191   -3.0462 C.3       1 <0>        -0.1830
     13 C9         -1.5465   -4.4997   -3.0127 C.2       1 <0>         0.3855
     14 O3         -0.7805   -4.2605   -3.9130 O.2       1 <0>        -0.4254
     15 C10        -3.1349   -3.4967    0.1921 C.2       1 <0>        -0.1113
     16 C11        -2.2157   -2.7096    0.7678 C.2       1 <0>        -0.0220
     17 C12        -2.2470   -2.4186    2.2520 C.3       1 <0>        -0.0027
     18 C13        -3.5419   -2.8944    2.8428 C.2       1 <0>        -0.1255
     19 C14        -4.0137   -2.4591    4.1090 C.2       1 <0>        -0.2743
     20 C15        -5.1338   -3.1850    4.3420 C.2       1 <0>         0.1107
     21 O4         -5.3667   -3.9750    3.2644 O.3       1 <0>        -0.1272
     22 C16        -4.4651   -3.7201    2.3152 C.2       1 <0>        -0.0593
     23 C17        -4.2994   -4.0888    0.9041 C.2       1 <0>         0.4739
     24 O5         -5.0852   -4.8388    0.3501 O.2       1 <0>        -0.4050
     25 C18        -3.2587   -1.3792    4.7707 C.2       1 <0>         0.5710
     26 O6         -3.4416   -1.0831    5.9367 O.2       1 <0>        -0.4406
     27 O7         -2.3673   -0.7035    4.0022 O.3       1 <0>        -0.3342
     28 C19        -2.1782   -0.9381    2.6104 C.3       1 <0>         0.1418
     29 H3         -1.2274   -0.5290    2.3161 H         1 <0>         0.1331
     30 C20        -3.3080   -0.2057    1.8834 C.3       1 <0>         0.0325
     31 O8         -3.1902    1.1997    2.1137 O.3       1 <0>        -0.3752
     32 C21        -4.2027    1.9802    1.4751 C.3       1 <0>         0.0299
     33 C22        -1.0932   -3.1555    2.9462 C.3       1 <0>        -0.1410
     34 C23        -0.7898   -4.9340   -0.7021 C.3       1 <0>        -0.1431
     35 H4          1.0042    1.8801    0.0026 H         1 <0>         0.1053
     36 H5         -0.5455    1.8639   -0.8728 H         1 <0>         0.1024
     37 H6         -0.5286    1.8543    0.9071 H         1 <0>         0.1090
     38 H7         -1.4691   -1.8509   -2.0999 H         1 <0>         0.0889
     39 H8          0.1251   -2.5564   -1.7479 H         1 <0>         0.0943
     40 H9         -3.3312   -5.9617   -0.9953 H         1 <0>         0.0820
     41 H10        -4.6154   -5.1243   -1.9164 H         1 <0>         0.0922
     42 H11        -2.4449   -6.4590   -3.1085 H         1 <0>         0.1059
     43 H12        -3.3960   -5.1755   -3.9005 H         1 <0>         0.1025
     44 H13        -5.7345   -3.1423    5.2384 H         1 <0>         0.2359
     45 H14        -3.2413   -0.4054    0.8139 H         1 <0>         0.0819
     46 H15        -4.2692   -0.5562    2.2593 H         1 <0>         0.0526
     47 H16        -4.0433    3.0351    1.6985 H         1 <0>         0.0920
     48 H17        -4.1546    1.8258    0.3972 H         1 <0>         0.0450
     49 H18        -5.1825    1.6750    1.8425 H         1 <0>         0.0405
     50 H19        -0.1439   -2.8172    2.5309 H         1 <0>         0.0813
     51 H20        -1.1181   -2.9442    4.0152 H         1 <0>         0.0779
     52 H21        -1.1983   -4.2284    2.7854 H         1 <0>         0.0788
     53 H22        -0.9157   -4.6281    0.3365 H         1 <0>         0.0689
     54 H23        -1.2137   -5.9285   -0.8418 H         1 <0>         0.0723
     55 H24         0.2717   -4.9535   -0.9490 H         1 <0>         0.0724
@<TRIPOS>BOND
     1    1    2 1
     2    1   35 1
     3    1   36 1
     4    1   37 1
     5    2    3 2
     6    2    4 1
     7    4    5 1
     8    5    6 1
     9    5   16 1
    10    5    7 1
    11    7    8 1
    12    7   38 1
    13    7   39 1
    14    8   13 1
    15    8    9 1
    16    8   34 1
    17    9   10 1
    18    9   11 1
    19    9   15 1
    20   11   12 1
    21   11   40 1
    22   11   41 1
    23   12   13 1
    24   12   42 1
    25   12   43 1
    26   13   14 2
    27   15   23 1
    28   15   16 2
    29   16   17 1
    30   17   28 1
    31   17   18 1
    32   17   33 1
    33   18   22 2
    34   18   19 1
    35   19   20 2
    36   19   25 1
    37   20   21 1
    38   20   44 1
    39   21   22 1
    40   22   23 1
    41   23   24 2
    42   25   26 2
    43   25   27 1
    44   27   28 1
    45   28   29 1
    46   28   30 1
    47   30   31 1
    48   30   45 1
    49   30   46 1
    50   31   32 1
    51   32   47 1
    52   32   48 1
    53   32   49 1
    54   33   50 1
    55   33   51 1
    56   33   52 1
    57   34   53 1
    58   34   54 1
    59   34   55 1
@<TRIPOS>MOLECULE
ZINC35052131
   38    40     0     0     0
SMALL
USER_CHARGES

@<TRIPOS>ATOM
      1 C1          4.8142    1.4607   -3.5287 C.ar      1 <0>        -0.0870
      2 C2          4.4311    2.1487   -2.3909 C.ar      1 <0>        -0.1353
      3 C3          4.0666    1.4584   -1.2537 C.ar      1 <0>        -0.0633
      4 C4          4.0847    0.0623   -1.2524 C.ar      1 <0>        -0.1617
      5 C5          4.4723   -0.6257   -2.4040 C.ar      1 <0>        -0.0546
      6 C6          4.8344    0.0771   -3.5343 C.ar      1 <0>        -0.1361
      7 C7          3.6957   -0.6843   -0.0371 C.2       1 <0>         0.4591
      8 O1          3.4453   -0.0844    0.9911 O.2       1 <0>        -0.4478
      9 C8          3.6115   -2.1523   -0.0712 C.ar      1 <0>        -0.2383
     10 C9          2.3625   -2.7837   -0.1171 C.ar      1 <0>        -0.0148
     11 C10         2.2850   -4.1452   -0.1487 C.ar      1 <0>        -0.2069
     12 C11         3.4460   -4.9178   -0.1351 C.ar      1 <0>         0.2546
     13 C12         4.6932   -4.3067   -0.0897 C.ar      1 <0>        -0.2332
     14 C13         4.7842   -2.9265   -0.0637 C.ar      1 <0>         0.1923
     15 O2          5.9988   -2.3238   -0.0254 O.3       1 <0>        -0.4937
     16 N1          3.3552   -6.3044   -0.1667 N.pl3     1 <0>        -0.6240
     17 C14         2.0577   -6.9747   -0.3468 C.3       1 <0>         0.0823
     18 C15         2.1967   -8.0018   -1.4762 C.3       1 <0>         0.0455
     19 O3          3.3167   -8.8485   -1.2072 O.3       1 <0>        -0.3778
     20 C16         4.5713   -8.1643   -1.1668 C.3       1 <0>         0.0455
     21 C17         4.5547   -7.1454   -0.0271 C.3       1 <0>         0.0810
     22 H1          5.0944    2.0060   -4.4178 H         1 <0>         0.1271
     23 H2          4.4179    3.2286   -2.3931 H         1 <0>         0.1292
     24 H3          3.7681    1.9966   -0.3661 H         1 <0>         0.1324
     25 H4          4.4888   -1.7055   -2.4096 H         1 <0>         0.1287
     26 H5          5.1344   -0.4538   -4.4258 H         1 <0>         0.1279
     27 H6          1.4591   -2.1919   -0.1272 H         1 <0>         0.1308
     28 H7          1.3193   -4.6276   -0.1841 H         1 <0>         0.1316
     29 H8          5.5901   -4.9082   -0.0790 H         1 <0>         0.1357
     30 H9          6.3327   -2.1682    0.8687 H         1 <0>         0.3976
     31 H10         1.7744   -7.4803    0.5764 H         1 <0>         0.0757
     32 H11         1.2980   -6.2390   -0.6110 H         1 <0>         0.0961
     33 H12         1.2903   -8.6044   -1.5339 H         1 <0>         0.1079
     34 H13         2.3510   -7.4835   -2.4226 H         1 <0>         0.0574
     35 H14         5.3733   -8.8838   -1.0019 H         1 <0>         0.1079
     36 H15         4.7343   -7.6466   -2.1121 H         1 <0>         0.0571
     37 H16         5.4477   -6.5227   -0.0798 H         1 <0>         0.0955
     38 H17         4.5271   -7.6685    0.9288 H         1 <0>         0.0756
@<TRIPOS>BOND
     1    1    6 ar
     2    1    2 ar
     3    1   22 1
     4    2    3 ar
     5    2   23 1
     6    3    4 ar
     7    3   24 1
     8    4    5 ar
     9    4    7 1
    10    5    6 ar
    11    5   25 1
    12    6   26 1
    13    7    8 2
    14    7    9 1
    15    9   14 ar
    16    9   10 ar
    17   10   11 ar
    18   10   27 1
    19   11   12 ar
    20   11   28 1
    21   12   13 ar
    22   12   16 1
    23   13   14 ar
    24   13   29 1
    25   14   15 1
    26   15   30 1
    27   16   21 1
    28   16   17 1
    29   17   18 1
    30   17   31 1
    31   17   32 1
    32   18   19 1
    33   18   33 1
    34   18   34 1
    35   19   20 1
    36   20   21 1
    37   20   35 1
    38   20   36 1
    39   21   37 1
    40   21   38 1
@<TRIPOS>MOLECULE
ZINC16052714
   62    67     0     0     0
SMALL
USER_CHARGES

@<TRIPOS>ATOM
      1 C1         -1.2179    0.3618   -0.7929 C.3       1 <0>        -0.6727
      2 S1         -0.8608   -1.4165   -0.7657 S.o2      1 <0>         2.6086
      3 O1         -0.0554   -1.7368    0.3604 O.2       1 <0>        -0.9532
      4 O2         -2.0406   -2.1570   -1.0467 O.2       1 <0>        -0.9539
      5 N1          0.1211   -1.6734   -2.0742 N.pl3     1 <0>        -1.0033
      6 C2         -0.4464   -1.9994   -3.3914 C.3       1 <0>         0.1224
      7 C3          0.2528   -3.2539   -3.9258 C.3       1 <0>         0.0451
      8 N2          1.7067   -3.0443   -3.9105 N.3       1 <0>        -0.5316
      9 C4          2.2031   -2.8527   -2.5412 C.3       1 <0>         0.0371
     10 C5          1.5835   -1.5758   -1.9515 C.3       1 <0>         0.1234
     11 C6          2.4055   -4.1534   -4.5734 C.3       1 <0>         0.1300
     12 C7          3.8574   -3.7940   -4.7575 C.2       1 <0>        -0.0864
     13 C8          4.8850   -4.0220   -3.9198 C.2       1 <0>        -0.1471
     14 C9          6.2159   -3.5887   -4.2968 C.ar      1 <0>         0.2076
     15 C10         6.2960   -2.9484   -5.5522 C.ar      1 <0>        -0.3029
     16 S2          4.6250   -2.9718   -6.1413 S.3       1 <0>         0.1024
     17 C11         7.5058   -2.4811   -6.0423 C.ar      1 <0>         0.5055
     18 N3          8.5981   -2.6496   -5.2999 N.ar      1 <0>        -0.5559
     19 C12         8.5129   -3.2543   -4.1181 C.ar      1 <0>         0.4114
     20 N4          7.3823   -3.7111   -3.6207 N.ar      1 <0>        -0.5253
     21 C13         9.7506   -3.4228   -3.3231 C.ar      1 <0>         0.0278
     22 C14        10.9622   -2.9521   -3.8074 C.ar      1 <0>        -0.1016
     23 C15        12.1227   -3.1090   -3.0655 C.ar      1 <0>        -0.0792
     24 C16        12.0948   -3.7329   -1.8377 C.ar      1 <0>        -0.1198
     25 C17        10.8933   -4.2156   -1.3259 C.ar      1 <0>         0.1177
     26 C18         9.7061   -4.0584   -2.0641 C.ar      1 <0>        -0.1364
     27 C19         8.6656   -4.6312   -1.2987 C.2       1 <0>         0.0923
     28 N5          9.1685   -5.0916   -0.1893 N.2       1 <0>        -0.2546
     29 N6         10.5502   -4.8651   -0.1671 N.pl3     1 <0>        -0.5083
     30 H1         11.1568   -5.1130    0.5481 H         1 <0>         0.4418
     31 N7          7.5766   -1.8539   -7.2757 N.pl3     1 <0>        -0.5948
     32 C20         6.3563   -1.5252   -8.0294 C.3       1 <0>         0.0878
     33 C21         6.4273   -0.0515   -8.4456 C.3       1 <0>         0.0500
     34 O3          7.6692    0.1903   -9.1113 O.3       1 <0>        -0.3752
     35 C22         8.8226   -0.0241   -8.2943 C.3       1 <0>         0.0453
     36 C23         8.8740   -1.4913   -7.8678 C.3       1 <0>         0.0863
     37 H2         -0.2856    0.9209   -0.7133 H         1 <0>         0.1276
     38 H3         -1.7166    0.6180   -1.7276 H         1 <0>         0.1278
     39 H4         -1.8661    0.6151    0.0461 H         1 <0>         0.1284
     40 H5         -1.5151   -2.1898   -3.2927 H         1 <0>         0.1007
     41 H6         -0.2815   -1.1682   -4.0770 H         1 <0>         0.0790
     42 H7          0.0016   -4.1068   -3.2953 H         1 <0>         0.0472
     43 H8         -0.0762   -3.4465   -4.9469 H         1 <0>         0.0927
     44 H9          1.9247   -3.7112   -1.9300 H         1 <0>         0.0475
     45 H10         3.2885   -2.7545   -2.5582 H         1 <0>         0.0918
     46 H11         1.9397   -0.7046   -2.5013 H         1 <0>         0.0780
     47 H12         1.8575   -1.4860   -0.9003 H         1 <0>         0.0997
     48 H13         2.3283   -5.0505   -3.9590 H         1 <0>         0.0677
     49 H14         1.9510   -4.3394   -5.5465 H         1 <0>         0.1006
     50 H15         4.7202   -4.5219   -2.9767 H         1 <0>         0.1479
     51 H16        11.0018   -2.4609   -4.7683 H         1 <0>         0.1410
     52 H17        13.0593   -2.7381   -3.4547 H         1 <0>         0.1377
     53 H18        13.0070   -3.8483   -1.2711 H         1 <0>         0.1302
     54 H19         7.6256   -4.6789   -1.5860 H         1 <0>         0.2037
     55 H20         6.2923   -2.1546   -8.9170 H         1 <0>         0.0878
     56 H21         5.4812   -1.6871   -7.4000 H         1 <0>         0.0911
     57 H22         5.6022    0.1764   -9.1203 H         1 <0>         0.1135
     58 H23         6.3598    0.5805   -7.5601 H         1 <0>         0.0595
     59 H24         9.7207    0.2235   -8.8601 H         1 <0>         0.1116
     60 H25         8.7638    0.6080   -7.4083 H         1 <0>         0.0581
     61 H26         9.6654   -1.6309   -7.1314 H         1 <0>         0.1107
     62 H27         9.0678   -2.1173   -8.7388 H         1 <0>         0.0783
@<TRIPOS>BOND
     1    1    2 1
     2    1   37 1
     3    1   38 1
     4    1   39 1
     5    2    3 2
     6    2    4 2
     7    2    5 1
     8    5   10 1
     9    5    6 1
    10    6    7 1
    11    6   40 1
    12    6   41 1
    13    7    8 1
    14    7   42 1
    15    7   43 1
    16    8    9 1
    17    8   11 1
    18    9   10 1
    19    9   44 1
    20    9   45 1
    21   10   46 1
    22   10   47 1
    23   11   12 1
    24   11   48 1
    25   11   49 1
    26   12   16 1
    27   12   13 2
    28   13   14 1
    29   13   50 1
    30   14   20 ar
    31   14   15 ar
    32   15   16 1
    33   15   17 ar
    34   17   18 ar
    35   17   31 1
    36   18   19 ar
    37   19   20 ar
    38   19   21 1
    39   21   26 ar
    40   21   22 ar
    41   22   23 ar
    42   22   51 1
    43   23   24 ar
    44   23   52 1
    45   24   25 ar
    46   24   53 1
    47   25   29 1
    48   25   26 ar
    49   26   27 1
    50   27   28 2
    51   27   54 1
    52   28   29 1
    53   29   30 1
    54   31   36 1
    55   31   32 1
    56   32   33 1
    57   32   55 1
    58   32   56 1
    59   33   34 1
    60   33   57 1
    61   33   58 1
    62   34   35 1
    63   35   36 1
    64   35   59 1
    65   35   60 1
    66   36   61 1
    67   36   62 1
@<TRIPOS>MOLECULE
ZINC16052714
   63    68     0     0     0
SMALL
USER_CHARGES

@<TRIPOS>ATOM
      1 C1         -1.2288    0.3975   -0.8157 C.3       1 <0>        -0.6666
      2 S1         -0.8705   -1.3801   -0.7668 S.o2      1 <0>         2.6057
      3 O1         -0.0610   -1.6854    0.3604 O.2       1 <0>        -0.9385
      4 O2         -2.0509   -2.1248   -1.0340 O.2       1 <0>        -0.9391
      5 N1          0.1069   -1.6534   -2.0754 N.pl3     1 <0>        -1.0167
      6 C2         -0.4638   -1.9967   -3.3871 C.3       1 <0>         0.0929
      7 C3          0.2495   -3.2458   -3.9152 C.3       1 <0>        -0.0180
      8 N2          1.6991   -3.0122   -3.9273 N.4       1 <0>        -0.3841
      9 C4          2.1876   -2.8289   -2.5547 C.3       1 <0>        -0.0264
     10 C5          1.5701   -1.5537   -1.9606 C.3       1 <0>         0.0955
     11 C6          2.3742   -4.1665   -4.5353 C.3       1 <0>         0.0906
     12 C7          3.8480   -3.8777   -4.6608 C.2       1 <0>        -0.2191
     13 C8          4.8258   -4.1336   -3.7730 C.2       1 <0>        -0.0705
     14 C9          6.1908   -3.7698   -4.0981 C.ar      1 <0>         0.1897
     15 C10         6.3561   -3.1619   -5.3612 C.ar      1 <0>        -0.2890
     16 S2          4.7135   -3.1223   -6.0247 S.3       1 <0>         0.1250
     17 C11         7.6068   -2.7612   -5.8054 C.ar      1 <0>         0.5074
     18 N3          8.6561   -2.9627   -5.0111 N.ar      1 <0>        -0.5423
     19 C12         8.4906   -3.5364   -3.8224 C.ar      1 <0>         0.4316
     20 N4          7.3192   -3.9301   -3.3675 N.ar      1 <0>        -0.5198
     21 C13         9.6828   -3.7434   -2.9689 C.ar      1 <0>         0.0088
     22 C14        10.9352   -3.3393   -3.4073 C.ar      1 <0>        -0.0901
     23 C15        12.0531   -3.5322   -2.6106 C.ar      1 <0>        -0.0812
     24 C16        11.9420   -4.1268   -1.3730 C.ar      1 <0>        -0.1070
     25 C17        10.6979   -4.5428   -0.9064 C.ar      1 <0>         0.1172
     26 C18         9.5531   -4.3482   -1.7007 C.ar      1 <0>        -0.1343
     27 C19         8.4542   -4.8558   -0.9717 C.2       1 <0>         0.0841
     28 N5          8.8856   -5.3138    0.1684 N.2       1 <0>        -0.2483
     29 N6         10.2740   -5.1500    0.2485 N.pl3     1 <0>        -0.5025
     30 H1         10.8361   -5.4093    0.9953 H         1 <0>         0.4451
     31 N7          7.7612   -2.1655   -7.0467 N.pl3     1 <0>        -0.5896
     32 C20         6.5921   -1.7984   -7.8614 C.3       1 <0>         0.0915
     33 C21         6.7499   -0.3391   -8.3036 C.3       1 <0>         0.0496
     34 O3          8.0299   -0.1690   -8.9171 O.3       1 <0>        -0.3699
     35 C22         9.1348   -0.4174   -8.0446 C.3       1 <0>         0.0446
     36 C23         9.0990   -1.8756   -7.5867 C.3       1 <0>         0.0824
     37 H2         -0.2965    0.9581   -0.7467 H         1 <0>         0.1315
     38 H3         -1.7309    0.6413   -1.7519 H         1 <0>         0.1318
     39 H4         -1.8742    0.6613    0.0221 H         1 <0>         0.1388
     40 H5         -1.5292   -2.2006   -3.2810 H         1 <0>         0.1421
     41 H6         -0.3136   -1.1687   -4.0800 H         1 <0>         0.0993
     42 H7          0.0234   -4.0939   -3.2689 H         1 <0>         0.1407
     43 H8         -0.0927   -3.4589   -4.9279 H         1 <0>         0.1486
     44 H9          1.9028   -3.6897   -1.9496 H         1 <0>         0.1416
     45 H10         3.2735   -2.7349   -2.5649 H         1 <0>         0.1425
     46 H11         1.9222   -0.6817   -2.5118 H         1 <0>         0.0986
     47 H12         1.8499   -1.4646   -0.9109 H         1 <0>         0.1411
     48 H13         2.2283   -5.0452   -3.9071 H         1 <0>         0.1533
     49 H14         1.9551   -4.3531   -5.5241 H         1 <0>         0.1519
     50 H15         4.5964   -4.6044   -2.8284 H         1 <0>         0.1590
     51 H16        11.0401   -2.8718   -4.3752 H         1 <0>         0.1422
     52 H17        13.0223   -3.2131   -2.9644 H         1 <0>         0.1420
     53 H18        12.8219   -4.2709   -0.7635 H         1 <0>         0.1349
     54 H19         7.4269   -4.8625   -1.3048 H         1 <0>         0.2003
     55 H20         6.5382   -2.4438   -8.7381 H         1 <0>         0.0941
     56 H21         5.6834   -1.9063   -7.2691 H         1 <0>         0.0802
     57 H22         5.9669   -0.0889   -9.0194 H         1 <0>         0.1156
     58 H23         6.6727    0.3149   -7.4350 H         1 <0>         0.0597
     59 H24        10.0676   -0.2236   -8.5741 H         1 <0>         0.1177
     60 H25         9.0663    0.2363   -7.1751 H         1 <0>         0.0604
     61 H26         9.8497   -2.0346   -6.8126 H         1 <0>         0.1144
     62 H27         9.3019   -2.5290   -8.4352 H         1 <0>         0.0852
     63 H28         1.9007   -2.1845   -4.4680 H         1 <0>         0.4244
@<TRIPOS>BOND
     1    1    2 1
     2    1   37 1
     3    1   38 1
     4    1   39 1
     5    2    3 2
     6    2    4 2
     7    2    5 1
     8    5   10 1
     9    5    6 1
    10    6    7 1
    11    6   40 1
    12    6   41 1
    13    7    8 1
    14    7   42 1
    15    7   43 1
    16    8    9 1
    17    8   11 1
    18    8   63 1
    19    9   10 1
    20    9   44 1
    21    9   45 1
    22   10   46 1
    23   10   47 1
    24   11   12 1
    25   11   48 1
    26   11   49 1
    27   12   16 1
    28   12   13 2
    29   13   14 1
    30   13   50 1
    31   14   20 ar
    32   14   15 ar
    33   15   16 1
    34   15   17 ar
    35   17   18 ar
    36   17   31 1
    37   18   19 ar
    38   19   20 ar
    39   19   21 1
    40   21   26 ar
    41   21   22 ar
    42   22   23 ar
    43   22   51 1
    44   23   24 ar
    45   23   52 1
    46   24   25 ar
    47   24   53 1
    48   25   29 1
    49   25   26 ar
    50   26   27 1
    51   27   28 2
    52   27   54 1
    53   28   29 1
    54   29   30 1
    55   31   36 1
    56   31   32 1
    57   32   33 1
    58   32   55 1
    59   32   56 1
    60   33   34 1
    61   33   57 1
    62   33   58 1
    63   34   35 1
    64   35   36 1
    65   35   59 1
    66   35   60 1
    67   36   61 1
    68   36   62 1
@<TRIPOS>MOLECULE
ZINC37858693
   41    44     0     0     0
SMALL
USER_CHARGES

@<TRIPOS>ATOM
      1 C1          0.5160    2.1016    0.8389 C.ar      1 <0>        -0.0994
      2 C2          1.7856    2.6500    0.8665 C.ar      1 <0>        -0.1121
      3 C3          2.8922    1.8441    0.6914 C.ar      1 <0>        -0.0943
      4 C4          2.7287    0.4752    0.4869 C.ar      1 <0>        -0.0732
      5 C5          1.4472   -0.0719    0.4605 C.ar      1 <0>        -0.1006
      6 C6          0.3478    0.7436    0.6363 C.ar      1 <0>        -0.1173
      7 C7          3.9141   -0.3959    0.2976 C.ar      1 <0>        -0.0335
      8 C8          4.8973   -0.0477   -0.6237 C.ar      1 <0>        -0.0260
      9 C9          6.0057   -0.8554   -0.8057 C.ar      1 <0>        -0.1150
     10 C10         6.1509   -2.0173   -0.0765 C.ar      1 <0>        -0.0276
     11 C11         5.1749   -2.3827    0.8521 C.ar      1 <0>        -0.1580
     12 C12         4.0513   -1.5679    1.0483 C.ar      1 <0>         0.1530
     13 O1          3.1107   -1.9210    1.9513 O.3       1 <0>        -0.2119
     14 C13         3.2233   -3.0458    2.6842 C.2       1 <0>         0.5161
     15 C14         4.3307   -3.9124    2.5453 C.2       1 <0>        -0.3925
     16 C15         5.3074   -3.6191    1.6424 C.2       1 <0>         0.3444
     17 O2          6.3792   -4.4322    1.4880 O.3       1 <0>        -0.4181
     18 N1          2.2825   -3.3434    3.5479 N.pl3     1 <0>        -0.4926
     19 C16         2.4343   -4.4783    4.4722 C.3       1 <0>         0.0520
     20 C17         2.1323   -3.9883    5.8930 C.3       1 <0>         0.0436
     21 O3          0.8653   -3.3262    5.9032 O.3       1 <0>        -0.3612
     22 C18         0.8098   -2.1560    5.0839 C.3       1 <0>         0.0453
     23 C19         1.0465   -2.5487    3.6254 C.3       1 <0>         0.0388
     24 H1         -0.3469    2.7354    0.9805 H         1 <0>         0.1315
     25 H2          1.9111    3.7109    1.0251 H         1 <0>         0.1335
     26 H3          3.8830    2.2735    0.7124 H         1 <0>         0.1299
     27 H4          1.3146   -1.1320    0.3020 H         1 <0>         0.1182
     28 H5         -0.6458    0.3207    0.6159 H         1 <0>         0.1304
     29 H6          4.7942    0.8593   -1.2010 H         1 <0>         0.1606
     30 H7          6.7620   -0.5746   -1.5237 H         1 <0>         0.1586
     31 H8          7.0184   -2.6435   -0.2242 H         1 <0>         0.1605
     32 H9          4.3974   -4.8082    3.1449 H         1 <0>         0.1871
     33 H10         1.7353   -5.2692    4.2004 H         1 <0>         0.1243
     34 H11         3.4552   -4.8572    4.4238 H         1 <0>         0.1224
     35 H12         2.1038   -4.8394    6.5733 H         1 <0>         0.1345
     36 H13         2.9091   -3.2929    6.2111 H         1 <0>         0.0713
     37 H14        -0.1702   -1.6889    5.1820 H         1 <0>         0.1322
     38 H15         1.5817   -1.4539    5.3990 H         1 <0>         0.0698
     39 H16         1.1488   -1.6504    3.0165 H         1 <0>         0.1219
     40 H17         0.2054   -3.1421    3.2669 H         1 <0>         0.1210
     41 H18         6.3643   -5.2148    2.0559 H         1 <0>         0.4327
@<TRIPOS>BOND
     1    1    6 ar
     2    1    2 ar
     3    1   24 1
     4    2    3 ar
     5    2   25 1
     6    3    4 ar
     7    3   26 1
     8    4    5 ar
     9    4    7 1
    10    5    6 ar
    11    5   27 1
    12    6   28 1
    13    7   12 ar
    14    7    8 ar
    15    8    9 ar
    16    8   29 1
    17    9   10 ar
    18    9   30 1
    19   10   11 ar
    20   10   31 1
    21   11   16 1
    22   11   12 ar
    23   12   13 1
    24   13   14 1
    25   14   15 1
    26   14   18 2
    27   15   16 2
    28   15   32 1
    29   16   17 1
    30   17   41 1
    31   18   23 1
    32   18   19 1
    33   19   20 1
    34   19   33 1
    35   19   34 1
    36   20   21 1
    37   20   35 1
    38   20   36 1
    39   21   22 1
    40   22   23 1
    41   22   37 1
    42   22   38 1
    43   23   39 1
    44   23   40 1
@<TRIPOS>MOLECULE
ZINC37858693
   40    43     0     0     0
SMALL
USER_CHARGES

@<TRIPOS>ATOM
      1 C1          0.2876    1.8369    0.5003 C.ar      1 <0>        -0.1138
      2 C2          1.5256    2.4537    0.5196 C.ar      1 <0>        -0.1178
      3 C3          2.6766    1.7000    0.4106 C.ar      1 <0>        -0.1031
      4 C4          2.5899    0.3150    0.2813 C.ar      1 <0>        -0.0464
      5 C5          1.3398   -0.3010    0.2629 C.ar      1 <0>        -0.0972
      6 C6          0.1955    0.4627    0.3722 C.ar      1 <0>        -0.1190
      7 C7          3.8233   -0.5002    0.1633 C.ar      1 <0>        -0.0659
      8 C8          4.8057   -0.1521   -0.7576 C.ar      1 <0>        -0.0509
      9 C9          5.9596   -0.9073   -0.8735 C.ar      1 <0>        -0.1421
     10 C10         6.1511   -2.0171   -0.0767 C.ar      1 <0>        -0.0303
     11 C11         5.1771   -2.3805    0.8515 C.ar      1 <0>        -0.2132
     12 C12         4.0070   -1.6203    0.9822 C.ar      1 <0>         0.1636
     13 O1          3.0722   -1.9773    1.8869 O.3       1 <0>        -0.2401
     14 C13         3.2188   -3.0440    2.6844 C.2       1 <0>         0.4332
     15 C14         4.3202   -3.8451    2.6409 C.2       1 <0>        -0.4014
     16 C15         5.3485   -3.5630    1.7210 C.2       1 <0>         0.4330
     17 O2          6.3487   -4.2595    1.6546 O.2       1 <0>        -0.4871
     18 N1          2.2228   -3.3404    3.5787 N.pl3     1 <0>        -0.6054
     19 C16         2.5307   -3.9598    4.8776 C.3       1 <0>         0.0933
     20 C17         1.8423   -3.1437    5.9776 C.3       1 <0>         0.0440
     21 O3          0.4569   -2.9961    5.6571 O.3       1 <0>        -0.3749
     22 C18         0.2096   -2.2766    4.4468 C.3       1 <0>         0.0453
     23 C19         0.8149   -3.0430    3.2707 C.3       1 <0>         0.0807
     24 H1         -0.6104    2.4302    0.5900 H         1 <0>         0.1241
     25 H2          1.5916    3.5270    0.6198 H         1 <0>         0.1260
     26 H3          3.6427    2.1826    0.4251 H         1 <0>         0.1253
     27 H4          1.2668   -1.3738    0.1627 H         1 <0>         0.1192
     28 H5         -0.7737   -0.0136    0.3580 H         1 <0>         0.1249
     29 H6          4.6668    0.7142   -1.3874 H         1 <0>         0.1424
     30 H7          6.7148   -0.6263   -1.5926 H         1 <0>         0.1401
     31 H8          7.0533   -2.6030   -0.1722 H         1 <0>         0.1447
     32 H9          4.4000   -4.6957    3.3015 H         1 <0>         0.1539
     33 H10         2.1587   -4.9842    4.8932 H         1 <0>         0.0888
     34 H11         3.6087   -3.9576    5.0390 H         1 <0>         0.1017
     35 H12         1.9421   -3.6615    6.9316 H         1 <0>         0.1144
     36 H13         2.3070   -2.1601    6.0461 H         1 <0>         0.0589
     37 H14        -0.8652   -2.1705    4.2994 H         1 <0>         0.1109
     38 H15         0.6683   -1.2898    4.5097 H         1 <0>         0.0586
     39 H16         0.7573   -2.4341    2.3685 H         1 <0>         0.0961
     40 H17         0.2673   -3.9736    3.1217 H         1 <0>         0.0853
@<TRIPOS>BOND
     1    1    6 ar
     2    1    2 ar
     3    1   24 1
     4    2    3 ar
     5    2   25 1
     6    3    4 ar
     7    3   26 1
     8    4    5 ar
     9    4    7 1
    10    5    6 ar
    11    5   27 1
    12    6   28 1
    13    7   12 ar
    14    7    8 ar
    15    8    9 ar
    16    8   29 1
    17    9   10 ar
    18    9   30 1
    19   10   11 ar
    20   10   31 1
    21   11   16 1
    22   11   12 ar
    23   12   13 1
    24   13   14 1
    25   14   15 2
    26   14   18 1
    27   15   16 1
    28   15   32 1
    29   16   17 2
    30   18   23 1
    31   18   19 1
    32   19   20 1
    33   19   33 1
    34   19   34 1
    35   20   21 1
    36   20   35 1
    37   20   36 1
    38   21   22 1
    39   22   23 1
    40   22   37 1
    41   22   38 1
    42   23   39 1
    43   23   40 1
