@<TRIPOS>MOLECULE
ZINC26816145
   50    51     0     0     0
SMALL
USER_CHARGES

@<TRIPOS>ATOM
      1 C1         -1.5727    1.1561    1.0004 C.3       1 <0>        -0.1497
      2 C2         -1.1984   -0.3112    0.7814 C.3       1 <0>         0.0652
      3 O1         -0.2200   -0.7023    1.7467 O.3       1 <0>        -0.3341
      4 C3          0.2199   -1.9749    1.6909 C.2       1 <0>         0.4737
      5 C4          1.1632   -2.4179    2.5920 C.2       1 <0>        -0.3954
      6 C5          1.6280   -1.5463    3.7454 C.3       1 <0>         0.0742
      7 H1          2.0385   -0.6250    3.3321 H         1 <0>         0.0316
      8 C6          2.6707   -2.1613    4.6609 C.2       1 <0>        -0.3789
      9 C7          3.0958   -3.4268    4.3741 C.2       1 <0>         0.2801
     10 N1          2.6324   -4.1149    3.3419 N.2       1 <0>        -0.6482
     11 C8          1.7291   -3.6898    2.4883 C.2       1 <0>         0.3106
     12 C9          1.2968   -4.5962    1.3646 C.3       1 <0>        -0.0927
     13 C10         4.1310   -4.0638    5.2650 C.3       1 <0>        -0.1135
     14 C11         3.1806   -1.4537    5.7635 C.2       1 <0>         0.5267
     15 O2          3.9342   -2.0051    6.5454 O.2       1 <0>        -0.5582
     16 O3          2.8346   -0.1623    5.9558 O.3       1 <0>        -0.3534
     17 C12         3.3899    0.4951    7.0966 C.3       1 <0>         0.0873
     18 C13         2.8878    1.9395    7.1475 C.3       1 <0>        -0.1091
     19 S1          3.5927    2.7741    8.5957 S.3       1 <0>        -0.1006
     20 C14         2.9284    4.4040    8.5137 C.ar      1 <0>        -0.0795
     21 C15         2.0666    4.7538    7.4811 C.ar      1 <0>        -0.1328
     22 C16         1.5479    6.0320    7.4200 C.ar      1 <0>        -0.0991
     23 C17         1.8851    6.9637    8.3849 C.ar      1 <0>        -0.1284
     24 C18         2.7428    6.6193    9.4138 C.ar      1 <0>        -0.1028
     25 C19         3.2604    5.3412    9.4847 C.ar      1 <0>        -0.1018
     26 C20         0.4071   -1.1841    4.5932 C.3       1 <0>        -0.1426
     27 O4         -0.2629   -2.8142    0.7536 O.3       1 <0>        -0.6532
     28 H2         -0.6845    1.7780    0.8900 H         1 <0>         0.0613
     29 H3         -2.3191    1.4544    0.2641 H         1 <0>         0.0693
     30 H4         -1.9814    1.2810    2.0032 H         1 <0>         0.0611
     31 H5         -2.0867   -0.9332    0.8919 H         1 <0>         0.0572
     32 H6         -0.7897   -0.4361   -0.2213 H         1 <0>         0.0573
     33 H7          1.5762   -4.1502    0.4101 H         1 <0>         0.0733
     34 H8          1.7860   -5.5645    1.4703 H         1 <0>         0.0474
     35 H9          0.2156   -4.7294    1.4008 H         1 <0>         0.0869
     36 H10         3.6401   -4.5156    6.1270 H         1 <0>         0.0693
     37 H11         4.6666   -4.8324    4.7077 H         1 <0>         0.0529
     38 H12         4.8351   -3.3042    5.6046 H         1 <0>         0.0951
     39 H13         3.0836   -0.0281    8.0024 H         1 <0>         0.0692
     40 H14         4.4775    0.4909    7.0248 H         1 <0>         0.0691
     41 H15         3.1942    2.4628    6.2417 H         1 <0>         0.0984
     42 H16         1.8002    1.9438    7.2194 H         1 <0>         0.0982
     43 H17         1.8031    4.0268    6.7271 H         1 <0>         0.1266
     44 H18         0.8784    6.3047    6.6176 H         1 <0>         0.1259
     45 H19         1.4779    7.9628    8.3347 H         1 <0>         0.1236
     46 H20         3.0042    7.3496   10.1653 H         1 <0>         0.1266
     47 H21         3.9260    5.0714   10.2913 H         1 <0>         0.1276
     48 H22        -0.0538   -2.0954    4.9744 H         1 <0>         0.0337
     49 H23         0.7181   -0.5572    5.4289 H         1 <0>         0.0463
     50 H24        -0.3129   -0.6417    3.9804 H         1 <0>         0.0484
@<TRIPOS>BOND
     1    1    2 1
     2    1   28 1
     3    1   29 1
     4    1   30 1
     5    2    3 1
     6    2   31 1
     7    2   32 1
     8    3    4 1
     9    4    5 2
    10    4   27 1
    11    5   11 1
    12    5    6 1
    13    6    7 1
    14    6    8 1
    15    6   26 1
    16    8    9 2
    17    8   14 1
    18    9   10 1
    19    9   13 1
    20   10   11 2
    21   11   12 1
    22   12   33 1
    23   12   34 1
    24   12   35 1
    25   13   36 1
    26   13   37 1
    27   13   38 1
    28   14   15 2
    29   14   16 1
    30   16   17 1
    31   17   18 1
    32   17   39 1
    33   17   40 1
    34   18   19 1
    35   18   41 1
    36   18   42 1
    37   19   20 1
    38   20   25 ar
    39   20   21 ar
    40   21   22 ar
    41   21   43 1
    42   22   23 ar
    43   22   44 1
    44   23   24 ar
    45   23   45 1
    46   24   25 ar
    47   24   46 1
    48   25   47 1
    49   26   48 1
    50   26   49 1
    51   26   50 1
@<TRIPOS>MOLECULE
ZINC26816150
   50    51     0     0     0
SMALL
USER_CHARGES

@<TRIPOS>ATOM
      1 C1         -1.9159    0.9000    1.1230 C.3       1 <0>        -0.1497
      2 C2         -1.2977   -0.4532    0.7658 C.3       1 <0>         0.0653
      3 O1         -0.3626   -0.8317    1.7780 O.3       1 <0>        -0.3342
      4 C3          0.2745   -2.0077    1.6134 C.2       1 <0>         0.4742
      5 C4          1.1890   -2.4330    2.5519 C.2       1 <0>        -0.3955
      6 C5          1.6387   -1.5295    3.6865 C.3       1 <0>         0.0743
      7 H1          0.7580   -1.2360    4.2577 H         1 <0>         0.0300
      8 C6          2.6497   -2.1276    4.6476 C.2       1 <0>        -0.3793
      9 C7          3.0627   -3.4079    4.4141 C.2       1 <0>         0.2801
     10 N1          2.6143   -4.1241    3.3944 N.2       1 <0>        -0.6482
     11 C8          1.7384   -3.7155    2.5049 C.2       1 <0>         0.3100
     12 C9          1.3200   -4.6534    1.4020 C.3       1 <0>        -0.0910
     13 C10         4.0665   -4.0288    5.3511 C.3       1 <0>        -0.1139
     14 C11         3.1431   -1.3902    5.7382 C.2       1 <0>         0.5262
     15 O2          3.8655   -1.9265    6.5590 O.2       1 <0>        -0.5580
     16 O3          2.8160   -0.0869    5.8756 O.3       1 <0>        -0.3519
     17 C12         3.3529    0.6009    7.0072 C.3       1 <0>         0.0860
     18 C13         2.8762    2.0547    6.9938 C.3       1 <0>        -0.1091
     19 S1          3.5578    2.9278    8.4303 S.3       1 <0>        -0.1006
     20 C14         2.9259    4.5651    8.2732 C.ar      1 <0>        -0.0795
     21 C15         2.0983    4.8929    7.2060 C.ar      1 <0>        -0.1328
     22 C16         1.6051    6.1771    7.0861 C.ar      1 <0>        -0.0992
     23 C17         1.9337    7.1365    8.0265 C.ar      1 <0>        -0.1284
     24 C18         2.7573    6.8140    9.0896 C.ar      1 <0>        -0.1028
     25 C19         3.2493    5.5303    9.2194 C.ar      1 <0>        -0.1018
     26 C20         2.2525   -0.2671    3.0777 C.3       1 <0>        -0.1449
     27 O4          0.0172   -2.7677    0.5307 O.3       1 <0>        -0.6528
     28 H2         -1.1298    1.6520    1.1909 H         1 <0>         0.0611
     29 H3         -2.6291    1.1887    0.3509 H         1 <0>         0.0693
     30 H4         -2.4292    0.8233    2.0815 H         1 <0>         0.0613
     31 H5         -2.0838   -1.2052    0.6979 H         1 <0>         0.0573
     32 H6         -0.7844   -0.3766   -0.1927 H         1 <0>         0.0572
     33 H7          1.5950   -4.2259    0.4378 H         1 <0>         0.0834
     34 H8          1.8219   -5.6124    1.5307 H         1 <0>         0.0477
     35 H9          0.2406   -4.8002    1.4398 H         1 <0>         0.0746
     36 H10         3.5476   -4.4503    6.2120 H         1 <0>         0.0694
     37 H11         4.6088   -4.8185    4.8312 H         1 <0>         0.0528
     38 H12         4.7691   -3.2665    5.6879 H         1 <0>         0.0953
     39 H13         3.0131    0.1156    7.9222 H         1 <0>         0.0691
     40 H14         4.4418    0.5751    6.9651 H         1 <0>         0.0691
     41 H15         3.2160    2.5400    6.0788 H         1 <0>         0.0981
     42 H16         1.7874    2.0805    7.0359 H         1 <0>         0.0984
     43 H17         1.8416    4.1443    6.4711 H         1 <0>         0.1266
     44 H18         0.9622    6.4326    6.2568 H         1 <0>         0.1259
     45 H19         1.5464    8.1400    7.9302 H         1 <0>         0.1236
     46 H20         3.0121    7.5658    9.8219 H         1 <0>         0.1266
     47 H21         3.8883    5.2778   10.0527 H         1 <0>         0.1276
     48 H22         1.5065    0.2415    2.4670 H         1 <0>         0.0460
     49 H23         2.5830    0.3975    3.8759 H         1 <0>         0.0535
     50 H24         3.1052   -0.5410    2.4565 H         1 <0>         0.0333
@<TRIPOS>BOND
     1    1    2 1
     2    1   28 1
     3    1   29 1
     4    1   30 1
     5    2    3 1
     6    2   31 1
     7    2   32 1
     8    3    4 1
     9    4    5 2
    10    4   27 1
    11    5   11 1
    12    5    6 1
    13    6    7 1
    14    6    8 1
    15    6   26 1
    16    8    9 2
    17    8   14 1
    18    9   10 1
    19    9   13 1
    20   10   11 2
    21   11   12 1
    22   12   33 1
    23   12   34 1
    24   12   35 1
    25   13   36 1
    26   13   37 1
    27   13   38 1
    28   14   15 2
    29   14   16 1
    30   16   17 1
    31   17   18 1
    32   17   39 1
    33   17   40 1
    34   18   19 1
    35   18   41 1
    36   18   42 1
    37   19   20 1
    38   20   25 ar
    39   20   21 ar
    40   21   22 ar
    41   21   43 1
    42   22   23 ar
    43   22   44 1
    44   23   24 ar
    45   23   45 1
    46   24   25 ar
    47   24   46 1
    48   25   47 1
    49   26   48 1
    50   26   49 1
    51   26   50 1
@<TRIPOS>MOLECULE
ZINC19632949
   48    49     0     0     0
SMALL
USER_CHARGES

@<TRIPOS>ATOM
      1 C1          0.4650    1.3085   -0.2394 C.3       1 <0>        -0.1545
      2 C2          0.2148   -0.1933   -0.0873 C.3       1 <0>         0.0431
      3 H1          0.6034   -0.7123   -0.9634 H         1 <0>         0.0825
      4 C3         -1.2633   -0.4402    0.0189 C.2       1 <0>        -0.2288
      5 C4         -1.7673   -1.2996    0.9213 C.2       1 <0>         0.1768
      6 N1         -0.9449   -1.9744    1.7817 N.pl3     1 <0>        -0.6281
      7 C5          0.3351   -1.5410    1.9957 C.2       1 <0>         0.2416
      8 C6          0.9260   -0.6915    1.1387 C.2       1 <0>        -0.2665
      9 C7          2.2470   -0.2577    1.3965 C.2       1 <0>         0.5269
     10 O1          2.7958   -0.5644    2.4384 O.2       1 <0>        -0.5194
     11 O2          2.8992    0.4964    0.4870 O.3       1 <0>        -0.3418
     12 C8          4.2309    0.8991    0.8132 C.3       1 <0>         0.0835
     13 C9          4.8035    1.7404   -0.3293 C.3       1 <0>        -0.1161
     14 S1          6.4940    2.2517    0.0847 S.3       1 <0>        -0.0938
     15 C10         7.0067    3.1985   -1.3100 C.ar      1 <0>        -0.0840
     16 C11         6.1395    3.3894   -2.3791 C.ar      1 <0>        -0.1332
     17 C12         6.5447    4.1320   -3.4704 C.ar      1 <0>        -0.0997
     18 C13         7.8118    4.6855   -3.5004 C.ar      1 <0>        -0.1231
     19 C14         8.6776    4.4973   -2.4385 C.ar      1 <0>        -0.1002
     20 C15         8.2771    3.7610   -1.3411 C.ar      1 <0>        -0.0988
     21 C16         1.0908   -2.0218    3.2077 C.3       1 <0>        -0.1180
     22 C17        -3.2563   -1.5222    0.9864 C.3       1 <0>        -0.1346
     23 C18        -2.1435    0.2467   -0.8491 C.2       1 <0>         0.5353
     24 O3         -2.2612   -0.1129   -2.0056 O.2       1 <0>        -0.4960
     25 O4         -2.8530    1.3009   -0.3947 O.3       1 <0>        -0.3522
     26 C19        -3.7227    1.9475   -1.3261 C.3       1 <0>         0.0293
     27 H2          1.5099    1.4782   -0.4994 H         1 <0>         0.0842
     28 H3         -0.1746    1.7054   -1.0277 H         1 <0>         0.0502
     29 H4          0.2382    1.8117    0.7005 H         1 <0>         0.0571
     30 H5         -1.2710   -2.7633    2.2424 H         1 <0>         0.4219
     31 H6          4.2176    1.4906    1.7286 H         1 <0>         0.0792
     32 H7          4.8519    0.0156    0.9604 H         1 <0>         0.0790
     33 H8          4.8168    1.1490   -1.2448 H         1 <0>         0.1004
     34 H9          4.1825    2.6240   -0.4765 H         1 <0>         0.1000
     35 H10         5.1501    2.9572   -2.3565 H         1 <0>         0.1240
     36 H11         5.8715    4.2805   -4.3018 H         1 <0>         0.1269
     37 H12         8.1261    5.2658   -4.3553 H         1 <0>         0.1263
     38 H13         9.6665    4.9307   -2.4655 H         1 <0>         0.1296
     39 H14         8.9519    3.6188   -0.5099 H         1 <0>         0.1290
     40 H15         0.4600   -2.6982    3.7845 H         1 <0>         0.0640
     41 H16         1.9912   -2.5473    2.8896 H         1 <0>         0.0992
     42 H17         1.3677   -1.1677    3.8256 H         1 <0>         0.1078
     43 H18        -3.5258   -2.3657    0.3508 H         1 <0>         0.0899
     44 H19        -3.5473   -1.7348    2.0151 H         1 <0>         0.0859
     45 H20        -3.7730   -0.6270    0.6403 H         1 <0>         0.0901
     46 H21        -4.2315    2.7760   -0.8332 H         1 <0>         0.1027
     47 H22        -3.1392    2.3269   -2.1650 H         1 <0>         0.0616
     48 H23        -4.4608    1.2330   -1.6904 H         1 <0>         0.0608
@<TRIPOS>BOND
     1    1    2 1
     2    1   27 1
     3    1   28 1
     4    1   29 1
     5    2    3 1
     6    2    8 1
     7    2    4 1
     8    4    5 2
     9    4   23 1
    10    5    6 1
    11    5   22 1
    12    6    7 1
    13    6   30 1
    14    7    8 2
    15    7   21 1
    16    8    9 1
    17    9   10 2
    18    9   11 1
    19   11   12 1
    20   12   13 1
    21   12   31 1
    22   12   32 1
    23   13   14 1
    24   13   33 1
    25   13   34 1
    26   14   15 1
    27   15   20 ar
    28   15   16 ar
    29   16   17 ar
    30   16   35 1
    31   17   18 ar
    32   17   36 1
    33   18   19 ar
    34   18   37 1
    35   19   20 ar
    36   19   38 1
    37   20   39 1
    38   21   40 1
    39   21   41 1
    40   21   42 1
    41   22   43 1
    42   22   44 1
    43   22   45 1
    44   23   24 2
    45   23   25 1
    46   25   26 1
    47   26   46 1
    48   26   47 1
    49   26   48 1
@<TRIPOS>MOLECULE
ZINC19632949
   47    48     0     0     0
SMALL
USER_CHARGES

@<TRIPOS>ATOM
      1 C1          0.4367    1.7010    0.0868 C.3       1 <0>        -0.1441
      2 C2          0.1735    0.1968   -0.0090 C.3       1 <0>         0.0737
      3 H1         -0.9040    0.0451   -0.0732 H         1 <0>         0.0313
      4 C3          0.8016   -0.3137   -1.2929 C.2       1 <0>        -0.3791
      5 C4          1.7407   -1.2993   -1.1884 C.2       1 <0>         0.2801
      6 N1          2.1085   -1.8094   -0.0230 N.2       1 <0>        -0.6486
      7 C5          1.6362   -1.4482    1.1483 C.2       1 <0>         0.3103
      8 C6          0.6688   -0.4540    1.2704 C.2       1 <0>        -0.3943
      9 C7          0.1811   -0.0793    2.5032 C.2       1 <0>         0.4700
     10 O1          0.6416   -0.6766    3.6200 O.3       1 <0>        -0.6522
     11 O2         -0.7566    0.8845    2.5923 O.3       1 <0>        -0.3362
     12 C8         -1.2170    1.2226    3.9022 C.3       1 <0>         0.0417
     13 C9          2.1565   -2.1250    2.3901 C.3       1 <0>        -0.0896
     14 C10         2.3822   -1.8266   -2.4460 C.3       1 <0>        -0.1127
     15 C11         0.4296    0.2088   -2.5440 C.2       1 <0>         0.5268
     16 O3          1.0300   -0.1298   -3.5482 O.2       1 <0>        -0.5582
     17 O4         -0.5934    1.0862   -2.6324 O.3       1 <0>        -0.3535
     18 C12        -0.9170    1.5765   -3.9350 C.3       1 <0>         0.0873
     19 C13        -2.0923    2.5510   -3.8358 C.3       1 <0>        -0.1092
     20 S1         -2.5030    3.1733   -5.4895 S.3       1 <0>        -0.1006
     21 C14        -3.8557    4.2672   -5.2095 C.ar      1 <0>        -0.0794
     22 C15        -4.3363    4.4649   -3.9206 C.ar      1 <0>        -0.1329
     23 C16        -5.3966    5.3228   -3.7049 C.ar      1 <0>        -0.0992
     24 C17        -5.9801    5.9850   -4.7697 C.ar      1 <0>        -0.1284
     25 C18        -5.5047    5.7904   -6.0538 C.ar      1 <0>        -0.1028
     26 C19        -4.4408    4.9387   -6.2763 C.ar      1 <0>        -0.1018
     27 H2          1.5101    1.8785    0.1522 H         1 <0>         0.0336
     28 H3          0.0398    2.1964   -0.7992 H         1 <0>         0.0457
     29 H4         -0.0523    2.0995    0.9757 H         1 <0>         0.0522
     30 H5         -1.9679    2.0095    3.8315 H         1 <0>         0.0825
     31 H6         -1.6564    0.3423    4.3713 H         1 <0>         0.0498
     32 H7         -0.3780    1.5738    4.5028 H         1 <0>         0.0499
     33 H8          2.9030   -2.8692    2.1126 H         1 <0>         0.0468
     34 H9          2.6105   -1.3820    3.0458 H         1 <0>         0.0795
     35 H10         1.3324   -2.6134    2.9102 H         1 <0>         0.0793
     36 H11         3.2124   -1.1796   -2.7292 H         1 <0>         0.0695
     37 H12         2.7524   -2.8364   -2.2692 H         1 <0>         0.0530
     38 H13         1.6456   -1.8451   -3.2493 H         1 <0>         0.0941
     39 H14        -0.0526    2.0912   -4.3545 H         1 <0>         0.0692
     40 H15        -1.1908    0.7414   -4.5799 H         1 <0>         0.0691
     41 H16        -2.9567    2.0362   -3.4163 H         1 <0>         0.0984
     42 H17        -1.8185    3.3860   -3.1910 H         1 <0>         0.0983
     43 H18        -3.8814    3.9478   -3.0886 H         1 <0>         0.1267
     44 H19        -5.7708    5.4766   -2.7036 H         1 <0>         0.1260
     45 H20        -6.8092    6.6554   -4.5981 H         1 <0>         0.1236
     46 H21        -5.9631    6.3089   -6.8829 H         1 <0>         0.1266
     47 H22        -4.0668    4.7912   -7.2786 H         1 <0>         0.1276
@<TRIPOS>BOND
     1    1    2 1
     2    1   27 1
     3    1   28 1
     4    1   29 1
     5    2    3 1
     6    2    8 1
     7    2    4 1
     8    4    5 2
     9    4   15 1
    10    5    6 1
    11    5   14 1
    12    6    7 2
    13    7    8 1
    14    7   13 1
    15    8    9 2
    16    9   10 1
    17    9   11 1
    18   11   12 1
    19   12   30 1
    20   12   31 1
    21   12   32 1
    22   13   33 1
    23   13   34 1
    24   13   35 1
    25   14   36 1
    26   14   37 1
    27   14   38 1
    28   15   16 2
    29   15   17 1
    30   17   18 1
    31   18   19 1
    32   18   39 1
    33   18   40 1
    34   19   20 1
    35   19   41 1
    36   19   42 1
    37   20   21 1
    38   21   26 ar
    39   21   22 ar
    40   22   23 ar
    41   22   43 1
    42   23   24 ar
    43   23   44 1
    44   24   25 ar
    45   24   45 1
    46   25   26 ar
    47   25   46 1
    48   26   47 1
@<TRIPOS>MOLECULE
ZINC19632953
   48    49     0     0     0
SMALL
USER_CHARGES

@<TRIPOS>ATOM
      1 C1          0.0273    1.5300    0.2788 C.3       1 <0>        -0.1429
      2 C2          0.0151    0.0130    0.0801 C.3       1 <0>         0.0416
      3 H1         -1.0169   -0.3367    0.0503 H         1 <0>         0.0853
      4 C3          0.6882   -0.3208   -1.2209 C.2       1 <0>        -0.2303
      5 C4          1.9330   -0.8270   -1.2563 C.2       1 <0>         0.1804
      6 N1          2.6268   -1.0626   -0.1009 N.pl3     1 <0>        -0.6287
      7 C5          1.9689   -1.1356    1.0966 C.2       1 <0>         0.2415
      8 C6          0.7265   -0.6423    1.2297 C.2       1 <0>        -0.2639
      9 C7          0.0741   -0.7424    2.4804 C.2       1 <0>         0.5255
     10 O1          0.6383   -1.2707    3.4203 O.2       1 <0>        -0.5200
     11 O2         -1.1741   -0.2522    2.6315 O.3       1 <0>        -0.3461
     12 C8         -1.7724   -0.3877    3.9221 C.3       1 <0>         0.0873
     13 C9         -3.1756    0.2218    3.9002 C.3       1 <0>        -0.1161
     14 S1         -3.9352    0.0498    5.5385 S.3       1 <0>        -0.0937
     15 C10        -5.5237    0.7890    5.3516 C.ar      1 <0>        -0.0839
     16 C11        -5.9052    1.3195    4.1251 C.ar      1 <0>        -0.1332
     17 C12        -7.1508    1.8981    3.9823 C.ar      1 <0>        -0.0997
     18 C13        -8.0183    1.9501    5.0582 C.ar      1 <0>        -0.1231
     19 C14        -7.6419    1.4236    6.2804 C.ar      1 <0>        -0.1002
     20 C15        -6.4003    0.8379    6.4289 C.ar      1 <0>        -0.0988
     21 C16         2.6464   -1.7769    2.2801 C.3       1 <0>        -0.1174
     22 C17         2.5720   -1.1392   -2.5850 C.3       1 <0>        -0.1307
     23 C18        -0.0028   -0.0982   -2.4345 C.2       1 <0>         0.5328
     24 O3         -0.9061   -0.8432   -2.7658 O.2       1 <0>        -0.4978
     25 O4          0.3395    0.9405   -3.2252 O.3       1 <0>        -0.3493
     26 C19        -0.4008    1.1055   -4.4362 C.3       1 <0>         0.0298
     27 H2          1.0577    1.8842    0.3092 H         1 <0>         0.0552
     28 H3         -0.4974    2.0090   -0.5478 H         1 <0>         0.0565
     29 H4         -0.4698    1.7775    1.2168 H         1 <0>         0.0646
     30 H5          3.5894   -1.1787   -0.1308 H         1 <0>         0.4226
     31 H6         -1.8391   -1.4440    4.1826 H         1 <0>         0.0789
     32 H7         -1.1625    0.1311    4.6617 H         1 <0>         0.0793
     33 H8         -3.1089    1.2781    3.6397 H         1 <0>         0.1004
     34 H9         -3.7856   -0.2970    3.1607 H         1 <0>         0.1004
     35 H10        -5.2281    1.2795    3.2846 H         1 <0>         0.1240
     36 H11        -7.4477    2.3108    3.0295 H         1 <0>         0.1269
     37 H12        -8.9919    2.4032    4.9436 H         1 <0>         0.1264
     38 H13        -8.3218    1.4663    7.1185 H         1 <0>         0.1296
     39 H14        -6.1090    0.4224    7.3823 H         1 <0>         0.1291
     40 H15         3.6404   -2.1168    1.9896 H         1 <0>         0.0633
     41 H16         2.7326   -1.0496    3.0874 H         1 <0>         0.1025
     42 H17         2.0561   -2.6281    2.6194 H         1 <0>         0.1041
     43 H18         3.0775   -0.2505   -2.9628 H         1 <0>         0.0960
     44 H19         3.2967   -1.9437   -2.4595 H         1 <0>         0.0832
     45 H20         1.8040   -1.4493   -3.2936 H         1 <0>         0.0835
     46 H21        -0.0252    1.9748   -4.9761 H         1 <0>         0.1030
     47 H22        -0.2870    0.2159   -5.0557 H         1 <0>         0.0605
     48 H23        -1.4550    1.2518   -4.2006 H         1 <0>         0.0614
@<TRIPOS>BOND
     1    1    2 1
     2    1   27 1
     3    1   28 1
     4    1   29 1
     5    2    3 1
     6    2    8 1
     7    2    4 1
     8    4    5 2
     9    4   23 1
    10    5    6 1
    11    5   22 1
    12    6    7 1
    13    6   30 1
    14    7    8 2
    15    7   21 1
    16    8    9 1
    17    9   10 2
    18    9   11 1
    19   11   12 1
    20   12   13 1
    21   12   31 1
    22   12   32 1
    23   13   14 1
    24   13   33 1
    25   13   34 1
    26   14   15 1
    27   15   20 ar
    28   15   16 ar
    29   16   17 ar
    30   16   35 1
    31   17   18 ar
    32   17   36 1
    33   18   19 ar
    34   18   37 1
    35   19   20 ar
    36   19   38 1
    37   20   39 1
    38   21   40 1
    39   21   41 1
    40   21   42 1
    41   22   43 1
    42   22   44 1
    43   22   45 1
    44   23   24 2
    45   23   25 1
    46   25   26 1
    47   26   46 1
    48   26   47 1
    49   26   48 1
@<TRIPOS>MOLECULE
ZINC19632953
   47    48     0     0     0
SMALL
USER_CHARGES

@<TRIPOS>ATOM
      1 C1          0.1126    1.2812   -0.3906 C.3       1 <0>        -0.1464
      2 C2          0.0802   -0.2219   -0.1070 C.3       1 <0>         0.0736
      3 H1          0.6275   -0.7283   -0.9020 H         1 <0>         0.0296
      4 C3         -1.3649   -0.6831   -0.1580 C.2       1 <0>        -0.3794
      5 C4         -1.8786   -1.2763    0.9594 C.2       1 <0>         0.2802
      6 N1         -1.1650   -1.4549    2.0606 N.2       1 <0>        -0.6486
      7 C5          0.0891   -1.0983    2.2204 C.2       1 <0>         0.3101
      8 C6          0.8057   -0.4733    1.2031 C.2       1 <0>        -0.3940
      9 C7          2.1202   -0.1009    1.3799 C.2       1 <0>         0.4700
     10 O1          2.7355   -0.3382    2.5551 O.3       1 <0>        -0.6523
     11 O2          2.7908    0.5007    0.3777 O.3       1 <0>        -0.3361
     12 C8          4.1507    0.8595    0.6306 C.3       1 <0>         0.0417
     13 C9          0.7674   -1.3704    3.5383 C.3       1 <0>        -0.0896
     14 C10        -3.3108   -1.7448    0.9390 C.3       1 <0>        -0.1130
     15 C11        -2.1461   -0.5056   -1.3133 C.2       1 <0>         0.5262
     16 O3         -3.2649   -0.9834   -1.3712 O.2       1 <0>        -0.5581
     17 O4         -1.6559    0.1948   -2.3590 O.3       1 <0>        -0.3519
     18 C12        -2.5042    0.3357   -3.5003 C.3       1 <0>         0.0861
     19 C13        -1.7831    1.1531   -4.5739 C.3       1 <0>        -0.1092
     20 S1         -2.8599    1.3319   -6.0227 S.3       1 <0>        -0.1007
     21 C14        -1.8995    2.2831   -7.1529 C.ar      1 <0>        -0.0795
     22 C15        -0.6184    2.6940   -6.8044 C.ar      1 <0>        -0.1329
     23 C16         0.1313    3.4393   -7.6926 C.ar      1 <0>        -0.0992
     24 C17        -0.3911    3.7770   -8.9279 C.ar      1 <0>        -0.1284
     25 C18        -1.6657    3.3703   -9.2780 C.ar      1 <0>        -0.1028
     26 C19        -2.4190    2.6194   -8.3973 C.ar      1 <0>        -0.1018
     27 H2          1.1468    1.6247   -0.4123 H         1 <0>         0.0508
     28 H3         -0.3563    1.4793   -1.3545 H         1 <0>         0.0525
     29 H4         -0.4298    1.8106    0.3928 H         1 <0>         0.0329
     30 H5          4.5721    1.3341   -0.2555 H         1 <0>         0.0825
     31 H6          4.1932    1.5540    1.4697 H         1 <0>         0.0499
     32 H7          4.7241   -0.0359    0.8707 H         1 <0>         0.0498
     33 H8          0.0656   -1.8589    4.2142 H         1 <0>         0.0468
     34 H9          1.6280   -2.0195    3.3767 H         1 <0>         0.0793
     35 H10         1.0994   -0.4295    3.9772 H         1 <0>         0.0795
     36 H11        -3.3623   -2.7364    0.4892 H         1 <0>         0.0696
     37 H12        -3.6935   -1.7880    1.9586 H         1 <0>         0.0529
     38 H13        -3.9124   -1.0489    0.3542 H         1 <0>         0.0945
     39 H14        -2.7472   -0.6503   -3.8963 H         1 <0>         0.0691
     40 H15        -3.4221    0.8469   -3.2099 H         1 <0>         0.0691
     41 H16        -1.5402    2.1391   -4.1779 H         1 <0>         0.0982
     42 H17        -0.8652    0.6419   -4.8643 H         1 <0>         0.0984
     43 H18        -0.2100    2.4309   -5.8398 H         1 <0>         0.1267
     44 H19         1.1268    3.7593   -7.4223 H         1 <0>         0.1259
     45 H20         0.1976    4.3601   -9.6206 H         1 <0>         0.1236
     46 H21        -2.0706    3.6361  -10.2433 H         1 <0>         0.1266
     47 H22        -3.4123    2.2977   -8.6734 H         1 <0>         0.1276
@<TRIPOS>BOND
     1    1    2 1
     2    1   27 1
     3    1   28 1
     4    1   29 1
     5    2    3 1
     6    2    8 1
     7    2    4 1
     8    4    5 2
     9    4   15 1
    10    5    6 1
    11    5   14 1
    12    6    7 2
    13    7    8 1
    14    7   13 1
    15    8    9 2
    16    9   10 1
    17    9   11 1
    18   11   12 1
    19   12   30 1
    20   12   31 1
    21   12   32 1
    22   13   33 1
    23   13   34 1
    24   13   35 1
    25   14   36 1
    26   14   37 1
    27   14   38 1
    28   15   16 2
    29   15   17 1
    30   17   18 1
    31   18   19 1
    32   18   39 1
    33   18   40 1
    34   19   20 1
    35   19   41 1
    36   19   42 1
    37   20   21 1
    38   21   26 ar
    39   21   22 ar
    40   22   23 ar
    41   22   43 1
    42   23   24 ar
    43   23   44 1
    44   24   25 ar
    45   24   45 1
    46   25   26 ar
    47   25   46 1
    48   26   47 1
@<TRIPOS>MOLECULE
ZINC00596712
   46    49     0     0     0
SMALL
USER_CHARGES
1-[4-(chloroBLAHylidene)-1-piperidyl]ethanone
@<TRIPOS>ATOM
      1 C1          5.2433   -3.5248    4.5784 C.3       1 <0>        -0.1808
      2 C2          4.3511   -4.3678    3.7040 C.2       1 <0>         0.5132
      3 O1          4.5184   -5.5676    3.6449 O.2       1 <0>        -0.5455
      4 N1          3.3674   -3.7885    2.9878 N.am      1 <0>        -0.6137
      5 C3          2.4147   -4.6122    2.2325 C.3       1 <0>         0.1148
      6 C4          2.4706   -4.2026    0.7553 C.3       1 <0>        -0.1097
      7 C5          2.3592   -2.6961    0.6722 C.2       1 <0>        -0.0506
      8 C6          1.4389   -2.1188   -0.1099 C.2       1 <0>        -0.0651
      9 C7          0.4349   -2.9654   -0.7936 C.ar      1 <0>        -0.0285
     10 C8          0.8125   -3.9327   -1.7205 C.ar      1 <0>        -0.0876
     11 C9         -0.1656   -4.7069   -2.3169 C.ar      1 <0>        -0.1115
     12 C10        -1.4967   -4.5122   -1.9889 C.ar      1 <0>        -0.0311
     13 C11        -1.8624   -3.5437   -1.0693 C.ar      1 <0>        -0.1050
     14 C12        -0.8850   -2.7639   -0.4719 C.ar      1 <0>        -0.0591
     15 C13        -1.2691   -1.7076    0.5171 C.3       1 <0>        -0.0785
     16 C14        -1.1147   -0.3104   -0.0200 C.3       1 <0>        -0.0682
     17 C15         0.3060    0.1287   -0.2575 C.ar      1 <0>        -0.1103
     18 C16         1.4466   -0.6486   -0.2728 C.ar      1 <0>         0.1754
     19 N2          2.6485   -0.0884   -0.4573 N.ar      1 <0>        -0.4749
     20 C17         2.8096    1.1990   -0.6526 C.ar      1 <0>         0.1038
     21 C18         1.7118    2.0399   -0.6679 C.ar      1 <0>        -0.1711
     22 C19         0.4545    1.5064   -0.4648 C.ar      1 <0>        -0.0845
     23 Cl1        -2.7188   -5.4917   -2.7377 Cl        1 <0>        -0.0686
     24 C20         3.3172   -1.8578    1.4898 C.3       1 <0>        -0.0959
     25 C21         3.2361   -2.3262    2.9533 C.3       1 <0>         0.1019
     26 H1          4.8823   -2.4963    4.5814 H         1 <0>         0.0826
     27 H2          5.2312   -3.9171    5.5953 H         1 <0>         0.0959
     28 H3          6.2617   -3.5512    4.1909 H         1 <0>         0.0958
     29 H4          1.4077   -4.4526    2.6180 H         1 <0>         0.0694
     30 H5          2.6807   -5.6647    2.3302 H         1 <0>         0.0978
     31 H6          1.6426   -4.6621    0.2154 H         1 <0>         0.0908
     32 H7          3.4167   -4.5251    0.3206 H         1 <0>         0.0863
     33 H8          1.8535   -4.0766   -1.9697 H         1 <0>         0.1370
     34 H9          0.1084   -5.4626   -3.0382 H         1 <0>         0.1369
     35 H10        -2.9027   -3.3971   -0.8190 H         1 <0>         0.1366
     36 H11        -0.6434   -1.8134    1.4034 H         1 <0>         0.0781
     37 H12        -2.3097   -1.8599    0.8035 H         1 <0>         0.0822
     38 H13        -1.5745    0.3815    0.6856 H         1 <0>         0.0855
     39 H14        -1.6570   -0.2432   -0.9631 H         1 <0>         0.0798
     40 H15         3.8003    1.6023   -0.8019 H         1 <0>         0.1598
     41 H16         1.8362    3.0993   -0.8366 H         1 <0>         0.1358
     42 H17        -0.4133    2.1493   -0.4702 H         1 <0>         0.1337
     43 H18         4.3322   -1.9898    1.1148 H         1 <0>         0.0858
     44 H19         3.0345   -0.8072    1.4230 H         1 <0>         0.0934
     45 H20         2.2763   -2.0353    3.3802 H         1 <0>         0.0708
     46 H21         4.0454   -1.8730    3.5258 H         1 <0>         0.0971
@<TRIPOS>BOND
     1    1    2 1
     2    1   26 1
     3    1   27 1
     4    1   28 1
     5    2    3 2
     6    2    4 am
     7    4   25 1
     8    4    5 1
     9    5    6 1
    10    5   29 1
    11    5   30 1
    12    6    7 1
    13    6   31 1
    14    6   32 1
    15    7    8 2
    16    7   24 1
    17    8   18 1
    18    8    9 1
    19    9   14 ar
    20    9   10 ar
    21   10   11 ar
    22   10   33 1
    23   11   12 ar
    24   11   34 1
    25   12   13 ar
    26   12   23 1
    27   13   14 ar
    28   13   35 1
    29   14   15 1
    30   15   16 1
    31   15   36 1
    32   15   37 1
    33   16   17 1
    34   16   38 1
    35   16   39 1
    36   17   22 ar
    37   17   18 ar
    38   18   19 ar
    39   19   20 ar
    40   20   21 ar
    41   20   40 1
    42   21   22 ar
    43   21   41 1
    44   22   42 1
    45   24   25 1
    46   24   43 1
    47   24   44 1
    48   25   45 1
    49   25   46 1
@<TRIPOS>MOLECULE
ZINC03796018
   69    71     0     0     0
SMALL
USER_CHARGES
2-[3-methoxy-2-propoxy-5-[5-(3,4,5-trimethoxyphenyl)tetrahydrofuran-2-yl]-phenyl]sulfonylethanol
@<TRIPOS>ATOM
      1 C1         -2.6612   -2.7636   -8.6309 C.3       1 <0>        -0.1500
      2 C2         -1.7930   -3.0897   -7.4140 C.3       1 <0>        -0.1189
      3 C3         -1.8582   -1.9319   -6.4160 C.3       1 <0>         0.0493
      4 O1         -1.0473   -2.2364   -5.2795 O.3       1 <0>        -0.3357
      5 C4         -0.9948   -1.3041   -4.2908 C.ar      1 <0>         0.1657
      6 C5         -1.9146   -1.3422   -3.2466 C.ar      1 <0>         0.0963
      7 C6         -1.8572   -0.3900   -2.2422 C.ar      1 <0>        -0.1217
      8 C7         -0.8878    0.5955   -2.2782 C.ar      1 <0>        -0.0826
      9 C8          0.0221    0.6364   -3.3177 C.ar      1 <0>        -0.0375
     10 C9         -0.0263   -0.3143   -4.3208 C.ar      1 <0>        -0.6441
     11 S1          1.1399   -0.2625   -5.6407 S.o2      1 <0>         2.5091
     12 O2          0.3529   -0.3219   -6.8224 O.2       1 <0>        -0.9223
     13 O3          1.9489    0.8729   -5.3654 O.2       1 <0>        -0.9313
     14 C10         2.1142   -1.7821   -5.4618 C.3       1 <0>        -0.6114
     15 C11         3.1700   -1.8441   -6.5674 C.3       1 <0>         0.0900
     16 O4          3.9375   -3.0412   -6.4265 O.3       1 <0>        -0.5606
     17 C12        -0.8273    1.6308   -1.1848 C.3       1 <0>         0.1194
     18 H1         -0.3638    2.5418   -1.5636 H         1 <0>         0.1018
     19 C13        -0.0127    1.0858    0.0080 C.3       1 <0>        -0.1483
     20 C14        -0.8090    1.6211    1.2292 C.3       1 <0>        -0.1436
     21 C15        -2.2609    1.5619    0.6755 C.3       1 <0>         0.1182
     22 H2         -2.6635    0.5541    0.7773 H         1 <0>         0.0827
     23 O5         -2.1489    1.9162   -0.7121 O.3       1 <0>        -0.3561
     24 C16        -3.1387    2.5506    1.3986 C.ar      1 <0>        -0.0152
     25 C17        -3.1373    3.8798    1.0193 C.ar      1 <0>        -0.2078
     26 C18        -3.9479    4.7917    1.6784 C.ar      1 <0>         0.1498
     27 C19        -4.7535    4.3697    2.7293 C.ar      1 <0>         0.0304
     28 C20        -4.7478    3.0335    3.1113 C.ar      1 <0>         0.1508
     29 C21        -3.9389    2.1268    2.4430 C.ar      1 <0>        -0.2252
     30 O6         -5.5340    2.6157    4.1393 O.3       1 <0>        -0.3012
     31 C22        -5.4768    1.2285    4.4776 C.3       1 <0>         0.0243
     32 O7         -5.5456    5.2627    3.3830 O.3       1 <0>        -0.3127
     33 C23        -4.9783    5.9268    4.5140 C.3       1 <0>         0.0356
     34 O8         -3.9500    6.0982    1.3009 O.3       1 <0>        -0.3016
     35 C24        -3.0972    6.4605    0.2130 C.3       1 <0>         0.0242
     36 O9         -2.8670   -2.3123   -3.2125 O.3       1 <0>        -0.3002
     37 C25        -3.7769   -2.2897   -2.1108 C.3       1 <0>         0.0216
     38 H3         -3.6931   -2.6164   -8.3121 H         1 <0>         0.0555
     39 H4         -2.2943   -1.8536   -9.1056 H         1 <0>         0.0613
     40 H5         -2.6147   -3.5884   -9.3419 H         1 <0>         0.0635
     41 H6         -0.7611   -3.2369   -7.7329 H         1 <0>         0.0734
     42 H7         -2.1599   -3.9997   -6.9393 H         1 <0>         0.0694
     43 H8         -2.8901   -1.7847   -6.0972 H         1 <0>         0.0538
     44 H9         -1.4913   -1.0219   -6.8907 H         1 <0>         0.0977
     45 H10        -2.5694   -0.4175   -1.4307 H         1 <0>         0.1434
     46 H11         0.7752    1.4100   -3.3444 H         1 <0>         0.1543
     47 H12         2.6061   -1.7859   -4.4891 H         1 <0>         0.1419
     48 H13         1.4556   -2.6472   -5.5393 H         1 <0>         0.1518
     49 H14         2.6781   -1.8403   -7.5401 H         1 <0>         0.0653
     50 H15         3.8285   -0.9790   -6.4899 H         1 <0>         0.0637
     51 H16         4.6276   -3.1470   -7.0956 H         1 <0>         0.3882
     52 H17         0.0021   -0.0041    0.0020 H         1 <0>         0.0832
     53 H18         1.0012    1.4859    0.0005 H         1 <0>         0.0940
     54 H19        -0.6876    0.9687    2.0939 H         1 <0>         0.0911
     55 H20        -0.5207    2.6447    1.4682 H         1 <0>         0.0869
     56 H21        -2.5074    4.2078    0.2057 H         1 <0>         0.1408
     57 H22        -3.9338    1.0882    2.7392 H         1 <0>         0.1354
     58 H23        -6.1500    1.0298    5.3115 H         1 <0>         0.1041
     59 H24        -5.7788    0.6319    3.6168 H         1 <0>         0.0579
     60 H25        -4.4581    0.9657    4.7625 H         1 <0>         0.0569
     61 H26        -4.6904    5.1882    5.2622 H         1 <0>         0.0441
     62 H27        -4.0987    6.4894    4.2015 H         1 <0>         0.0444
     63 H28        -5.7133    6.6091    4.9411 H         1 <0>         0.0934
     64 H29        -3.1946    7.5279    0.0149 H         1 <0>         0.1040
     65 H30        -2.0630    6.2316    0.4702 H         1 <0>         0.0569
     66 H31        -3.3835    5.8983   -0.6759 H         1 <0>         0.0601
     67 H32        -3.2213   -2.3917   -1.1786 H         1 <0>         0.0567
     68 H33        -4.3207   -1.3450   -2.1081 H         1 <0>         0.0590
     69 H34        -4.4826   -3.1149   -2.2054 H         1 <0>         0.1066
@<TRIPOS>BOND
     1    1    2 1
     2    1   38 1
     3    1   39 1
     4    1   40 1
     5    2    3 1
     6    2   41 1
     7    2   42 1
     8    3    4 1
     9    3   43 1
    10    3   44 1
    11    4    5 1
    12    5   10 ar
    13    5    6 ar
    14    6    7 ar
    15    6   36 1
    16    7    8 ar
    17    7   45 1
    18    8    9 ar
    19    8   17 1
    20    9   10 ar
    21    9   46 1
    22   10   11 1
    23   11   12 2
    24   11   13 2
    25   11   14 1
    26   14   15 1
    27   14   47 1
    28   14   48 1
    29   15   16 1
    30   15   49 1
    31   15   50 1
    32   16   51 1
    33   17   18 1
    34   17   23 1
    35   17   19 1
    36   19   20 1
    37   19   52 1
    38   19   53 1
    39   20   21 1
    40   20   54 1
    41   20   55 1
    42   21   22 1
    43   21   23 1
    44   21   24 1
    45   24   29 ar
    46   24   25 ar
    47   25   26 ar
    48   25   56 1
    49   26   27 ar
    50   26   34 1
    51   27   28 ar
    52   27   32 1
    53   28   29 ar
    54   28   30 1
    55   29   57 1
    56   30   31 1
    57   31   58 1
    58   31   59 1
    59   31   60 1
    60   32   33 1
    61   33   61 1
    62   33   62 1
    63   33   63 1
    64   34   35 1
    65   35   64 1
    66   35   65 1
    67   35   66 1
    68   36   37 1
    69   37   67 1
    70   37   68 1
    71   37   69 1
@<TRIPOS>MOLECULE
ZINC01532042
   55    57     0     0     0
SMALL
USER_CHARGES

@<TRIPOS>ATOM
      1 C1         -0.0187    1.5258    0.0104 C.3       1 <0>        -0.1442
      2 C2          0.0021   -0.0041    0.0020 C.3       1 <0>        -0.1102
      3 H1          0.5191   -0.3794   -0.8811 H         1 <0>         0.0898
      4 C3         -1.4338   -0.5765    0.0865 C.3       1 <0>        -0.1154
      5 H2         -2.1609    0.1677   -0.2384 H         1 <0>         0.0910
      6 C4         -1.6242   -0.8999    1.5811 C.3       1 <0>         0.1269
      7 H3         -1.7805   -1.9707    1.7117 H         1 <0>         0.0784
      8 O1         -0.4250   -0.4944    2.2621 O.3       1 <0>        -0.3535
      9 C5          0.6492   -0.5556    1.2979 C.3       1 <0>         0.1247
     10 H4          0.9783   -1.5848    1.1547 H         1 <0>         0.0795
     11 C6          1.8005    0.3161    1.7287 C.ar      1 <0>        -0.0768
     12 C7          1.5650    1.4368    2.5033 C.ar      1 <0>        -0.0869
     13 C8          2.6178    2.2397    2.9010 C.ar      1 <0>        -0.1749
     14 C9          3.9126    1.9216    2.5237 C.ar      1 <0>         0.1021
     15 C10         4.1497    0.7934    1.7445 C.ar      1 <0>         0.0994
     16 C11         3.0905   -0.0098    1.3533 C.ar      1 <0>        -0.1631
     17 O2          5.4187    0.4770    1.3717 O.3       1 <0>        -0.3059
     18 C12         5.5868   -0.6953    0.5720 C.3       1 <0>         0.0257
     19 O3          4.9493    2.7106    2.9138 O.3       1 <0>        -0.3068
     20 C13         4.6311    3.8524    3.7119 C.3       1 <0>         0.0258
     21 C14        -2.8070   -0.1397    2.1233 C.ar      1 <0>        -0.0835
     22 C15        -2.6730    1.1936    2.4634 C.ar      1 <0>        -0.0919
     23 C16        -3.7551    1.8953    2.9612 C.ar      1 <0>        -0.1738
     24 C17        -4.9776    1.2626    3.1197 C.ar      1 <0>         0.1019
     25 C18        -5.1126   -0.0793    2.7770 C.ar      1 <0>         0.1000
     26 C19        -4.0252   -0.7756    2.2741 C.ar      1 <0>        -0.1620
     27 O4         -6.3104   -0.7047    2.9308 O.3       1 <0>        -0.3059
     28 C20        -6.3752   -2.0828    2.5584 C.3       1 <0>         0.0256
     29 O5         -6.0429    1.9513    3.6097 O.3       1 <0>        -0.3066
     30 C21        -5.8307    3.3252    3.9406 C.3       1 <0>         0.0258
     31 C22        -1.5547   -1.8462   -0.7586 C.3       1 <0>        -0.1459
     32 H5          1.0039    1.9031    0.0027 H         1 <0>         0.0620
     33 H6         -0.5459    1.8868   -0.8726 H         1 <0>         0.0568
     34 H7         -0.5289    1.8773    0.9072 H         1 <0>         0.0621
     35 H8          0.5563    1.6858    2.7980 H         1 <0>         0.1316
     36 H9          2.4310    3.1149    3.5055 H         1 <0>         0.1360
     37 H10         3.2722   -0.8881    0.7516 H         1 <0>         0.1351
     38 H11         6.6442   -0.8321    0.3455 H         1 <0>         0.1012
     39 H12         5.2169   -1.5634    1.1176 H         1 <0>         0.0549
     40 H13         5.0276   -0.5847   -0.3570 H         1 <0>         0.0546
     41 H14         3.9575    4.5065    3.1581 H         1 <0>         0.0551
     42 H15         4.1470    3.5283    4.6331 H         1 <0>         0.0554
     43 H16         5.5460    4.3935    3.9531 H         1 <0>         0.1011
     44 H17        -1.7207    1.6880    2.3403 H         1 <0>         0.1301
     45 H18        -3.6475    2.9366    3.2268 H         1 <0>         0.1359
     46 H19        -4.1284   -1.8161    2.0038 H         1 <0>         0.1353
     47 H20        -7.3837   -2.4587    2.7306 H         1 <0>         0.1014
     48 H21        -6.1243   -2.1861    1.5027 H         1 <0>         0.0546
     49 H22        -5.6670   -2.6549    3.1578 H         1 <0>         0.0551
     50 H23        -5.0572    3.3994    4.7051 H         1 <0>         0.0553
     51 H24        -5.5148    3.8688    3.0502 H         1 <0>         0.0551
     52 H25        -6.7580    3.7552    4.3190 H         1 <0>         0.1012
     53 H26        -0.8528   -2.5950   -0.3918 H         1 <0>         0.0579
     54 H27        -2.5706   -2.2347   -0.6874 H         1 <0>         0.0600
     55 H28        -1.3270   -1.6133   -1.7988 H         1 <0>         0.0628
@<TRIPOS>BOND
     1    1    2 1
     2    1   32 1
     3    1   33 1
     4    1   34 1
     5    2    3 1
     6    2    9 1
     7    2    4 1
     8    4    5 1
     9    4    6 1
    10    4   31 1
    11    6    7 1
    12    6    8 1
    13    6   21 1
    14    8    9 1
    15    9   10 1
    16    9   11 1
    17   11   16 ar
    18   11   12 ar
    19   12   13 ar
    20   12   35 1
    21   13   14 ar
    22   13   36 1
    23   14   15 ar
    24   14   19 1
    25   15   16 ar
    26   15   17 1
    27   16   37 1
    28   17   18 1
    29   18   38 1
    30   18   39 1
    31   18   40 1
    32   19   20 1
    33   20   41 1
    34   20   42 1
    35   20   43 1
    36   21   26 ar
    37   21   22 ar
    38   22   23 ar
    39   22   44 1
    40   23   24 ar
    41   23   45 1
    42   24   25 ar
    43   24   29 1
    44   25   26 ar
    45   25   27 1
    46   26   46 1
    47   27   28 1
    48   28   47 1
    49   28   48 1
    50   28   49 1
    51   29   30 1
    52   30   50 1
    53   30   51 1
    54   30   52 1
    55   31   53 1
    56   31   54 1
    57   31   55 1
@<TRIPOS>MOLECULE
ZINC14243646
  103   103     0     0     0
SMALL
USER_CHARGES

@<TRIPOS>ATOM
      1 C1          2.3244    4.4910   -4.6067 C.3       1 <0>        -0.1545
      2 C2          2.3440    2.9962   -4.2810 C.3       1 <0>        -0.1262
      3 C3          2.9556    2.2267   -5.4536 C.3       1 <0>        -0.1213
      4 C4          2.9751    0.7319   -5.1279 C.3       1 <0>        -0.1212
      5 C5          3.5867   -0.0375   -6.3005 C.3       1 <0>        -0.1206
      6 C6          3.6063   -1.5323   -5.9748 C.3       1 <0>        -0.1207
      7 C7          4.2178   -2.3018   -7.1473 C.3       1 <0>        -0.1205
      8 C8          4.2374   -3.7966   -6.8217 C.3       1 <0>        -0.1207
      9 C9          4.8490   -4.5660   -7.9942 C.3       1 <0>        -0.1205
     10 C10         4.8685   -6.0609   -7.6686 C.3       1 <0>        -0.1208
     11 C11         5.4801   -6.8303   -8.8411 C.3       1 <0>        -0.1204
     12 C12         5.4997   -8.3251   -8.5155 C.3       1 <0>        -0.1211
     13 C13         6.1112   -9.0945   -9.6880 C.3       1 <0>        -0.1203
     14 C14         6.1308  -10.5894   -9.3624 C.3       1 <0>        -0.1215
     15 C15         6.7424  -11.3588  -10.5349 C.3       1 <0>        -0.1190
     16 C16         6.7619  -12.8536  -10.2093 C.3       1 <0>        -0.1175
     17 C17         7.3735  -13.6231  -11.3818 C.3       1 <0>        -0.1321
     18 C18         7.3931  -15.1179  -11.0561 C.3       1 <0>         0.1336
     19 N1          7.9787  -15.8546  -12.1789 N.am      1 <0>        -0.7057
     20 C19         8.0989  -17.1955  -12.1155 C.2       1 <0>         0.6487
     21 O1          7.7216  -17.7934  -11.1273 O.2       1 <0>        -0.5649
     22 O2          8.6371  -17.8726  -13.1474 O.3       1 <0>        -0.3592
     23 C20         8.7337  -19.2919  -13.0121 C.3       1 <0>         0.0924
     24 C21         9.3656  -19.8826  -14.2741 C.3       1 <0>         0.0943
     25 C22         9.5837  -21.3845  -14.0802 C.3       1 <0>         0.0564
     26 O3         10.3041  -21.9094  -15.1972 O.3       1 <0>        -0.3517
     27 C23        10.4901  -23.2419  -15.2328 C.2       1 <0>         0.6511
     28 O4         10.1325  -23.9302  -14.2982 O.2       1 <0>        -0.4908
     29 N2         11.0732  -23.8125  -16.3056 N.am      1 <0>        -0.5546
     30 C24        11.6585  -22.9732  -17.3541 C.3       1 <0>         0.1179
     31 C25        13.1341  -22.8056  -17.0981 C.ar      1 <0>         0.1374
     32 C26        13.6271  -22.9615  -15.8161 C.ar      1 <0>        -0.1175
     33 C27        14.9860  -22.8052  -15.5914 C.ar      1 <0>         0.0083
     34 C28        15.8021  -22.4967  -16.6693 C.ar      1 <0>        -0.1185
     35 C29        15.2376  -22.3562  -17.9227 C.ar      1 <0>         0.1310
     36 N3         13.9408  -22.5174  -18.1004 N.ar      1 <0>        -0.3269
     37 C30        13.3809  -22.3660  -19.4458 C.3       1 <0>         0.0324
     38 C31        12.8978  -20.9271  -19.6382 C.3       1 <0>        -0.1803
     39 C32        11.1178  -25.1551  -16.4138 C.2       1 <0>         0.5396
     40 O5         11.7749  -25.6709  -17.2924 O.2       1 <0>        -0.4865
     41 C33        10.3509  -26.0153  -15.4427 C.3       1 <0>        -0.2164
     42 O6          8.4964  -19.6673  -15.3877 O.3       1 <0>        -0.3654
     43 C34         9.1699  -19.5985  -16.6461 C.3       1 <0>         0.0302
     44 H1          3.3431    4.8389   -4.7778 H         1 <0>         0.0533
     45 H2          1.7275    4.6598   -5.5029 H         1 <0>         0.0534
     46 H3          1.8887    5.0391   -3.7714 H         1 <0>         0.0538
     47 H4          2.9409    2.8273   -3.3848 H         1 <0>         0.0603
     48 H5          1.3253    2.6482   -4.1100 H         1 <0>         0.0603
     49 H6          2.3586    2.3956   -6.3498 H         1 <0>         0.0605
     50 H7          3.9743    2.5747   -5.6247 H         1 <0>         0.0605
     51 H8          3.5721    0.5631   -4.2317 H         1 <0>         0.0605
     52 H9          1.9564    0.3840   -4.9568 H         1 <0>         0.0606
     53 H10         2.9898    0.1313   -7.1967 H         1 <0>         0.0604
     54 H11         4.6054    0.3104   -6.4715 H         1 <0>         0.0603
     55 H12         4.2032   -1.7012   -5.0786 H         1 <0>         0.0604
     56 H13         2.5876   -1.8803   -5.8037 H         1 <0>         0.0605
     57 H14         3.6209   -2.1330   -8.0436 H         1 <0>         0.0603
     58 H15         5.2365   -1.9538   -7.3184 H         1 <0>         0.0602
     59 H16         4.8343   -3.9654   -5.9255 H         1 <0>         0.0604
     60 H17         3.2187   -4.1445   -6.6506 H         1 <0>         0.0605
     61 H18         4.2520   -4.3972   -8.8905 H         1 <0>         0.0603
     62 H19         5.8677   -4.2181   -8.1653 H         1 <0>         0.0602
     63 H20         5.4655   -6.2297   -6.7723 H         1 <0>         0.0604
     64 H21         3.8498   -6.4088   -7.4975 H         1 <0>         0.0606
     65 H22         4.8832   -6.6615   -9.7374 H         1 <0>         0.0603
     66 H23         6.4988   -6.4823   -9.0122 H         1 <0>         0.0601
     67 H24         6.0966   -8.4939   -7.6192 H         1 <0>         0.0607
     68 H25         4.4810   -8.6731   -8.3444 H         1 <0>         0.0609
     69 H26         5.5143   -8.9257  -10.5843 H         1 <0>         0.0606
     70 H27         7.1300   -8.7466   -9.8591 H         1 <0>         0.0603
     71 H28         6.7278  -10.7582   -8.4661 H         1 <0>         0.0619
     72 H29         5.1121  -10.9373   -9.1913 H         1 <0>         0.0622
     73 H30         6.1454  -11.1900  -11.4311 H         1 <0>         0.0625
     74 H31         7.7611  -11.0109  -10.7060 H         1 <0>         0.0621
     75 H32         7.3589  -13.0224   -9.3130 H         1 <0>         0.0673
     76 H33         5.7432  -13.2016  -10.0382 H         1 <0>         0.0678
     77 H34         6.7766  -13.4542  -12.2780 H         1 <0>         0.0726
     78 H35         8.3922  -13.2751  -11.5529 H         1 <0>         0.0718
     79 H36         7.9900  -15.2867  -10.1599 H         1 <0>         0.0739
     80 H37         6.3744  -15.4658  -10.8851 H         1 <0>         0.0744
     81 H38         8.2799  -15.3774  -12.9678 H         1 <0>         0.4082
     82 H39         9.3533  -19.5332  -12.1484 H         1 <0>         0.0911
     83 H40         7.7377  -19.7123  -12.8736 H         1 <0>         0.0876
     84 H41        10.3236  -19.3977  -14.4619 H         1 <0>         0.0868
     85 H42        10.1548  -21.5539  -13.1674 H         1 <0>         0.0972
     86 H43         8.6183  -21.8848  -14.0030 H         1 <0>         0.0987
     87 H44        11.5096  -23.4472  -18.3243 H         1 <0>         0.1374
     88 H45        11.1756  -21.9960  -17.3491 H         1 <0>         0.1502
     89 H46        12.9619  -23.2016  -14.9999 H         1 <0>         0.1683
     90 H47        15.3993  -22.9207  -14.6003 H         1 <0>         0.1802
     91 H48        16.8654  -22.3674  -16.5308 H         1 <0>         0.1900
     92 H49        15.8663  -22.1159  -18.7673 H         1 <0>         0.2112
     93 H50        14.1478  -22.5939  -20.1861 H         1 <0>         0.1374
     94 H51        12.5418  -23.0507  -19.5692 H         1 <0>         0.1295
     95 H52        12.1966  -20.6701  -18.8442 H         1 <0>         0.0730
     96 H53        13.7509  -20.2496  -19.6030 H         1 <0>         0.0815
     97 H54        12.4015  -20.8367  -20.6045 H         1 <0>         0.1099
     98 H55         9.7261  -25.3828  -14.8121 H         1 <0>         0.1453
     99 H56         9.7212  -26.7133  -15.9945 H         1 <0>         0.1033
    100 H57        11.0506  -26.5719  -14.8193 H         1 <0>         0.1106
    101 H58         8.4354  -19.5184  -17.4474 H         1 <0>         0.0916
    102 H59         9.8217  -18.7250  -16.6620 H         1 <0>         0.0462
    103 H60         9.7665  -20.4996  -16.7886 H         1 <0>         0.0417
@<TRIPOS>BOND
     1    1    2 1
     2    1   44 1
     3    1   45 1
     4    1   46 1
     5    2    3 1
     6    2   47 1
     7    2   48 1
     8    3    4 1
     9    3   49 1
    10    3   50 1
    11    4    5 1
    12    4   51 1
    13    4   52 1
    14    5    6 1
    15    5   53 1
    16    5   54 1
    17    6    7 1
    18    6   55 1
    19    6   56 1
    20    7    8 1
    21    7   57 1
    22    7   58 1
    23    8    9 1
    24    8   59 1
    25    8   60 1
    26    9   10 1
    27    9   61 1
    28    9   62 1
    29   10   11 1
    30   10   63 1
    31   10   64 1
    32   11   12 1
    33   11   65 1
    34   11   66 1
    35   12   13 1
    36   12   67 1
    37   12   68 1
    38   13   14 1
    39   13   69 1
    40   13   70 1
    41   14   15 1
    42   14   71 1
    43   14   72 1
    44   15   16 1
    45   15   73 1
    46   15   74 1
    47   16   17 1
    48   16   75 1
    49   16   76 1
    50   17   18 1
    51   17   77 1
    52   17   78 1
    53   18   19 1
    54   18   79 1
    55   18   80 1
    56   19   20 am
    57   19   81 1
    58   20   21 2
    59   20   22 1
    60   22   23 1
    61   23   24 1
    62   23   82 1
    63   23   83 1
    64   24   25 1
    65   24   42 1
    66   24   84 1
    67   25   26 1
    68   25   85 1
    69   25   86 1
    70   26   27 1
    71   27   28 2
    72   27   29 am
    73   29   30 1
    74   29   39 am
    75   30   31 1
    76   30   87 1
    77   30   88 1
    78   31   36 ar
    79   31   32 ar
    80   32   33 ar
    81   32   89 1
    82   33   34 ar
    83   33   90 1
    84   34   35 ar
    85   34   91 1
    86   35   36 ar
    87   35   92 1
    88   36   37 1
    89   37   38 1
    90   37   93 1
    91   37   94 1
    92   38   95 1
    93   38   96 1
    94   38   97 1
    95   39   40 2
    96   39   41 1
    97   41   98 1
    98   41   99 1
    99   41  100 1
   100   42   43 1
   101   43  101 1
   102   43  102 1
   103   43  103 1
@<TRIPOS>MOLECULE
ZINC14243647
  103   103     0     0     0
SMALL
USER_CHARGES

@<TRIPOS>ATOM
      1 C1          2.0791    5.4781    4.9924 C.3       1 <0>        -0.1545
      2 C2          1.8987    3.9794    4.7426 C.3       1 <0>        -0.1262
      3 C3          2.6635    3.1893    5.8063 C.3       1 <0>        -0.1212
      4 C4          2.4831    1.6907    5.5565 C.3       1 <0>        -0.1212
      5 C5          3.2480    0.9006    6.6202 C.3       1 <0>        -0.1206
      6 C6          3.0675   -0.5981    6.3704 C.3       1 <0>        -0.1207
      7 C7          3.8324   -1.3882    7.4341 C.3       1 <0>        -0.1205
      8 C8          3.6519   -2.8868    7.1843 C.3       1 <0>        -0.1208
      9 C9          4.4168   -3.6770    8.2480 C.3       1 <0>        -0.1205
     10 C10         4.2363   -5.1756    7.9982 C.3       1 <0>        -0.1208
     11 C11         5.0012   -5.9657    9.0619 C.3       1 <0>        -0.1204
     12 C12         4.8207   -7.4644    8.8121 C.3       1 <0>        -0.1211
     13 C13         5.5856   -8.2545    9.8758 C.3       1 <0>        -0.1203
     14 C14         5.4051   -9.7531    9.6260 C.3       1 <0>        -0.1215
     15 C15         6.1700  -10.5432   10.6897 C.3       1 <0>        -0.1189
     16 C16         5.9896  -12.0419   10.4399 C.3       1 <0>        -0.1176
     17 C17         6.7545  -12.8320   11.5036 C.3       1 <0>        -0.1318
     18 C18         6.5740  -14.3306   11.2538 C.3       1 <0>         0.1333
     19 N1          7.3064  -15.0872   12.2723 N.am      1 <0>        -0.7060
     20 C19         7.2909  -16.4347   12.2518 C.2       1 <0>         0.6474
     21 O1          6.6695  -17.0221   11.3884 O.2       1 <0>        -0.5625
     22 O2          7.9640  -17.1300   13.1878 O.3       1 <0>        -0.3646
     23 C20         7.9040  -18.5554   13.1054 C.3       1 <0>         0.0659
     24 C21         8.7228  -19.1670   14.2439 C.3       1 <0>         0.0933
     25 H1          9.7384  -18.7723   14.2138 H         1 <0>         0.0888
     26 C22         8.7619  -20.6881   14.0840 C.3       1 <0>         0.0853
     27 O3          9.6211  -21.2497   15.0782 O.3       1 <0>        -0.3462
     28 C23         9.7661  -22.5878   15.0754 C.2       1 <0>         0.6542
     29 O4          9.1794  -23.2604   14.2516 O.2       1 <0>        -0.4935
     30 N2         10.5623  -23.1813   15.9866 N.am      1 <0>        -0.5542
     31 C24        11.2747  -22.3694   16.9763 C.3       1 <0>         0.1201
     32 C25        10.4714  -22.3106   18.2499 C.ar      1 <0>         0.1389
     33 C26         9.1051  -22.5158   18.2059 C.ar      1 <0>        -0.1120
     34 C27         8.3753  -22.4596   19.3832 C.ar      1 <0>         0.0086
     35 C28         9.0501  -22.1980   20.5661 C.ar      1 <0>        -0.1191
     36 C29        10.4177  -22.0034   20.5324 C.ar      1 <0>         0.1292
     37 N3         11.0806  -22.0695   19.3941 N.ar      1 <0>        -0.3273
     38 C30        12.5310  -21.8633   19.4004 C.3       1 <0>         0.0337
     39 C31        12.8418  -20.4137   19.0225 C.3       1 <0>        -0.1809
     40 C32        10.7031  -24.5216   15.9872 C.2       1 <0>         0.5399
     41 O5         11.2614  -25.0720   16.9119 O.2       1 <0>        -0.4871
     42 C33        10.1664  -25.3362   14.8385 C.3       1 <0>        -0.2245
     43 O6          8.1196  -18.8351   15.4961 O.3       1 <0>        -0.3757
     44 C34         8.5987  -17.6158   16.0670 C.3       1 <0>         0.0298
     45 H2          3.1383    5.7301    4.9406 H         1 <0>         0.0533
     46 H3          1.5342    6.0410    4.2346 H         1 <0>         0.0538
     47 H4          1.6934    5.7308    5.9801 H         1 <0>         0.0533
     48 H5          0.8395    3.7274    4.7944 H         1 <0>         0.0603
     49 H6          2.2843    3.7267    3.7549 H         1 <0>         0.0603
     50 H7          3.7227    3.4413    5.7545 H         1 <0>         0.0605
     51 H8          2.2779    3.4421    6.7940 H         1 <0>         0.0605
     52 H9          1.4239    1.4387    5.6083 H         1 <0>         0.0606
     53 H10         2.8688    1.4380    4.5688 H         1 <0>         0.0606
     54 H11         4.3072    1.1526    6.5684 H         1 <0>         0.0604
     55 H12         2.8623    1.1533    7.6079 H         1 <0>         0.0603
     56 H13         2.0083   -0.8501    6.4222 H         1 <0>         0.0605
     57 H14         3.4532   -0.8508    5.3827 H         1 <0>         0.0605
     58 H15         4.8916   -1.1362    7.3823 H         1 <0>         0.0603
     59 H16         3.4467   -1.1355    8.4218 H         1 <0>         0.0602
     60 H17         2.5927   -3.1389    7.2361 H         1 <0>         0.0604
     61 H18         4.0376   -3.1396    6.1966 H         1 <0>         0.0605
     62 H19         5.4760   -3.4249    8.1962 H         1 <0>         0.0602
     63 H20         4.0311   -3.4242    9.2357 H         1 <0>         0.0602
     64 H21         3.1771   -5.4276    8.0500 H         1 <0>         0.0605
     65 H22         4.6220   -5.4283    7.0105 H         1 <0>         0.0606
     66 H23         6.0604   -5.7137    9.0101 H         1 <0>         0.0602
     67 H24         4.6155   -5.7130   10.0496 H         1 <0>         0.0602
     68 H25         3.7615   -7.7164    8.8639 H         1 <0>         0.0608
     69 H26         5.2064   -7.7171    7.8244 H         1 <0>         0.0608
     70 H27         6.6448   -8.0025    9.8240 H         1 <0>         0.0605
     71 H28         5.1999   -8.0018   10.8635 H         1 <0>         0.0604
     72 H29         4.3460  -10.0051    9.6778 H         1 <0>         0.0621
     73 H30         5.7908  -10.0059    8.6383 H         1 <0>         0.0621
     74 H31         7.2292  -10.2912   10.6379 H         1 <0>         0.0623
     75 H32         5.7843  -10.2905   11.6774 H         1 <0>         0.0623
     76 H33         4.9304  -12.2939   10.4917 H         1 <0>         0.0676
     77 H34         6.3753  -12.2946    9.4522 H         1 <0>         0.0677
     78 H35         7.8137  -12.5800   11.4518 H         1 <0>         0.0722
     79 H36         6.3688  -12.5793   12.4913 H         1 <0>         0.0720
     80 H37         5.5148  -14.5827   11.3056 H         1 <0>         0.0743
     81 H38         6.9597  -14.5834   10.2661 H         1 <0>         0.0743
     82 H39         7.8024  -14.6183   12.9615 H         1 <0>         0.4073
     83 H40         6.8670  -18.8808   13.1881 H         1 <0>         0.0864
     84 H41         8.3119  -18.8815   12.1486 H         1 <0>         0.0863
     85 H42         7.7564  -21.0919   14.2027 H         1 <0>         0.0971
     86 H43         9.1398  -20.9397   13.0930 H         1 <0>         0.1033
     87 H44        12.2476  -22.8166   17.1806 H         1 <0>         0.1359
     88 H45        11.4130  -21.3607   16.5871 H         1 <0>         0.1516
     89 H46         8.6123  -22.7169   17.2662 H         1 <0>         0.1676
     90 H47         7.3066  -22.6155   19.3792 H         1 <0>         0.1796
     91 H48         8.5134  -22.1467   21.5019 H         1 <0>         0.1892
     92 H49        10.9506  -21.7992   21.4493 H         1 <0>         0.2103
     93 H50        12.9233  -22.0714   20.3958 H         1 <0>         0.1367
     94 H51        12.9965  -22.5347   18.6788 H         1 <0>         0.1291
     95 H52        13.9208  -20.2829   18.9404 H         1 <0>         0.1091
     96 H53        12.3736  -20.1790   18.0665 H         1 <0>         0.0734
     97 H54        12.4523  -19.7463   19.7913 H         1 <0>         0.0812
     98 H55         9.8254  -24.6683   14.0475 H         1 <0>         0.1538
     99 H56        10.9541  -25.9836   14.4530 H         1 <0>         0.1026
    100 H57         9.3317  -25.9460   15.1842 H         1 <0>         0.1084
    101 H58         8.0923  -17.4348   17.0151 H         1 <0>         0.0869
    102 H59         9.6727  -17.6917   16.2373 H         1 <0>         0.0409
    103 H60         8.3967  -16.7907   15.3839 H         1 <0>         0.0597
@<TRIPOS>BOND
     1    1    2 1
     2    1   45 1
     3    1   46 1
     4    1   47 1
     5    2    3 1
     6    2   48 1
     7    2   49 1
     8    3    4 1
     9    3   50 1
    10    3   51 1
    11    4    5 1
    12    4   52 1
    13    4   53 1
    14    5    6 1
    15    5   54 1
    16    5   55 1
    17    6    7 1
    18    6   56 1
    19    6   57 1
    20    7    8 1
    21    7   58 1
    22    7   59 1
    23    8    9 1
    24    8   60 1
    25    8   61 1
    26    9   10 1
    27    9   62 1
    28    9   63 1
    29   10   11 1
    30   10   64 1
    31   10   65 1
    32   11   12 1
    33   11   66 1
    34   11   67 1
    35   12   13 1
    36   12   68 1
    37   12   69 1
    38   13   14 1
    39   13   70 1
    40   13   71 1
    41   14   15 1
    42   14   72 1
    43   14   73 1
    44   15   16 1
    45   15   74 1
    46   15   75 1
    47   16   17 1
    48   16   76 1
    49   16   77 1
    50   17   18 1
    51   17   78 1
    52   17   79 1
    53   18   19 1
    54   18   80 1
    55   18   81 1
    56   19   20 am
    57   19   82 1
    58   20   21 2
    59   20   22 1
    60   22   23 1
    61   23   24 1
    62   23   83 1
    63   23   84 1
    64   24   25 1
    65   24   26 1
    66   24   43 1
    67   26   27 1
    68   26   85 1
    69   26   86 1
    70   27   28 1
    71   28   29 2
    72   28   30 am
    73   30   31 1
    74   30   40 am
    75   31   32 1
    76   31   87 1
    77   31   88 1
    78   32   37 ar
    79   32   33 ar
    80   33   34 ar
    81   33   89 1
    82   34   35 ar
    83   34   90 1
    84   35   36 ar
    85   35   91 1
    86   36   37 ar
    87   36   92 1
    88   37   38 1
    89   38   39 1
    90   38   93 1
    91   38   94 1
    92   39   95 1
    93   39   96 1
    94   39   97 1
    95   40   41 2
    96   40   42 1
    97   42   98 1
    98   42   99 1
    99   42  100 1
   100   43   44 1
   101   44  101 1
   102   44  102 1
   103   44  103 1
@<TRIPOS>MOLECULE
ZINC03794739
   67    68     0     0     0
SMALL
USER_CHARGES
(2E,4E)-5-(4-methoxyphenyl)-N-[(1R)-1-methyl-4-(3-pyridyl)butyl]deca-2,4-dienamide
@<TRIPOS>ATOM
      1 C1         -6.5404    6.5542  -12.2485 C.3       1 <0>        -0.1543
      2 C2         -5.6531    7.4798  -11.4138 C.3       1 <0>        -0.1249
      3 C3         -4.4251    6.7072  -10.9278 C.3       1 <0>        -0.1213
      4 C4         -3.5377    7.6327  -10.0930 C.3       1 <0>        -0.1149
      5 C5         -2.3098    6.8602   -9.6070 C.3       1 <0>        -0.0968
      6 C6         -1.4358    7.7718   -8.7848 C.2       1 <0>        -0.0187
      7 C7         -1.5565    7.7905   -7.4364 C.2       1 <0>        -0.1525
      8 C8         -2.5004    6.9567   -6.8012 C.2       1 <0>        -0.0121
      9 C9         -2.6215    6.9755   -5.4489 C.2       1 <0>        -0.2329
     10 C10        -3.5687    6.1387   -4.8114 C.2       1 <0>         0.5504
     11 O1         -4.2750    5.4020   -5.4758 O.2       1 <0>        -0.5502
     12 N1         -3.6889    6.1573   -3.4691 N.am      1 <0>        -0.7244
     13 C11        -4.6693    5.2913   -2.8094 C.3       1 <0>         0.1415
     14 H1         -4.7460    4.3496   -3.3528 H         1 <0>         0.0882
     15 C12        -6.0333    5.9841   -2.7944 C.3       1 <0>        -0.1641
     16 C13        -4.2213    5.0160   -1.3726 C.3       1 <0>        -0.1276
     17 C14        -2.9188    4.2135   -1.3894 C.3       1 <0>        -0.1139
     18 C15        -2.4708    3.9382    0.0474 C.3       1 <0>        -0.0770
     19 C16        -1.1878    3.1478    0.0309 C.ar      1 <0>        -0.1336
     20 C17        -1.2174    1.7614    0.0173 C.ar      1 <0>        -0.0745
     21 C18        -0.0126    1.0758    0.0080 C.ar      1 <0>        -0.1694
     22 C19         1.1697    1.7918    0.0005 C.ar      1 <0>         0.0921
     23 N2          1.1598    3.1103    0.0082 N.ar      1 <0>        -0.4832
     24 C20         0.0329    3.7953    0.0227 C.ar      1 <0>         0.0996
     25 C21        -0.4529    8.6401   -9.4463 C.ar      1 <0>        -0.1011
     26 C22        -0.8816    9.6628  -10.3013 C.ar      1 <0>        -0.0615
     27 C23         0.0436   10.4776  -10.9137 C.ar      1 <0>        -0.2081
     28 C24         1.4019   10.2787  -10.6944 C.ar      1 <0>         0.1329
     29 C25         1.8334    9.2612   -9.8510 C.ar      1 <0>        -0.1508
     30 C26         0.9165    8.4445   -9.2286 C.ar      1 <0>        -0.0622
     31 O2          2.3104   11.0812  -11.3058 O.3       1 <0>        -0.3161
     32 C27         1.7993   12.1070  -12.1593 C.3       1 <0>         0.0258
     33 H2         -5.9777    6.1887  -13.1075 H         1 <0>         0.0533
     34 H3         -6.8606    5.7099  -11.6380 H         1 <0>         0.0543
     35 H4         -7.4152    7.1046  -12.5948 H         1 <0>         0.0534
     36 H5         -6.2158    7.8452  -10.5548 H         1 <0>         0.0611
     37 H6         -5.3329    8.3241  -12.0243 H         1 <0>         0.0598
     38 H7         -3.8624    6.3417  -11.7867 H         1 <0>         0.0626
     39 H8         -4.7453    5.8629  -10.3172 H         1 <0>         0.0645
     40 H9         -4.1005    7.9982   -9.2340 H         1 <0>         0.0656
     41 H10        -3.2176    8.4771  -10.7036 H         1 <0>         0.0649
     42 H11        -1.7470    6.4947  -10.4659 H         1 <0>         0.0779
     43 H12        -2.6300    6.0159   -8.9964 H         1 <0>         0.0823
     44 H13        -0.9301    8.4439   -6.8472 H         1 <0>         0.1224
     45 H14        -3.1268    6.3034   -7.3904 H         1 <0>         0.1340
     46 H15        -1.9951    7.6288   -4.8597 H         1 <0>         0.1245
     47 H16        -3.1264    6.7441   -2.9399 H         1 <0>         0.3992
     48 H17        -6.3525    6.1802   -3.8181 H         1 <0>         0.0611
     49 H18        -6.7627    5.3398   -2.3036 H         1 <0>         0.0653
     50 H19        -5.9566    6.9259   -2.2510 H         1 <0>         0.0564
     51 H20        -4.9925    4.4461   -0.8544 H         1 <0>         0.0806
     52 H21        -4.0588    5.9616   -0.8552 H         1 <0>         0.0706
     53 H22        -2.1475    4.7834   -1.9076 H         1 <0>         0.0660
     54 H23        -3.0812    3.2680   -1.9068 H         1 <0>         0.0649
     55 H24        -3.2420    3.3683    0.5656 H         1 <0>         0.0756
     56 H25        -2.3083    4.8837    0.5648 H         1 <0>         0.0768
     57 H26        -2.1568    1.2285    0.0188 H         1 <0>         0.1333
     58 H27         0.0021   -0.0041    0.0020 H         1 <0>         0.1353
     59 H28         2.1126    1.2652   -0.0114 H         1 <0>         0.1554
     60 H29         0.0645    4.8748    0.0286 H         1 <0>         0.1530
     61 H30        -1.9364    9.8149  -10.4764 H         1 <0>         0.1288
     62 H31        -0.2862   11.2700  -11.5694 H         1 <0>         0.1307
     63 H32         2.8898    9.1110   -9.6841 H         1 <0>         0.1339
     64 H33         1.2528    7.6546   -8.5733 H         1 <0>         0.1324
     65 H34         2.6284   12.6737  -12.5830 H         1 <0>         0.1021
     66 H35         1.2196   11.6547  -12.9640 H         1 <0>         0.0569
     67 H36         1.1599   12.7749  -11.5821 H         1 <0>         0.0569
@<TRIPOS>BOND
     1    1    2 1
     2    1   33 1
     3    1   34 1
     4    1   35 1
     5    2    3 1
     6    2   36 1
     7    2   37 1
     8    3    4 1
     9    3   38 1
    10    3   39 1
    11    4    5 1
    12    4   40 1
    13    4   41 1
    14    5    6 1
    15    5   42 1
    16    5   43 1
    17    6    7 2
    18    6   25 1
    19    7    8 1
    20    7   44 1
    21    8    9 2
    22    8   45 1
    23    9   10 1
    24    9   46 1
    25   10   11 2
    26   10   12 am
    27   12   13 1
    28   12   47 1
    29   13   14 1
    30   13   15 1
    31   13   16 1
    32   15   48 1
    33   15   49 1
    34   15   50 1
    35   16   17 1
    36   16   51 1
    37   16   52 1
    38   17   18 1
    39   17   53 1
    40   17   54 1
    41   18   19 1
    42   18   55 1
    43   18   56 1
    44   19   24 ar
    45   19   20 ar
    46   20   21 ar
    47   20   57 1
    48   21   22 ar
    49   21   58 1
    50   22   23 ar
    51   22   59 1
    52   23   24 ar
    53   24   60 1
    54   25   30 ar
    55   25   26 ar
    56   26   27 ar
    57   26   61 1
    58   27   28 ar
    59   27   62 1
    60   28   29 ar
    61   28   31 1
    62   29   30 ar
    63   29   63 1
    64   30   64 1
    65   31   32 1
    66   32   65 1
    67   32   66 1
    68   32   67 1
@<TRIPOS>MOLECULE
ZINC00608180
   53    57     0     0     0
SMALL
USER_CHARGES

@<TRIPOS>ATOM
      1 C1          0.1273    1.3623   -0.2147 C.3       1 <0>        -0.0726
      2 C2          0.0800   -0.1416   -0.1294 C.2       1 <0>         0.1953
      3 N1          0.0416   -0.9782   -1.1348 N.2       1 <0>        -0.2762
      4 N2          0.0157   -2.1900   -0.6982 N.2       1 <0>        -0.2607
      5 C3          0.0406   -2.1894    0.6015 C.2       1 <0>         0.1707
      6 N3          0.0750   -0.8857    1.0030 N.pl3     1 <0>        -0.3895
      7 C4          0.0807   -0.4897    2.3271 C.2       1 <0>        -0.0057
      8 C5          0.6894   -1.1502    3.3883 C.2       1 <0>        -0.1323
      9 C6          0.4855   -0.5219    4.6859 C.2       1 <0>        -0.1040
     10 C7         -0.2273    0.6170    4.7037 C.2       1 <0>        -0.1534
     11 S1         -0.6366    0.8640    2.9895 S.3       1 <0>         0.2292
     12 C8         -0.5918    1.4758    5.8872 C.3       1 <0>        -0.0208
     13 C9          0.4968    2.5278    6.1085 C.3       1 <0>        -0.1385
     14 C10         0.1323    3.3866    7.2920 C.2       1 <0>         0.5188
     15 O1         -0.8969    3.1777    7.8987 O.2       1 <0>        -0.5340
     16 N4          0.9500    4.3867    7.6763 N.am      1 <0>        -0.6175
     17 C11         2.2008    4.6630    6.9522 C.3       1 <0>         0.0697
     18 C12         2.2455    6.1583    6.6174 C.3       1 <0>         0.0454
     19 O2          2.0219    6.9145    7.8099 O.3       1 <0>        -0.3770
     20 C13         0.7398    6.7022    8.4057 C.3       1 <0>         0.0469
     21 C14         0.6152    5.2384    8.8286 C.3       1 <0>         0.0752
     22 C15         1.4976   -2.3765    3.2103 C.2       1 <0>         0.2864
     23 N5          1.2584   -3.3256    2.3663 N.2       1 <0>        -0.4818
     24 C16         0.0455   -3.3698    1.5362 C.3       1 <0>         0.1264
     25 C17         2.6889   -2.5303    4.0775 C.ar      1 <0>        -0.0474
     26 C18         2.7395   -3.5546    5.0227 C.ar      1 <0>        -0.0717
     27 C19         3.8516   -3.6932    5.8270 C.ar      1 <0>        -0.1137
     28 C20         4.9161   -2.8183    5.6985 C.ar      1 <0>        -0.0931
     29 C21         4.8731   -1.8004    4.7637 C.ar      1 <0>        -0.1109
     30 C22         3.7675   -1.6544    3.9481 C.ar      1 <0>        -0.0109
     31 Cl1         3.7173   -0.3802    2.7702 Cl        1 <0>        -0.0617
     32 H1          1.1657    1.6916   -0.2526 H         1 <0>         0.0945
     33 H2         -0.3914    1.6916   -1.1150 H         1 <0>         0.1085
     34 H3         -0.3581    1.7914    0.6618 H         1 <0>         0.0787
     35 H4          0.8879   -0.9512    5.5915 H         1 <0>         0.1541
     36 H5         -1.5434    1.9721    5.6966 H         1 <0>         0.0940
     37 H6         -0.6796    0.8511    6.7761 H         1 <0>         0.1039
     38 H7          1.4483    2.0314    6.2992 H         1 <0>         0.1025
     39 H8          0.5846    3.1525    5.2196 H         1 <0>         0.0988
     40 H9          3.0533    4.4015    7.5790 H         1 <0>         0.0826
     41 H10         2.2287    4.0797    6.0318 H         1 <0>         0.0967
     42 H11         3.2224    6.4099    6.2045 H         1 <0>         0.1096
     43 H12         1.4700    6.3913    5.8877 H         1 <0>         0.0576
     44 H13         0.6334    7.3452    9.2794 H         1 <0>         0.1098
     45 H14        -0.0412    6.9373    7.6826 H         1 <0>         0.0569
     46 H15        -0.4064    5.0360    9.1503 H         1 <0>         0.1038
     47 H16         1.3054    5.0358    9.6476 H         1 <0>         0.0781
     48 H17        -0.8407   -3.3351    2.1698 H         1 <0>         0.0945
     49 H18         0.0415   -4.2926    0.9561 H         1 <0>         0.1369
     50 H19         1.9094   -4.2379    5.1249 H         1 <0>         0.1362
     51 H20         3.8914   -4.4862    6.5592 H         1 <0>         0.1364
     52 H21         5.7840   -2.9309    6.3313 H         1 <0>         0.1370
     53 H22         5.7069   -1.1205    4.6684 H         1 <0>         0.1385
@<TRIPOS>BOND
     1    1    2 1
     2    1   32 1
     3    1   33 1
     4    1   34 1
     5    2    6 1
     6    2    3 2
     7    3    4 1
     8    4    5 2
     9    5   24 1
    10    5    6 1
    11    6    7 1
    12    7   11 1
    13    7    8 2
    14    8    9 1
    15    8   22 1
    16    9   10 2
    17    9   35 1
    18   10   11 1
    19   10   12 1
    20   12   13 1
    21   12   36 1
    22   12   37 1
    23   13   14 1
    24   13   38 1
    25   13   39 1
    26   14   15 2
    27   14   16 am
    28   16   21 1
    29   16   17 1
    30   17   18 1
    31   17   40 1
    32   17   41 1
    33   18   19 1
    34   18   42 1
    35   18   43 1
    36   19   20 1
    37   20   21 1
    38   20   44 1
    39   20   45 1
    40   21   46 1
    41   21   47 1
    42   22   23 2
    43   22   25 1
    44   23   24 1
    45   24   48 1
    46   24   49 1
    47   25   30 ar
    48   25   26 ar
    49   26   27 ar
    50   26   50 1
    51   27   28 ar
    52   27   51 1
    53   28   29 ar
    54   28   52 1
    55   29   30 ar
    56   29   53 1
    57   30   31 1
@<TRIPOS>MOLECULE
ZINC00608180
   54    58     0     0     0
SMALL
USER_CHARGES

@<TRIPOS>ATOM
      1 C1          0.1269    1.3627   -0.2141 C.3       1 <0>        -0.0852
      2 C2          0.0798   -0.1412   -0.1291 C.2       1 <0>         0.2324
      3 N1          0.0415   -0.9776   -1.1346 N.2       1 <0>        -0.2570
      4 N2          0.0158   -2.1895   -0.6982 N.2       1 <0>        -0.2148
      5 C3          0.0407   -2.1891    0.6015 C.2       1 <0>         0.1258
      6 N3          0.0749   -0.8855    1.0033 N.pl3     1 <0>        -0.4011
      7 C4          0.0805   -0.4897    2.3273 C.2       1 <0>         0.0318
      8 C5          0.6893   -1.1503    3.3885 C.2       1 <0>        -0.1902
      9 C6          0.4852   -0.5222    4.6862 C.2       1 <0>        -0.0862
     10 C7         -0.2277    0.6165    4.7041 C.2       1 <0>        -0.1421
     11 S1         -0.6370    0.8638    2.9900 S.3       1 <0>         0.3438
     12 C8         -0.5924    1.4751    5.8878 C.3       1 <0>        -0.0302
     13 C9          0.4962    2.5272    6.1093 C.3       1 <0>        -0.1401
     14 C10         0.1315    3.3857    7.2930 C.2       1 <0>         0.5167
     15 O1         -0.8977    3.1767    7.8996 O.2       1 <0>        -0.5316
     16 N4          0.9491    4.3859    7.6774 N.am      1 <0>        -0.6149
     17 C11         2.1999    4.6625    6.9533 C.3       1 <0>         0.0698
     18 C12         2.2444    6.1578    6.6188 C.3       1 <0>         0.0447
     19 O2          2.0207    6.9138    7.8114 O.3       1 <0>        -0.3744
     20 C13         0.7386    6.7013    8.4072 C.3       1 <0>         0.0461
     21 C14         0.6142    5.2374    8.8299 C.3       1 <0>         0.0746
     22 C15         1.4976   -2.3765    3.2103 C.2       1 <0>         0.4740
     23 N5          1.2585   -3.3255    2.3661 N.pl3     1 <0>        -0.5358
     24 C16         0.0457   -3.3697    1.5360 C.3       1 <0>         0.1559
     25 C17         2.6889   -2.5303    4.0775 C.ar      1 <0>        -0.1672
     26 C18         2.7395   -3.5546    5.0227 C.ar      1 <0>        -0.0591
     27 C19         3.8516   -3.6932    5.8270 C.ar      1 <0>        -0.1047
     28 C20         4.9161   -2.8183    5.6985 C.ar      1 <0>        -0.0491
     29 C21         4.8731   -1.8004    4.7637 C.ar      1 <0>        -0.1019
     30 C22         3.7675   -1.6544    3.9481 C.ar      1 <0>         0.0138
     31 Cl1         3.7173   -0.3802    2.7702 Cl        1 <0>        -0.0390
     32 H1          1.1653    1.6921   -0.2520 H         1 <0>         0.1074
     33 H2         -0.3918    1.6921   -1.1144 H         1 <0>         0.1236
     34 H3         -0.3586    1.7916    0.6625 H         1 <0>         0.0830
     35 H4          0.8877   -0.9517    5.5918 H         1 <0>         0.1705
     36 H5         -1.5439    1.9714    5.6972 H         1 <0>         0.1042
     37 H6         -0.6800    0.8502    6.7766 H         1 <0>         0.1145
     38 H7          1.4477    2.0309    6.2999 H         1 <0>         0.1032
     39 H8          0.5839    3.1520    5.2205 H         1 <0>         0.1002
     40 H9          3.0524    4.4010    7.5801 H         1 <0>         0.0840
     41 H10         2.2279    4.0794    6.0328 H         1 <0>         0.0932
     42 H11         3.2212    6.4096    6.2060 H         1 <0>         0.1103
     43 H12         1.4689    6.3909    5.8892 H         1 <0>         0.0576
     44 H13         0.6321    7.3442    9.2810 H         1 <0>         0.1128
     45 H14        -0.0424    6.9364    7.6840 H         1 <0>         0.0579
     46 H15        -0.4074    5.0348    9.1514 H         1 <0>         0.1056
     47 H16         1.3044    5.0348    9.6488 H         1 <0>         0.0808
     48 H17        -0.8406   -3.3352    2.1696 H         1 <0>         0.1484
     49 H18         0.0418   -4.2924    0.9558 H         1 <0>         0.1744
     50 H19         1.9094   -4.2379    5.1249 H         1 <0>         0.1486
     51 H20         3.8914   -4.4862    6.5592 H         1 <0>         0.1545
     52 H21         5.7840   -2.9309    6.3313 H         1 <0>         0.1550
     53 H22         5.7069   -1.1205    4.6684 H         1 <0>         0.1564
     54 H23         1.9073   -4.0414    2.2789 H         1 <0>         0.4489
@<TRIPOS>BOND
     1    1    2 1
     2    1   32 1
     3    1   33 1
     4    1   34 1
     5    2    6 1
     6    2    3 2
     7    3    4 1
     8    4    5 2
     9    5   24 1
    10    5    6 1
    11    6    7 1
    12    7   11 1
    13    7    8 2
    14    8    9 1
    15    8   22 1
    16    9   10 2
    17    9   35 1
    18   10   11 1
    19   10   12 1
    20   12   13 1
    21   12   36 1
    22   12   37 1
    23   13   14 1
    24   13   38 1
    25   13   39 1
    26   14   15 2
    27   14   16 am
    28   16   21 1
    29   16   17 1
    30   17   18 1
    31   17   40 1
    32   17   41 1
    33   18   19 1
    34   18   42 1
    35   18   43 1
    36   19   20 1
    37   20   21 1
    38   20   44 1
    39   20   45 1
    40   21   46 1
    41   21   47 1
    42   22   23 2
    43   22   25 1
    44   23   24 1
    45   23   54 1
    46   24   48 1
    47   24   49 1
    48   25   30 ar
    49   25   26 ar
    50   26   27 ar
    51   26   50 1
    52   27   28 ar
    53   27   51 1
    54   28   29 ar
    55   28   52 1
    56   29   30 ar
    57   29   53 1
    58   30   31 1
@<TRIPOS>MOLECULE
ZINC27657184
   73    78     0     0     0
SMALL
USER_CHARGES
ethyl (4S)-4-(2-chlorophenyl)-6-methyl-2-[4-(2-methylimidazo[4,5-c]pyridin-1-yl)phenyl]-5-(2-pyridylcarbamoyl)-1,4-dihydropyridine-3-carboxylate
@<TRIPOS>ATOM
      1 C1          0.2453    8.1171    0.6285 C.3       1 <0>        -0.1524
      2 C2          0.6598    6.6525    0.4732 C.3       1 <0>         0.0649
      3 O1         -0.5079    5.8356    0.3674 O.3       1 <0>        -0.3384
      4 C3         -0.3156    4.5067    0.2240 C.2       1 <0>         0.5177
      5 O2          0.8149    4.0553    0.1900 O.2       1 <0>        -0.5139
      6 C4         -1.4214    3.6436    0.1140 C.2       1 <0>        -0.2370
      7 C5         -1.2155    2.3260   -0.1573 C.2       1 <0>         0.2799
      8 N1         -2.2817    1.4606   -0.2671 N.pl3     1 <0>        -0.6411
      9 C6         -3.5031    1.8080    0.2463 C.2       1 <0>         0.1748
     10 C7         -3.7953    3.0873    0.5304 C.2       1 <0>        -0.2360
     11 C8         -2.8072    4.1940    0.2977 C.3       1 <0>         0.0762
     12 H1         -2.8077    4.8545    1.1773 H         1 <0>         0.1055
     13 C9         -3.2042    4.9600   -0.9379 C.ar      1 <0>        -0.0633
     14 C10        -3.2546    4.3195   -2.1619 C.ar      1 <0>        -0.0997
     15 C11        -3.6182    5.0220   -3.2953 C.ar      1 <0>        -0.1179
     16 C12        -3.9326    6.3655   -3.2055 C.ar      1 <0>        -0.1076
     17 C13        -3.8830    7.0067   -1.9824 C.ar      1 <0>        -0.1112
     18 C14        -3.5237    6.3028   -0.8465 C.ar      1 <0>        -0.0153
     19 Cl1        -3.4681    7.1060    0.6915 Cl        1 <0>        -0.0543
     20 C15        -5.0688    3.4014    1.0631 C.2       1 <0>         0.5754
     21 O3         -5.1833    3.6808    2.2427 O.2       1 <0>        -0.4626
     22 N2         -6.1544    3.3910    0.2645 N.am      1 <0>        -0.6706
     23 C16        -7.4198    3.6032    0.8067 C.ar      1 <0>         0.3647
     24 C17        -8.5450    3.4812   -0.0015 C.ar      1 <0>        -0.2104
     25 C18        -9.7961    3.6887    0.5513 C.ar      1 <0>        -0.0479
     26 C19        -9.8788    4.0238    1.8963 C.ar      1 <0>        -0.2079
     27 C20        -8.7196    4.1338    2.6381 C.ar      1 <0>         0.1323
     28 N3         -7.5401    3.9243    2.0852 N.ar      1 <0>        -0.4777
     29 C21        -4.5371    0.7392    0.4907 C.3       1 <0>        -0.1348
     30 C22         0.1585    1.8222   -0.3411 C.ar      1 <0>        -0.0421
     31 C23         0.9143    2.2336   -1.4428 C.ar      1 <0>        -0.0364
     32 C24         2.1946    1.7566   -1.6140 C.ar      1 <0>        -0.1049
     33 C25         2.7362    0.8670   -0.6923 C.ar      1 <0>         0.1303
     34 C26         1.9873    0.4549    0.4049 C.ar      1 <0>        -0.1065
     35 C27         0.7063    0.9275    0.5829 C.ar      1 <0>        -0.0760
     36 N4          4.0364    0.3854   -0.8693 N.pl3     1 <0>        -0.4441
     37 C28         5.1059    0.6253   -0.0564 C.2       1 <0>         0.3001
     38 N5          6.1616    0.0194   -0.5165 N.2       1 <0>        -0.4725
     39 C29         5.8473   -0.6417   -1.6588 C.ar      1 <0>        -0.0028
     40 C30         4.4777   -0.4146   -1.8995 C.ar      1 <0>         0.0817
     41 C31         3.8950   -0.9879   -3.0231 C.ar      1 <0>        -0.1573
     42 C32         4.6779   -1.7557   -3.8590 C.ar      1 <0>         0.0981
     43 N6          5.9613   -1.9520   -3.6081 N.ar      1 <0>        -0.4833
     44 C33         6.5621   -1.4324   -2.5579 C.ar      1 <0>         0.1742
     45 C34         5.0688    1.4660    1.1938 C.3       1 <0>        -0.0848
     46 H2          1.1442    8.7459    0.7099 H         1 <0>         0.0777
     47 H3         -0.3654    8.2310    1.5363 H         1 <0>         0.0664
     48 H4         -0.3409    8.4273   -0.2491 H         1 <0>         0.0658
     49 H5          1.2705    6.5386   -0.4346 H         1 <0>         0.0637
     50 H6          1.2460    6.3423    1.3508 H         1 <0>         0.0651
     51 H7         -2.1526    0.4895   -0.7675 H         1 <0>         0.4490
     52 H8         -3.0095    3.2701   -2.2326 H         1 <0>         0.1223
     53 H9         -3.6571    4.5213   -4.2514 H         1 <0>         0.1266
     54 H10        -4.2173    6.9137   -4.0914 H         1 <0>         0.1299
     55 H11        -4.1289    8.0560   -1.9123 H         1 <0>         0.1317
     56 H12        -6.0411    3.2149   -0.8154 H         1 <0>         0.4387
     57 H13        -8.4438    3.2233   -1.0453 H         1 <0>         0.1335
     58 H14       -10.6880    3.5964   -0.0507 H         1 <0>         0.1361
     59 H15       -10.8400    4.1970    2.3572 H         1 <0>         0.1344
     60 H16        -8.7791    4.3942    3.6845 H         1 <0>         0.1574
     61 H17        -5.4485    1.1979    0.9016 H         1 <0>         0.0880
     62 H18        -4.1419    0.0036    1.2068 H         1 <0>         0.0878
     63 H19        -4.7755    0.2360   -0.4579 H         1 <0>         0.0876
     64 H20         0.4944    2.9244   -2.1590 H         1 <0>         0.1296
     65 H21         2.7792    2.0742   -2.4647 H         1 <0>         0.1306
     66 H22         2.4111   -0.2363    1.1183 H         1 <0>         0.1329
     67 H23         0.1253    0.6071    1.4351 H         1 <0>         0.1344
     68 H24         2.8477   -0.8348   -3.2379 H         1 <0>         0.1329
     69 H25         4.2345   -2.2057   -4.7349 H         1 <0>         0.1642
     70 H26         7.6128   -1.6192   -2.3924 H         1 <0>         0.1674
     71 H27         6.0694    1.4885    1.6503 H         1 <0>         0.1039
     72 H28         4.3506    1.0330    1.9056 H         1 <0>         0.0870
     73 H29         4.7593    2.4901    0.9379 H         1 <0>         0.0900
@<TRIPOS>BOND
     1    1    2 1
     2    1   46 1
     3    1   47 1
     4    1   48 1
     5    2    3 1
     6    2   49 1
     7    2   50 1
     8    3    4 1
     9    4    5 2
    10    4    6 1
    11    6   11 1
    12    6    7 2
    13    7    8 1
    14    7   30 1
    15    8    9 1
    16    8   51 1
    17    9   10 2
    18    9   29 1
    19   10   11 1
    20   10   20 1
    21   11   12 1
    22   11   13 1
    23   13   18 ar
    24   13   14 ar
    25   14   15 ar
    26   14   52 1
    27   15   16 ar
    28   15   53 1
    29   16   17 ar
    30   16   54 1
    31   17   18 ar
    32   17   55 1
    33   18   19 1
    34   20   21 2
    35   20   22 am
    36   22   23 1
    37   22   56 1
    38   23   28 ar
    39   23   24 ar
    40   24   25 ar
    41   24   57 1
    42   25   26 ar
    43   25   58 1
    44   26   27 ar
    45   26   59 1
    46   27   28 ar
    47   27   60 1
    48   29   61 1
    49   29   62 1
    50   29   63 1
    51   30   35 ar
    52   30   31 ar
    53   31   32 ar
    54   31   64 1
    55   32   33 ar
    56   32   65 1
    57   33   34 ar
    58   33   36 1
    59   34   35 ar
    60   34   66 1
    61   35   67 1
    62   36   40 1
    63   36   37 1
    64   37   38 2
    65   37   45 1
    66   38   39 1
    67   39   44 ar
    68   39   40 ar
    69   40   41 ar
    70   41   42 ar
    71   41   68 1
    72   42   43 ar
    73   42   69 1
    74   43   44 ar
    75   44   70 1
    76   45   71 1
    77   45   72 1
    78   45   73 1
@<TRIPOS>MOLECULE
ZINC28771591
   73    78     0     0     0
SMALL
USER_CHARGES
ethyl (4R)-4-(2-chlorophenyl)-6-methyl-2-[4-(2-methylimidazo[4,5-c]pyridin-1-yl)phenyl]-5-(2-pyridylcarbamoyl)-1,4-dihydropyridine-3-carboxylate
@<TRIPOS>ATOM
      1 C1         -7.1919    0.2713    2.5935 C.3       1 <0>        -0.1519
      2 C2         -7.1364   -1.2472    2.4148 C.3       1 <0>         0.0648
      3 O1         -5.9528   -1.5993    1.6957 O.3       1 <0>        -0.3375
      4 C3         -5.7511   -2.9122    1.4522 C.2       1 <0>         0.5174
      5 O2         -6.5603   -3.7349    1.8411 O.2       1 <0>        -0.5149
      6 C4         -4.6060   -3.3296    0.7491 C.2       1 <0>        -0.2392
      7 C5         -4.4768   -4.6386    0.4004 C.2       1 <0>         0.2822
      8 N1         -3.3611   -5.0732   -0.2809 N.pl3     1 <0>        -0.6403
      9 C6         -2.2277   -4.3073   -0.3034 C.2       1 <0>         0.1757
     10 C7         -2.2670   -3.0033    0.0137 C.2       1 <0>        -0.2379
     11 C8         -3.5479   -2.3230    0.4033 C.3       1 <0>         0.0766
     12 H1         -3.3550   -1.6986    1.2882 H         1 <0>         0.1043
     13 C9         -4.0313   -1.4795   -0.7482 C.ar      1 <0>        -0.0640
     14 C10        -4.3188   -2.0699   -1.9647 C.ar      1 <0>        -0.1002
     15 C11        -4.7617   -1.2963   -3.0210 C.ar      1 <0>        -0.1179
     16 C12        -4.9184    0.0681   -2.8615 C.ar      1 <0>        -0.1074
     17 C13        -4.6318    0.6593   -1.6458 C.ar      1 <0>        -0.1113
     18 C14        -4.1929   -0.1152   -0.5864 C.ar      1 <0>        -0.0147
     19 Cl1        -3.8395    0.6257    0.9432 Cl        1 <0>        -0.0544
     20 C15        -1.0681   -2.2509   -0.0143 C.2       1 <0>         0.5764
     21 O3         -0.4699   -2.0201    1.0207 O.2       1 <0>        -0.4637
     22 N2         -0.5890   -1.7901   -1.1867 N.am      1 <0>        -0.6698
     23 C16         0.6406   -1.1369   -1.2281 C.ar      1 <0>         0.3647
     24 C17         1.1834   -0.7670   -2.4539 C.ar      1 <0>        -0.2102
     25 C18         2.4051   -0.1184   -2.4806 C.ar      1 <0>        -0.0478
     26 C19         3.0448    0.1391   -1.2754 C.ar      1 <0>        -0.2079
     27 C20         2.4478   -0.2565   -0.0951 C.ar      1 <0>         0.1321
     28 N3          1.2815   -0.8735   -0.1003 N.ar      1 <0>        -0.4781
     29 C21        -0.9146   -4.9371   -0.6908 C.3       1 <0>        -0.1331
     30 C22        -5.5391   -5.5989    0.7540 C.ar      1 <0>        -0.0495
     31 C23        -5.2567   -6.6770    1.5979 C.ar      1 <0>        -0.0760
     32 C24        -6.2527   -7.5675    1.9310 C.ar      1 <0>        -0.1106
     33 C25        -7.5352   -7.4028    1.4187 C.ar      1 <0>         0.1334
     34 C26        -7.8186   -6.3350    0.5738 C.ar      1 <0>        -0.1096
     35 C27        -6.8296   -5.4365    0.2414 C.ar      1 <0>        -0.0223
     36 N4         -8.5420   -8.3125    1.7542 N.pl3     1 <0>        -0.4440
     37 C28        -9.1836   -9.1610    0.8994 C.2       1 <0>         0.2948
     38 N5        -10.0635   -9.8673    1.5477 N.2       1 <0>        -0.4712
     39 C29       -10.0485   -9.5230    2.8600 C.ar      1 <0>        -0.0038
     40 C30        -9.0667   -8.5235    3.0096 C.ar      1 <0>         0.0837
     41 C31        -8.8516   -7.9853    4.2725 C.ar      1 <0>        -0.1552
     42 C32        -9.5980   -8.4567    5.3316 C.ar      1 <0>         0.0987
     43 N6        -10.5095   -9.3996    5.1625 N.ar      1 <0>        -0.4825
     44 C33       -10.7563   -9.9392    3.9871 C.ar      1 <0>         0.1732
     45 C34        -8.9132   -9.2646   -0.5795 C.3       1 <0>        -0.0831
     46 H2         -8.1030    0.5423    3.1471 H         1 <0>         0.0775
     47 H3         -7.2047    0.7564    1.6063 H         1 <0>         0.0660
     48 H4         -6.3079    0.6069    3.1556 H         1 <0>         0.0660
     49 H5         -7.1236   -1.7323    3.4020 H         1 <0>         0.0648
     50 H6         -8.0204   -1.5828    1.8527 H         1 <0>         0.0636
     51 H7         -3.3801   -6.0382   -0.8086 H         1 <0>         0.4489
     52 H8         -4.1969   -3.1356   -2.0898 H         1 <0>         0.1228
     53 H9         -4.9858   -1.7579   -3.9714 H         1 <0>         0.1269
     54 H10        -5.2645    0.6720   -3.6873 H         1 <0>         0.1300
     55 H11        -4.7546    1.7251   -1.5211 H         1 <0>         0.1316
     56 H12        -1.1690   -1.9298   -2.1109 H         1 <0>         0.4388
     57 H13         0.6585   -0.9834   -3.3726 H         1 <0>         0.1335
     58 H14         2.8510    0.1811   -3.4175 H         1 <0>         0.1362
     59 H15         3.9998    0.6433   -1.2615 H         1 <0>         0.1344
     60 H16         2.9415   -0.0579    0.8447 H         1 <0>         0.1574
     61 H17        -0.1190   -4.1784   -0.6539 H         1 <0>         0.0869
     62 H18        -0.9887   -5.3414   -1.7111 H         1 <0>         0.0872
     63 H19        -0.6776   -5.7513    0.0099 H         1 <0>         0.0880
     64 H20        -4.2599   -6.8083    1.9922 H         1 <0>         0.1339
     65 H21        -6.0366   -8.3978    2.5871 H         1 <0>         0.1315
     66 H22        -8.8158   -6.2102    0.1783 H         1 <0>         0.1317
     67 H23        -7.0505   -4.6072   -0.4142 H         1 <0>         0.1294
     68 H24        -8.1100   -7.2146    4.4226 H         1 <0>         0.1343
     69 H25        -9.4353   -8.0478    6.3179 H         1 <0>         0.1646
     70 H26       -11.5103  -10.7070    3.8955 H         1 <0>         0.1674
     71 H27        -9.5726  -10.0268   -1.0203 H         1 <0>         0.1042
     72 H28        -7.8633   -9.5502   -0.7411 H         1 <0>         0.0873
     73 H29        -9.1064   -8.2924   -1.0565 H         1 <0>         0.0871
@<TRIPOS>BOND
     1    1    2 1
     2    1   46 1
     3    1   47 1
     4    1   48 1
     5    2    3 1
     6    2   49 1
     7    2   50 1
     8    3    4 1
     9    4    5 2
    10    4    6 1
    11    6   11 1
    12    6    7 2
    13    7    8 1
    14    7   30 1
    15    8    9 1
    16    8   51 1
    17    9   10 2
    18    9   29 1
    19   10   11 1
    20   10   20 1
    21   11   12 1
    22   11   13 1
    23   13   18 ar
    24   13   14 ar
    25   14   15 ar
    26   14   52 1
    27   15   16 ar
    28   15   53 1
    29   16   17 ar
    30   16   54 1
    31   17   18 ar
    32   17   55 1
    33   18   19 1
    34   20   21 2
    35   20   22 am
    36   22   23 1
    37   22   56 1
    38   23   28 ar
    39   23   24 ar
    40   24   25 ar
    41   24   57 1
    42   25   26 ar
    43   25   58 1
    44   26   27 ar
    45   26   59 1
    46   27   28 ar
    47   27   60 1
    48   29   61 1
    49   29   62 1
    50   29   63 1
    51   30   35 ar
    52   30   31 ar
    53   31   32 ar
    54   31   64 1
    55   32   33 ar
    56   32   65 1
    57   33   34 ar
    58   33   36 1
    59   34   35 ar
    60   34   66 1
    61   35   67 1
    62   36   40 1
    63   36   37 1
    64   37   38 2
    65   37   45 1
    66   38   39 1
    67   39   44 ar
    68   39   40 ar
    69   40   41 ar
    70   41   42 ar
    71   41   68 1
    72   42   43 ar
    73   42   69 1
    74   43   44 ar
    75   44   70 1
    76   45   71 1
    77   45   72 1
    78   45   73 1
@<TRIPOS>MOLECULE
ZINC04098925
   55    57     0     0     0
SMALL
USER_CHARGES

@<TRIPOS>ATOM
      1 C1         -0.0187    1.5258    0.0104 C.3       1 <0>        -0.1470
      2 C2          0.0021   -0.0041    0.0020 C.3       1 <0>        -0.1122
      3 H1         -1.0116   -0.4042    0.0220 H         1 <0>         0.0927
      4 C3          0.7834   -0.5395   -1.2288 C.3       1 <0>        -0.1118
      5 H2          0.6514    0.1128   -2.0920 H         1 <0>         0.0926
      6 C4          2.2392   -0.4801   -0.7015 C.3       1 <0>         0.1289
      7 H3          2.6401    0.5277   -0.8101 H         1 <0>         0.0772
      8 O1          2.1497   -0.8341    0.6878 O.3       1 <0>        -0.3559
      9 C5          0.8312   -0.5488    1.1849 C.3       1 <0>         0.1291
     10 H4          0.3734   -1.4606    1.5685 H         1 <0>         0.0888
     11 C6          0.9050    0.4867    2.2773 C.ar      1 <0>        -0.0886
     12 C7          1.8010    1.5346    2.1748 C.ar      1 <0>        -0.0898
     13 C8          1.8726    2.4871    3.1742 C.ar      1 <0>        -0.1744
     14 C9          1.0449    2.3930    4.2815 C.ar      1 <0>         0.1006
     15 C10         0.1428    1.3385    4.3844 C.ar      1 <0>         0.0994
     16 C11         0.0728    0.3899    3.3768 C.ar      1 <0>        -0.1637
     17 O2         -0.6717    1.2419    5.4692 O.3       1 <0>        -0.3063
     18 C12        -1.5725    0.1332    5.5074 C.3       1 <0>         0.0258
     19 O3          1.1143    3.3289    5.2657 O.3       1 <0>        -0.3069
     20 C13         2.0640    4.3827    5.0930 C.3       1 <0>         0.0260
     21 C14         3.1039   -1.4685   -1.4406 C.ar      1 <0>        -0.0826
     22 C15         3.0740   -2.8063   -1.0929 C.ar      1 <0>        -0.0863
     23 C16         3.8654   -3.7169   -1.7679 C.ar      1 <0>        -0.1757
     24 C17         4.6906   -3.2897   -2.7958 C.ar      1 <0>         0.1022
     25 C18         4.7204   -1.9433   -3.1460 C.ar      1 <0>         0.0985
     26 C19         3.9211   -1.0365   -2.4686 C.ar      1 <0>        -0.1625
     27 O4          5.5286   -1.5191   -4.1541 O.3       1 <0>        -0.3061
     28 C20         5.5075   -0.1231   -4.4588 C.3       1 <0>         0.0258
     29 O5          5.4700   -4.1841   -3.4605 O.3       1 <0>        -0.3069
     30 C21         5.3882   -5.5494   -3.0465 C.3       1 <0>         0.0259
     31 C22         0.3740   -1.9761   -1.5596 C.3       1 <0>        -0.1447
     32 H5          1.0039    1.9031    0.0027 H         1 <0>         0.0613
     33 H6         -0.5459    1.8868   -0.8726 H         1 <0>         0.0578
     34 H7         -0.5289    1.8773    0.9072 H         1 <0>         0.0637
     35 H8          2.4467    1.6091    1.3123 H         1 <0>         0.1262
     36 H9          2.5739    3.3044    3.0920 H         1 <0>         0.1352
     37 H10        -0.6291   -0.4275    3.4524 H         1 <0>         0.1348
     38 H11        -2.1622    0.1756    6.4231 H         1 <0>         0.1011
     39 H12        -2.2375    0.1755    4.6447 H         1 <0>         0.0544
     40 H13        -1.0049   -0.7971    5.4834 H         1 <0>         0.0550
     41 H14         3.0661    3.9602    5.0194 H         1 <0>         0.0552
     42 H15         1.8339    4.9334    4.1810 H         1 <0>         0.0548
     43 H16         2.0164    5.0582    5.9471 H         1 <0>         0.1010
     44 H17         2.4313   -3.1406   -0.2920 H         1 <0>         0.1313
     45 H18         3.8407   -4.7613   -1.4939 H         1 <0>         0.1358
     46 H19         3.9395    0.0085   -2.7410 H         1 <0>         0.1346
     47 H20         6.1954    0.0801   -5.2796 H         1 <0>         0.1012
     48 H21         4.4987    0.1702   -4.7492 H         1 <0>         0.0544
     49 H22         5.8124    0.4453   -3.5801 H         1 <0>         0.0548
     50 H23         5.6786   -5.6295   -1.9990 H         1 <0>         0.0554
     51 H24         4.3651   -5.9053   -3.1682 H         1 <0>         0.0551
     52 H25         6.0584   -6.1549   -3.6567 H         1 <0>         0.1010
     53 H26        -0.6924   -2.0076   -1.7833 H         1 <0>         0.0583
     54 H27         0.9373   -2.3242   -2.4254 H         1 <0>         0.0636
     55 H28         0.5853   -2.6199   -0.7058 H         1 <0>         0.0617
@<TRIPOS>BOND
     1    1    2 1
     2    1   32 1
     3    1   33 1
     4    1   34 1
     5    2    3 1
     6    2    9 1
     7    2    4 1
     8    4    5 1
     9    4    6 1
    10    4   31 1
    11    6    7 1
    12    6    8 1
    13    6   21 1
    14    8    9 1
    15    9   10 1
    16    9   11 1
    17   11   16 ar
    18   11   12 ar
    19   12   13 ar
    20   12   35 1
    21   13   14 ar
    22   13   36 1
    23   14   15 ar
    24   14   19 1
    25   15   16 ar
    26   15   17 1
    27   16   37 1
    28   17   18 1
    29   18   38 1
    30   18   39 1
    31   18   40 1
    32   19   20 1
    33   20   41 1
    34   20   42 1
    35   20   43 1
    36   21   26 ar
    37   21   22 ar
    38   22   23 ar
    39   22   44 1
    40   23   24 ar
    41   23   45 1
    42   24   25 ar
    43   24   29 1
    44   25   26 ar
    45   25   27 1
    46   26   46 1
    47   27   28 1
    48   28   47 1
    49   28   48 1
    50   28   49 1
    51   29   30 1
    52   30   50 1
    53   30   51 1
    54   30   52 1
    55   31   53 1
    56   31   54 1
    57   31   55 1
@<TRIPOS>MOLECULE
ZINC17836230
   55    57     0     0     0
SMALL
USER_CHARGES

@<TRIPOS>ATOM
      1 C1         -0.0187    1.5258    0.0104 C.3       1 <0>        -0.1460
      2 C2          0.0021   -0.0041    0.0020 C.3       1 <0>        -0.1153
      3 H1         -1.0138   -0.3986    0.0221 H         1 <0>         0.0909
      4 C3          0.7627   -0.5288   -1.2400 C.3       1 <0>        -0.1101
      5 H2          0.8119    0.2340   -2.0170 H         1 <0>         0.0899
      6 C4          2.1704   -0.8192   -0.6600 C.3       1 <0>         0.1251
      7 H3          2.7584    0.0968   -0.6029 H         1 <0>         0.0787
      8 O1          1.8916   -1.3276    0.6622 O.3       1 <0>        -0.3541
      9 C5          0.8122   -0.5391    1.1987 C.3       1 <0>         0.1267
     10 H4          1.2126    0.2935    1.7772 H         1 <0>         0.0796
     11 C6         -0.0681   -1.3964    2.0712 C.ar      1 <0>        -0.0835
     12 C7         -0.2412   -2.7351    1.7724 C.ar      1 <0>        -0.0909
     13 C8         -1.0476   -3.5258    2.5696 C.ar      1 <0>        -0.1737
     14 C9         -1.6842   -2.9770    3.6712 C.ar      1 <0>         0.1015
     15 C10        -1.5096   -1.6297    3.9722 C.ar      1 <0>         0.1001
     16 C11        -0.6961   -0.8439    3.1718 C.ar      1 <0>        -0.1628
     17 O2         -2.1323   -1.0865    5.0524 O.3       1 <0>        -0.3059
     18 C12        -1.9072    0.3027    5.3003 C.3       1 <0>         0.0256
     19 O3         -2.4783   -3.7533    4.4562 O.3       1 <0>        -0.3067
     20 C13        -2.6116   -5.1273    4.0866 C.3       1 <0>         0.0258
     21 C14         2.8835   -1.8546   -1.4909 C.ar      1 <0>        -0.0777
     22 C15         2.5865   -3.1949   -1.3266 C.ar      1 <0>        -0.0863
     23 C16         3.2378   -4.1485   -2.0864 C.ar      1 <0>        -0.1756
     24 C17         4.1904   -3.7620   -3.0154 C.ar      1 <0>         0.1028
     25 C18         4.4890   -2.4130   -3.1812 C.ar      1 <0>         0.0990
     26 C19         3.8290   -1.4619   -2.4198 C.ar      1 <0>        -0.1620
     27 O4          5.4232   -2.0287   -4.0917 O.3       1 <0>        -0.3059
     28 C20         5.6781   -0.6274   -4.2077 C.3       1 <0>         0.0256
     29 O5          4.8324   -4.6990   -3.7634 O.3       1 <0>        -0.3066
     30 C21         4.4753   -6.0643   -3.5391 C.3       1 <0>         0.0258
     31 C22         0.1172   -1.8086   -1.7751 C.3       1 <0>        -0.1444
     32 H5          1.0039    1.9031    0.0027 H         1 <0>         0.0580
     33 H6         -0.5459    1.8868   -0.8726 H         1 <0>         0.0628
     34 H7         -0.5289    1.8773    0.9072 H         1 <0>         0.0598
     35 H8          0.2545   -3.1641    0.9140 H         1 <0>         0.1302
     36 H9         -1.1817   -4.5711    2.3336 H         1 <0>         0.1359
     37 H10        -0.5559    0.2012    3.4054 H         1 <0>         0.1352
     38 H11        -2.4605    0.6076    6.1886 H         1 <0>         0.1014
     39 H12        -0.8427    0.4757    5.4582 H         1 <0>         0.0550
     40 H13        -2.2466    0.8844    4.4433 H         1 <0>         0.0546
     41 H14        -3.0350   -5.1945    3.0845 H         1 <0>         0.0550
     42 H15        -1.6313   -5.6037    4.0995 H         1 <0>         0.0553
     43 H16        -3.2701   -5.6316    4.7938 H         1 <0>         0.1012
     44 H17         1.8442   -3.4974   -0.6028 H         1 <0>         0.1311
     45 H18         3.0045   -5.1949   -1.9555 H         1 <0>         0.1361
     46 H19         4.0562   -0.4140   -2.5491 H         1 <0>         0.1352
     47 H20         6.4418   -0.4586   -4.9669 H         1 <0>         0.1013
     48 H21         4.7606   -0.1137   -4.4948 H         1 <0>         0.0546
     49 H22         6.0264   -0.2410   -3.2498 H         1 <0>         0.0549
     50 H23         4.6797   -6.3276   -2.5013 H         1 <0>         0.0554
     51 H24         3.4139   -6.2010   -3.7464 H         1 <0>         0.0551
     52 H25         5.0598   -6.7058   -4.1986 H         1 <0>         0.1011
     53 H26        -0.9156   -1.6041   -2.0573 H         1 <0>         0.0567
     54 H27         0.6700   -2.1571   -2.6475 H         1 <0>         0.0618
     55 H28         0.1373   -2.5765   -1.0018 H         1 <0>         0.0627
@<TRIPOS>BOND
     1    1    2 1
     2    1   32 1
     3    1   33 1
     4    1   34 1
     5    2    3 1
     6    2    9 1
     7    2    4 1
     8    4    5 1
     9    4    6 1
    10    4   31 1
    11    6    7 1
    12    6    8 1
    13    6   21 1
    14    8    9 1
    15    9   10 1
    16    9   11 1
    17   11   16 ar
    18   11   12 ar
    19   12   13 ar
    20   12   35 1
    21   13   14 ar
    22   13   36 1
    23   14   15 ar
    24   14   19 1
    25   15   16 ar
    26   15   17 1
    27   16   37 1
    28   17   18 1
    29   18   38 1
    30   18   39 1
    31   18   40 1
    32   19   20 1
    33   20   41 1
    34   20   42 1
    35   20   43 1
    36   21   26 ar
    37   21   22 ar
    38   22   23 ar
    39   22   44 1
    40   23   24 ar
    41   23   45 1
    42   24   25 ar
    43   24   29 1
    44   25   26 ar
    45   25   27 1
    46   26   46 1
    47   27   28 1
    48   28   47 1
    49   28   48 1
    50   28   49 1
    51   29   30 1
    52   30   50 1
    53   30   51 1
    54   30   52 1
    55   31   53 1
    56   31   54 1
    57   31   55 1
@<TRIPOS>MOLECULE
ZINC08034876
   92    92     0     0     0
SMALL
USER_CHARGES

@<TRIPOS>ATOM
      1 C1         -0.0187    1.5258    0.0104 C.3       1 <0>        -0.1542
      2 C2          0.0021   -0.0041    0.0020 C.3       1 <0>        -0.1262
      3 C3         -1.4333   -0.5336    0.0129 C.3       1 <0>        -0.1212
      4 C4         -1.4126   -2.0635    0.0045 C.3       1 <0>        -0.1212
      5 C5         -2.8479   -2.5931    0.0153 C.3       1 <0>        -0.1206
      6 C6         -2.8272   -4.1229    0.0069 C.3       1 <0>        -0.1207
      7 C7         -4.2626   -4.6525    0.0178 C.3       1 <0>        -0.1205
      8 C8         -4.2418   -6.1823    0.0094 C.3       1 <0>        -0.1206
      9 C9         -5.6772   -6.7119    0.0202 C.3       1 <0>        -0.1205
     10 C10        -5.6565   -8.2417    0.0118 C.3       1 <0>        -0.1207
     11 C11        -7.0918   -8.7713    0.0227 C.3       1 <0>        -0.1204
     12 C12        -7.0711  -10.3012    0.0143 C.3       1 <0>        -0.1209
     13 C13        -8.5065  -10.8307    0.0251 C.3       1 <0>        -0.1204
     14 C14        -8.4857  -12.3606    0.0167 C.3       1 <0>        -0.1212
     15 C15        -9.9211  -12.8902    0.0276 C.3       1 <0>        -0.1191
     16 C16        -9.9004  -14.4200    0.0191 C.3       1 <0>        -0.1170
     17 C17       -11.3358  -14.9496    0.0300 C.3       1 <0>        -0.1320
     18 C18       -11.3150  -16.4794    0.0216 C.3       1 <0>         0.1354
     19 N1        -12.6894  -16.9865    0.0320 N.am      1 <0>        -0.7109
     20 C19       -12.9177  -18.3148    0.0270 C.2       1 <0>         0.6468
     21 O1        -11.9835  -19.0917    0.0140 O.2       1 <0>        -0.5689
     22 O2        -14.1808  -18.7808    0.0366 O.3       1 <0>        -0.3573
     23 C20       -14.3488  -20.1999    0.0306 C.3       1 <0>         0.0892
     24 C21       -15.8412  -20.5368    0.0430 C.3       1 <0>         0.0893
     25 C22       -16.0234  -22.0502   -0.0891 C.3       1 <0>         0.1189
     26 O3        -17.4156  -22.3548   -0.1946 O.3       1 <0>        -0.7571
     27 P1        -17.9754  -23.8566   -0.3477 P.3       1 <0>         2.2236
     28 O4        -17.3035  -24.5353   -1.5622 O.2       1 <0>        -1.0914
     29 O5        -17.6548  -24.6589    0.9331 O.3       1 <0>        -1.0845
     30 O6        -19.5694  -23.8151   -0.5701 O.3       1 <0>        -0.7515
     31 C23       -20.3478  -24.9820   -0.8430 C.3       1 <0>         0.1219
     32 C24       -21.8183  -24.5891   -0.9991 C.3       1 <0>         0.0446
     33 N2        -22.6163  -25.7854   -1.2789 N.pl3     1 <0>        -0.3614
     34 C25       -22.8026  -26.1591   -2.5291 C.2       1 <0>         0.0204
     35 C26       -23.5496  -27.2743   -2.7331 C.2       1 <0>        -0.1762
     36 S1        -23.9434  -27.7192   -1.0493 S.3       1 <0>         0.4135
     37 C27       -23.1255  -26.4644   -0.2815 C.2       1 <0>         0.0055
     38 O7        -16.4195  -20.0929    1.2720 O.3       1 <0>        -0.3741
     39 C28       -17.7955  -19.7220    1.1664 C.3       1 <0>         0.0348
     40 H1          1.0039    1.9031    0.0027 H         1 <0>         0.0534
     41 H2         -0.5459    1.8868   -0.8726 H         1 <0>         0.0533
     42 H3         -0.5289    1.8773    0.9072 H         1 <0>         0.0533
     43 H4          0.5123   -0.3556   -0.8948 H         1 <0>         0.0603
     44 H5          0.5293   -0.3651    0.8851 H         1 <0>         0.0603
     45 H6         -1.9435   -0.1821    0.9097 H         1 <0>         0.0605
     46 H7         -1.9605   -0.1726   -0.8702 H         1 <0>         0.0605
     47 H8         -0.9024   -2.4150   -0.8923 H         1 <0>         0.0605
     48 H9         -0.8854   -2.4246    0.8875 H         1 <0>         0.0605
     49 H10        -3.3581   -2.2415    0.9121 H         1 <0>         0.0603
     50 H11        -3.3751   -2.2320   -0.8677 H         1 <0>         0.0603
     51 H12        -2.3170   -4.4744   -0.8899 H         1 <0>         0.0604
     52 H13        -2.3000   -4.4840    0.8900 H         1 <0>         0.0604
     53 H14        -4.7728   -4.3010    0.9146 H         1 <0>         0.0603
     54 H15        -4.7898   -4.2914   -0.8653 H         1 <0>         0.0602
     55 H16        -3.7316   -6.5338   -0.8874 H         1 <0>         0.0603
     56 H17        -3.7146   -6.5434    0.8924 H         1 <0>         0.0604
     57 H18        -6.1874   -6.3604    0.9170 H         1 <0>         0.0602
     58 H19        -6.2044   -6.3508   -0.8628 H         1 <0>         0.0602
     59 H20        -5.1463   -8.5933   -0.8850 H         1 <0>         0.0604
     60 H21        -5.1293   -8.6028    0.8949 H         1 <0>         0.0604
     61 H22        -7.6020   -8.4198    0.9195 H         1 <0>         0.0602
     62 H23        -7.6190   -8.4102   -0.8604 H         1 <0>         0.0601
     63 H24        -6.5609  -10.6527   -0.8825 H         1 <0>         0.0605
     64 H25        -6.5439  -10.6622    0.8973 H         1 <0>         0.0606
     65 H26        -9.0167  -10.4792    0.9219 H         1 <0>         0.0604
     66 H27        -9.0337  -10.4697   -0.8579 H         1 <0>         0.0603
     67 H28        -7.9755  -12.7121   -0.8801 H         1 <0>         0.0616
     68 H29        -7.9586  -12.7217    0.8998 H         1 <0>         0.0618
     69 H30       -10.4313  -12.5386    0.9244 H         1 <0>         0.0622
     70 H31       -10.4483  -12.5291   -0.8555 H         1 <0>         0.0620
     71 H32        -9.3902  -14.7715   -0.8776 H         1 <0>         0.0668
     72 H33        -9.3732  -14.7811    0.9022 H         1 <0>         0.0670
     73 H34       -11.8459  -14.5981    0.9268 H         1 <0>         0.0718
     74 H35       -11.8629  -14.5885   -0.8531 H         1 <0>         0.0714
     75 H36       -10.8048  -16.8309   -0.8752 H         1 <0>         0.0714
     76 H37       -10.7878  -16.8405    0.9047 H         1 <0>         0.0716
     77 H38       -13.4351  -16.3663    0.0424 H         1 <0>         0.4070
     78 H39       -13.8898  -20.6163   -0.8661 H         1 <0>         0.0884
     79 H40       -13.8728  -20.6258    0.9138 H         1 <0>         0.0838
     80 H41       -16.3334  -20.0373   -0.7915 H         1 <0>         0.0792
     81 H42       -15.5059  -22.4019   -0.9816 H         1 <0>         0.0702
     82 H43       -15.6090  -22.5441    0.7897 H         1 <0>         0.0702
     83 H44       -19.9960  -25.4461   -1.7644 H         1 <0>         0.0720
     84 H45       -20.2458  -25.6878   -0.0187 H         1 <0>         0.0690
     85 H46       -22.1701  -24.1250   -0.0777 H         1 <0>         0.1347
     86 H47       -21.9203  -23.8833   -1.8234 H         1 <0>         0.1342
     87 H48       -22.3806  -25.6035   -3.3535 H         1 <0>         0.2242
     88 H49       -23.8287  -27.7579   -3.6576 H         1 <0>         0.2418
     89 H50       -23.0425  -26.2662    0.7769 H         1 <0>         0.2649
     90 H51       -18.1600  -19.3970    2.1409 H         1 <0>         0.0787
     91 H52       -17.8982  -18.9072    0.4498 H         1 <0>         0.0356
     92 H53       -18.3778  -20.5791    0.8280 H         1 <0>         0.0570
@<TRIPOS>BOND
     1    1    2 1
     2    1   40 1
     3    1   41 1
     4    1   42 1
     5    2    3 1
     6    2   43 1
     7    2   44 1
     8    3    4 1
     9    3   45 1
    10    3   46 1
    11    4    5 1
    12    4   47 1
    13    4   48 1
    14    5    6 1
    15    5   49 1
    16    5   50 1
    17    6    7 1
    18    6   51 1
    19    6   52 1
    20    7    8 1
    21    7   53 1
    22    7   54 1
    23    8    9 1
    24    8   55 1
    25    8   56 1
    26    9   10 1
    27    9   57 1
    28    9   58 1
    29   10   11 1
    30   10   59 1
    31   10   60 1
    32   11   12 1
    33   11   61 1
    34   11   62 1
    35   12   13 1
    36   12   63 1
    37   12   64 1
    38   13   14 1
    39   13   65 1
    40   13   66 1
    41   14   15 1
    42   14   67 1
    43   14   68 1
    44   15   16 1
    45   15   69 1
    46   15   70 1
    47   16   17 1
    48   16   71 1
    49   16   72 1
    50   17   18 1
    51   17   73 1
    52   17   74 1
    53   18   19 1
    54   18   75 1
    55   18   76 1
    56   19   20 am
    57   19   77 1
    58   20   21 2
    59   20   22 1
    60   22   23 1
    61   23   24 1
    62   23   78 1
    63   23   79 1
    64   24   25 1
    65   24   38 1
    66   24   80 1
    67   25   26 1
    68   25   81 1
    69   25   82 1
    70   26   27 1
    71   27   28 2
    72   27   29 1
    73   27   30 1
    74   30   31 1
    75   31   32 1
    76   31   83 1
    77   31   84 1
    78   32   33 1
    79   32   85 1
    80   32   86 1
    81   33   37 2
    82   33   34 1
    83   34   35 2
    84   34   87 1
    85   35   36 1
    86   35   88 1
    87   36   37 1
    88   37   89 1
    89   38   39 1
    90   39   90 1
    91   39   91 1
    92   39   92 1
@<TRIPOS>MOLECULE
ZINC08195613
   92    92     0     0     0
SMALL
USER_CHARGES

@<TRIPOS>ATOM
      1 C1         -0.0187    1.5258    0.0104 C.3       1 <0>        -0.1542
      2 C2          0.0021   -0.0041    0.0020 C.3       1 <0>        -0.1262
      3 C3          0.7421   -0.5109    1.2415 C.3       1 <0>        -0.1212
      4 C4          0.7628   -2.0407    1.2331 C.3       1 <0>        -0.1212
      5 C5          1.5028   -2.5476    2.4727 C.3       1 <0>        -0.1206
      6 C6          1.5236   -4.0774    2.4642 C.3       1 <0>        -0.1207
      7 C7          2.2636   -4.5842    3.7038 C.3       1 <0>        -0.1205
      8 C8          2.2843   -6.1141    3.6954 C.3       1 <0>        -0.1207
      9 C9          3.0243   -6.6209    4.9349 C.3       1 <0>        -0.1205
     10 C10         3.0450   -8.1508    4.9265 C.3       1 <0>        -0.1207
     11 C11         3.7850   -8.6576    6.1660 C.3       1 <0>        -0.1204
     12 C12         3.8058  -10.1874    6.1576 C.3       1 <0>        -0.1209
     13 C13         4.5458  -10.6943    7.3971 C.3       1 <0>        -0.1204
     14 C14         4.5665  -12.2241    7.3887 C.3       1 <0>        -0.1212
     15 C15         5.3065  -12.7309    8.6282 C.3       1 <0>        -0.1190
     16 C16         5.3273  -14.2608    8.6198 C.3       1 <0>        -0.1171
     17 C17         6.0673  -14.7676    9.8593 C.3       1 <0>        -0.1318
     18 C18         6.0880  -16.2974    9.8509 C.3       1 <0>         0.1351
     19 N1          6.7966  -16.7827   11.0378 N.am      1 <0>        -0.7111
     20 C19         6.9397  -18.1071   11.2426 C.2       1 <0>         0.6454
     21 O1          6.4810  -18.8987   10.4428 O.2       1 <0>        -0.5668
     22 O2          7.5909  -18.5531   12.3334 O.3       1 <0>        -0.3619
     23 C20         7.7052  -19.9693   12.4868 C.3       1 <0>         0.0622
     24 C21         8.4702  -20.2826   13.7743 C.3       1 <0>         0.0902
     25 H1          9.4310  -19.7680   13.7604 H         1 <0>         0.0805
     26 C22         8.7014  -21.7916   13.8757 C.3       1 <0>         0.1436
     27 O3          9.5152  -22.0733   15.0161 O.3       1 <0>        -0.7547
     28 P1          9.9591  -23.5645   15.4299 P.3       1 <0>         2.2266
     29 O4          8.7038  -24.4526   15.5797 O.2       1 <0>        -1.0905
     30 O5         10.8772  -24.1512   14.3344 O.3       1 <0>        -1.0873
     31 O6         10.7544  -23.5190   16.8289 O.3       1 <0>        -0.7509
     32 C23        11.1896  -24.6943   17.5155 C.3       1 <0>         0.1218
     33 C24        11.9093  -24.2947   18.8051 C.3       1 <0>         0.0442
     34 N2         12.3554  -25.4996   19.5089 N.pl3     1 <0>        -0.3611
     35 C25        11.5519  -26.0707   20.3840 C.2       1 <0>         0.0208
     36 C26        12.0139  -27.1844   21.0081 C.2       1 <0>        -0.1760
     37 S1         13.6295  -27.3333   20.2623 S.3       1 <0>         0.4120
     38 C27        13.5421  -25.9902   19.2517 C.2       1 <0>         0.0055
     39 O7          7.7092  -19.8406   14.9001 O.3       1 <0>        -0.3692
     40 C28         7.9835  -18.4949   15.2949 C.3       1 <0>         0.0317
     41 H2          1.0039    1.9031    0.0027 H         1 <0>         0.0533
     42 H3         -0.5459    1.8868   -0.8726 H         1 <0>         0.0534
     43 H4         -0.5289    1.8773    0.9072 H         1 <0>         0.0533
     44 H5         -1.0205   -0.3814    0.0098 H         1 <0>         0.0603
     45 H6          0.5123   -0.3556   -0.8948 H         1 <0>         0.0603
     46 H7          1.7647   -0.1336    1.2338 H         1 <0>         0.0605
     47 H8          0.2319   -0.1594    2.1383 H         1 <0>         0.0605
     48 H9         -0.2598   -2.4180    1.2409 H         1 <0>         0.0605
     49 H10         1.2730   -2.3923    0.3363 H         1 <0>         0.0605
     50 H11         2.5254   -2.1703    2.4649 H         1 <0>         0.0603
     51 H12         0.9926   -2.1961    3.3695 H         1 <0>         0.0603
     52 H13         0.5010   -4.4547    2.4720 H         1 <0>         0.0604
     53 H14         2.0337   -4.4289    1.5675 H         1 <0>         0.0604
     54 H15         3.2861   -4.2070    3.6960 H         1 <0>         0.0602
     55 H16         1.7534   -4.2327    4.6006 H         1 <0>         0.0602
     56 H17         1.2617   -6.4914    3.7031 H         1 <0>         0.0604
     57 H18         2.7945   -6.4656    2.7986 H         1 <0>         0.0604
     58 H19         4.0469   -6.2436    4.9271 H         1 <0>         0.0602
     59 H20         2.5141   -6.2694    5.8317 H         1 <0>         0.0602
     60 H21         2.0224   -8.5280    4.9342 H         1 <0>         0.0604
     61 H22         3.5552   -8.5023    4.0297 H         1 <0>         0.0604
     62 H23         4.8076   -8.2803    6.1583 H         1 <0>         0.0601
     63 H24         3.2748   -8.3061    7.0628 H         1 <0>         0.0602
     64 H25         2.7832  -10.5647    6.1653 H         1 <0>         0.0606
     65 H26         4.3160  -10.5389    5.2608 H         1 <0>         0.0606
     66 H27         5.5684  -10.3170    7.3894 H         1 <0>         0.0604
     67 H28         4.0356  -10.3427    8.2939 H         1 <0>         0.0604
     68 H29         3.5439  -12.6014    7.3964 H         1 <0>         0.0617
     69 H30         5.0767  -12.5756    6.4919 H         1 <0>         0.0617
     70 H31         6.3291  -12.3537    8.6205 H         1 <0>         0.0621
     71 H32         4.7963  -12.3794    9.5250 H         1 <0>         0.0621
     72 H33         4.3047  -14.6381    8.6275 H         1 <0>         0.0670
     73 H34         5.8375  -14.6123    7.7230 H         1 <0>         0.0669
     74 H35         7.0898  -14.3903    9.8516 H         1 <0>         0.0715
     75 H36         5.5571  -14.4161   10.7561 H         1 <0>         0.0716
     76 H37         5.0654  -16.6747    9.8587 H         1 <0>         0.0716
     77 H38         6.5982  -16.6490    8.9541 H         1 <0>         0.0716
     78 H39         7.1627  -16.1509   11.6762 H         1 <0>         0.4063
     79 H40         6.7099  -20.4106   12.5390 H         1 <0>         0.0837
     80 H41         8.2427  -20.3849   11.6345 H         1 <0>         0.0839
     81 H42         7.7428  -22.3000   13.9789 H         1 <0>         0.0719
     82 H43         9.2041  -22.1435   12.9748 H         1 <0>         0.0742
     83 H44        10.3262  -25.3139   17.7582 H         1 <0>         0.0723
     84 H45        11.8720  -25.2560   16.8776 H         1 <0>         0.0687
     85 H46        12.7726  -23.6751   18.5624 H         1 <0>         0.1346
     86 H47        11.2268  -23.7330   19.4430 H         1 <0>         0.1347
     87 H48        10.5712  -25.6707   20.5952 H         1 <0>         0.2245
     88 H49        11.5367  -27.8072   21.7502 H         1 <0>         0.2418
     89 H50        14.2852  -25.6213   18.5603 H         1 <0>         0.2647
     90 H51         9.0363  -18.4019   15.5617 H         1 <0>         0.0391
     91 H52         7.7572  -17.8206   14.4689 H         1 <0>         0.0496
     92 H53         7.3664  -18.2356   16.1551 H         1 <0>         0.0807
@<TRIPOS>BOND
     1    1    2 1
     2    1   41 1
     3    1   42 1
     4    1   43 1
     5    2    3 1
     6    2   44 1
     7    2   45 1
     8    3    4 1
     9    3   46 1
    10    3   47 1
    11    4    5 1
    12    4   48 1
    13    4   49 1
    14    5    6 1
    15    5   50 1
    16    5   51 1
    17    6    7 1
    18    6   52 1
    19    6   53 1
    20    7    8 1
    21    7   54 1
    22    7   55 1
    23    8    9 1
    24    8   56 1
    25    8   57 1
    26    9   10 1
    27    9   58 1
    28    9   59 1
    29   10   11 1
    30   10   60 1
    31   10   61 1
    32   11   12 1
    33   11   62 1
    34   11   63 1
    35   12   13 1
    36   12   64 1
    37   12   65 1
    38   13   14 1
    39   13   66 1
    40   13   67 1
    41   14   15 1
    42   14   68 1
    43   14   69 1
    44   15   16 1
    45   15   70 1
    46   15   71 1
    47   16   17 1
    48   16   72 1
    49   16   73 1
    50   17   18 1
    51   17   74 1
    52   17   75 1
    53   18   19 1
    54   18   76 1
    55   18   77 1
    56   19   20 am
    57   19   78 1
    58   20   21 2
    59   20   22 1
    60   22   23 1
    61   23   24 1
    62   23   79 1
    63   23   80 1
    64   24   25 1
    65   24   26 1
    66   24   39 1
    67   26   27 1
    68   26   81 1
    69   26   82 1
    70   27   28 1
    71   28   29 2
    72   28   30 1
    73   28   31 1
    74   31   32 1
    75   32   33 1
    76   32   83 1
    77   32   84 1
    78   33   34 1
    79   33   85 1
    80   33   86 1
    81   34   38 2
    82   34   35 1
    83   35   36 2
    84   35   87 1
    85   36   37 1
    86   36   88 1
    87   37   38 1
    88   38   89 1
    89   39   40 1
    90   40   90 1
    91   40   91 1
    92   40   92 1
@<TRIPOS>MOLECULE
ZINC04098814
   50    52     0     0     0
SMALL
USER_CHARGES
5-allyl-2-(3,4-dimethoxyphenyl)-3a-methoxy-3-methyl-2,3-dihydrobenzofuran-6-one
@<TRIPOS>ATOM
      1 C1         -1.6353   -1.8597    0.5246 C.3       1 <0>        -0.1484
      2 C2         -1.4383   -0.5208   -0.1891 C.3       1 <0>        -0.1052
      3 H1         -2.1635    0.2152    0.1581 H         1 <0>         0.1177
      4 C3         -1.5252   -0.6974   -1.7251 C.3       1 <0>         0.1311
      5 H2         -1.7118   -1.7423   -1.9732 H         1 <0>         0.1047
      6 O1         -0.2226   -0.2775   -2.2520 O.3       1 <0>        -0.2773
      7 C4          0.6854   -0.4846   -1.2732 C.2       1 <0>         0.1316
      8 C5          1.8975   -1.0401   -1.1861 C.2       1 <0>        -0.2471
      9 C6          2.4786   -1.3011    0.0795 C.2       1 <0>         0.4281
     10 O2          3.6328   -1.6868    0.1365 O.2       1 <0>        -0.4414
     11 C7          1.7201   -1.1174    1.3255 C.2       1 <0>        -0.1598
     12 C8          0.5467   -0.4922    1.3169 C.2       1 <0>        -0.0978
     13 C9          0.0021   -0.0041    0.0020 C.3       1 <0>         0.1116
     14 O3         -0.0173    1.4248    0.0099 O.3       1 <0>        -0.3460
     15 C10         1.2801    2.0237    0.0007 C.3       1 <0>         0.0176
     16 C11         2.2907   -1.6194    2.6268 C.3       1 <0>        -0.0507
     17 C12         1.9455   -3.0764    2.7978 C.2       1 <0>        -0.1592
     18 C13         2.8952   -3.9544    3.0060 C.2       1 <0>        -0.1767
     19 C14        -2.6185    0.1742   -2.2872 C.ar      1 <0>        -0.0967
     20 C15        -2.3704    1.5088   -2.5494 C.ar      1 <0>        -0.0787
     21 C16        -3.3684    2.3111   -3.0704 C.ar      1 <0>        -0.1739
     22 C17        -4.6239    1.7809   -3.3204 C.ar      1 <0>         0.1099
     23 C18        -4.8752    0.4389   -3.0513 C.ar      1 <0>         0.0995
     24 C19        -3.8689   -0.3611   -2.5344 C.ar      1 <0>        -0.1565
     25 O4         -6.1057   -0.0862   -3.2954 O.3       1 <0>        -0.3043
     26 C20        -6.2912   -1.4710   -2.9954 C.3       1 <0>         0.0247
     27 O5         -5.6082    2.5700   -3.8282 O.3       1 <0>        -0.3051
     28 C21        -5.2784    3.9375   -4.0797 C.3       1 <0>         0.0248
     29 H3         -1.4458   -1.7345    1.5907 H         1 <0>         0.0747
     30 H4         -2.6587   -2.2039    0.3754 H         1 <0>         0.0736
     31 H5         -0.9416   -2.5946    0.1162 H         1 <0>         0.0632
     32 H6          2.4381   -1.2915   -2.0866 H         1 <0>         0.1498
     33 H7         -0.0083   -0.3528    2.2329 H         1 <0>         0.1488
     34 H8          1.1793    3.1090    0.0075 H         1 <0>         0.0974
     35 H9          1.8338    1.7047    0.8837 H         1 <0>         0.0486
     36 H10         1.8168    1.7143   -0.8961 H         1 <0>         0.0469
     37 H11         3.3742   -1.5013    2.6180 H         1 <0>         0.0875
     38 H12         1.8694   -1.0468    3.4531 H         1 <0>         0.0859
     39 H13         0.9153   -3.3966    2.7487 H         1 <0>         0.1091
     40 H14         3.9254   -3.6341    3.0551 H         1 <0>         0.0995
     41 H15         2.6478   -4.9985    3.1285 H         1 <0>         0.0995
     42 H16        -1.3936    1.9244   -2.3508 H         1 <0>         0.1343
     43 H17        -3.1707    3.3523   -3.2785 H         1 <0>         0.1385
     44 H18        -4.0613   -1.4030   -2.3249 H         1 <0>         0.1378
     45 H19        -5.5958   -2.0671   -3.5863 H         1 <0>         0.0555
     46 H20        -6.1053   -1.6411   -1.9349 H         1 <0>         0.0553
     47 H21        -7.3140   -1.7611   -3.2361 H         1 <0>         0.1024
     48 H22        -4.4618    3.9878   -4.8001 H         1 <0>         0.0563
     49 H23        -6.1501    4.4534   -4.4822 H         1 <0>         0.1024
     50 H24        -4.9715    4.4144   -3.1489 H         1 <0>         0.0565
@<TRIPOS>BOND
     1    1    2 1
     2    1   29 1
     3    1   30 1
     4    1   31 1
     5    2    3 1
     6    2   13 1
     7    2    4 1
     8    4    5 1
     9    4    6 1
    10    4   19 1
    11    6    7 1
    12    7   13 1
    13    7    8 2
    14    8    9 1
    15    8   32 1
    16    9   10 2
    17    9   11 1
    18   11   12 2
    19   11   16 1
    20   12   13 1
    21   12   33 1
    22   13   14 1
    23   14   15 1
    24   15   34 1
    25   15   35 1
    26   15   36 1
    27   16   17 1
    28   16   37 1
    29   16   38 1
    30   17   18 2
    31   17   39 1
    32   18   40 1
    33   18   41 1
    34   19   24 ar
    35   19   20 ar
    36   20   21 ar
    37   20   42 1
    38   21   22 ar
    39   21   43 1
    40   22   23 ar
    41   22   27 1
    42   23   24 ar
    43   23   25 1
    44   24   44 1
    45   25   26 1
    46   26   45 1
    47   26   46 1
    48   26   47 1
    49   27   28 1
    50   28   48 1
    51   28   49 1
    52   28   50 1
@<TRIPOS>MOLECULE
ZINC04098757
   50    52     0     0     0
SMALL
USER_CHARGES
5-allyl-2-(3,4-dimethoxyphenyl)-3a-methoxy-3-methyl-2,3-dihydrobenzofuran-6-one
@<TRIPOS>ATOM
      1 C1         -2.0345   -2.4053   -1.7826 C.3       1 <0>        -0.1355
      2 C2         -1.8306   -0.9295   -1.4342 C.3       1 <0>        -0.1040
      3 H1         -1.1612   -0.4528   -2.1503 H         1 <0>         0.1098
      4 C3         -1.2936   -0.7736    0.0098 C.3       1 <0>         0.1290
      5 H2         -1.1454   -1.7536    0.4635 H         1 <0>         0.1295
      6 O1         -2.3212   -0.0261    0.7419 O.3       1 <0>        -0.2718
      7 C4         -2.9833    0.7269   -0.1635 C.2       1 <0>         0.1382
      8 C5         -3.3783    2.0133   -0.2773 C.2       1 <0>        -0.2543
      9 C6         -3.8643    2.5179   -1.5088 C.2       1 <0>         0.4277
     10 O2         -4.3467    3.6359   -1.5454 O.2       1 <0>        -0.4390
     11 C7         -3.7999    1.7224   -2.7436 C.2       1 <0>        -0.1565
     12 C8         -3.4684    0.4307   -2.7047 C.2       1 <0>        -0.1042
     13 C9         -3.1824   -0.1905   -1.3645 C.3       1 <0>         0.1089
     14 O3         -4.2104   -1.1361   -1.0629 O.3       1 <0>        -0.3421
     15 C10        -5.5171   -0.5648   -0.9720 C.3       1 <0>         0.0175
     16 C11        -4.1120    2.3727   -4.0667 C.3       1 <0>        -0.0485
     17 C12        -5.6010    2.3515   -4.2980 C.2       1 <0>        -0.1594
     18 C13        -6.2414    3.4671   -4.5461 C.2       1 <0>        -0.1729
     19 C14         0.0021   -0.0041    0.0020 C.ar      1 <0>        -0.1131
     20 C15        -0.0167    1.3783    0.0096 C.ar      1 <0>        -0.1011
     21 C16         1.1692    2.0888    0.0021 C.ar      1 <0>        -0.1687
     22 C17         2.3801    1.4155   -0.0132 C.ar      1 <0>         0.1092
     23 C18         2.3990    0.0241   -0.0208 C.ar      1 <0>         0.1034
     24 C19         1.2068   -0.6820   -0.0132 C.ar      1 <0>        -0.1556
     25 O4          3.5850   -0.6413   -0.0353 O.3       1 <0>        -0.3037
     26 C20         3.5277   -2.0691   -0.0420 C.3       1 <0>         0.0242
     27 O5          3.5476    2.1129   -0.0202 O.3       1 <0>        -0.3042
     28 C21         3.4517    3.5386   -0.0116 C.3       1 <0>         0.0242
     29 H3         -2.7334   -2.8523   -1.0755 H         1 <0>         0.0760
     30 H4         -2.4365   -2.4881   -2.7924 H         1 <0>         0.0675
     31 H5         -1.0790   -2.9269   -1.7280 H         1 <0>         0.0632
     32 H6         -3.3338    2.6595    0.5869 H         1 <0>         0.1493
     33 H7         -3.4072   -0.1535   -3.6110 H         1 <0>         0.1497
     34 H8         -5.7771   -0.0994   -1.9227 H         1 <0>         0.0494
     35 H9         -6.2403   -1.3469   -0.7405 H         1 <0>         0.0972
     36 H10        -5.5307    0.1875   -0.1834 H         1 <0>         0.0453
     37 H11        -3.7606    3.4045   -4.0564 H         1 <0>         0.0845
     38 H12        -3.6123    1.8267   -4.8668 H         1 <0>         0.0861
     39 H13        -6.1403    1.4165   -4.2592 H         1 <0>         0.1075
     40 H14        -7.3085    3.4519   -4.7118 H         1 <0>         0.0991
     41 H15        -5.7021    4.4020   -4.5848 H         1 <0>         0.0992
     42 H16        -0.9599    1.9043    0.0169 H         1 <0>         0.1284
     43 H17         1.1518    3.1686    0.0078 H         1 <0>         0.1393
     44 H18         1.2187   -1.7619   -0.0187 H         1 <0>         0.1398
     45 H19         3.0081   -2.4161    0.8512 H         1 <0>         0.0562
     46 H20         2.9914   -2.4071   -0.9287 H         1 <0>         0.0559
     47 H21         4.5400   -2.4733   -0.0535 H         1 <0>         0.1029
     48 H22         2.9228    3.8618    0.8850 H         1 <0>         0.0567
     49 H23         4.4526    3.9702   -0.0185 H         1 <0>         0.1032
     50 H24         2.9064    3.8714   -0.8948 H         1 <0>         0.0565
@<TRIPOS>BOND
     1    1    2 1
     2    1   29 1
     3    1   30 1
     4    1   31 1
     5    2    3 1
     6    2   13 1
     7    2    4 1
     8    4    5 1
     9    4    6 1
    10    4   19 1
    11    6    7 1
    12    7   13 1
    13    7    8 2
    14    8    9 1
    15    8   32 1
    16    9   10 2
    17    9   11 1
    18   11   12 2
    19   11   16 1
    20   12   13 1
    21   12   33 1
    22   13   14 1
    23   14   15 1
    24   15   34 1
    25   15   35 1
    26   15   36 1
    27   16   17 1
    28   16   37 1
    29   16   38 1
    30   17   18 2
    31   17   39 1
    32   18   40 1
    33   18   41 1
    34   19   24 ar
    35   19   20 ar
    36   20   21 ar
    37   20   42 1
    38   21   22 ar
    39   21   43 1
    40   22   23 ar
    41   22   27 1
    42   23   24 ar
    43   23   25 1
    44   24   44 1
    45   25   26 1
    46   26   45 1
    47   26   46 1
    48   26   47 1
    49   27   28 1
    50   28   48 1
    51   28   49 1
    52   28   50 1
@<TRIPOS>MOLECULE
ZINC00002376
   53    57     0     0     0
SMALL
USER_CHARGES
[4-(1-piperidylmethyl)phenyl]BLAH
@<TRIPOS>ATOM
      1 C1         -0.9020    2.5849    1.6445 C.ar      1 <0>        -0.0521
      2 C2         -1.0480    1.4841    0.8114 C.ar      1 <0>        -0.0964
      3 C3         -0.0171    1.0832   -0.0124 C.ar      1 <0>        -0.0671
      4 C4          1.1775    1.7982   -0.0138 C.ar      1 <0>        -0.1119
      5 C5          1.3265    2.9198    0.8276 C.ar      1 <0>         0.0044
      6 C6          0.2715    3.3062    1.6585 C.ar      1 <0>        -0.0989
      7 C7          2.5922    3.6524    0.8049 C.2       1 <0>        -0.1016
      8 C8          3.5854    3.2423   -0.0157 C.2       1 <0>         0.1545
      9 N1          3.4572    2.1460   -0.8460 N.pl3     1 <0>        -0.4779
     10 C9          2.3047    1.4017   -0.8890 C.cat     1 <0>         0.5186
     11 C10         3.6709    0.3688   -2.3964 C.3       1 <0>         0.0677
     12 C11         4.4281    1.5653   -1.7930 C.3       1 <0>         0.0662
     13 C12         4.8571    3.9957   -0.0243 C.ar      1 <0>        -0.0435
     14 C13         6.0738    3.3183    0.0714 C.ar      1 <0>        -0.0984
     15 C14         7.2573    4.0271    0.0574 C.ar      1 <0>        -0.0860
     16 C15         7.2396    5.4072   -0.0401 C.ar      1 <0>        -0.1347
     17 C16         6.0368    6.0851   -0.1300 C.ar      1 <0>        -0.0867
     18 C17         4.8463    5.3881   -0.1224 C.ar      1 <0>        -0.0806
     19 C18         8.5361    6.1753   -0.0479 C.3       1 <0>         0.0415
     20 C19         7.9435    7.4605    1.9162 C.3       1 <0>        -0.0078
     21 C20         8.2795    7.6845    3.3924 C.3       1 <0>        -0.1459
     22 C21         9.6998    8.2447    3.5081 C.3       1 <0>        -0.1407
     23 C22        10.6795    7.2708    2.8477 C.3       1 <0>        -0.1479
     24 C23        10.2739    7.0587    1.3873 C.3       1 <0>        -0.0025
     25 H1         -1.7189    2.8816    2.2855 H         1 <0>         0.1528
     26 H2         -1.9772    0.9337    0.8110 H         1 <0>         0.1530
     27 H3         -0.1372    0.2234   -0.6549 H         1 <0>         0.1426
     28 H4          0.3755    4.1635    2.3069 H         1 <0>         0.1543
     29 H5          2.7327    4.5148    1.4397 H         1 <0>         0.1746
     30 H6          3.5544    0.4940   -3.4729 H         1 <0>         0.1323
     31 H7          4.1896   -0.5635   -2.1731 H         1 <0>         0.1320
     32 H8          4.6863    2.2865   -2.5684 H         1 <0>         0.1279
     33 H9          5.3230    1.2309   -1.2682 H         1 <0>         0.1254
     34 H10         6.0889    2.2414    0.1525 H         1 <0>         0.1360
     35 H11         8.1995    3.5040    0.1277 H         1 <0>         0.1434
     36 H12         6.0299    7.1625   -0.2058 H         1 <0>         0.1454
     37 H13         3.9081    5.9185   -0.1920 H         1 <0>         0.1472
     38 H14         9.3193    5.5616   -0.4927 H         1 <0>         0.1401
     39 H15         8.4142    7.0879   -0.6314 H         1 <0>         0.1422
     40 H16         7.9924    8.4106    1.3843 H         1 <0>         0.1321
     41 H17         6.9380    7.0482    1.8312 H         1 <0>         0.1243
     42 H18         8.2172    6.7371    3.9277 H         1 <0>         0.0860
     43 H19         7.5724    8.3936    3.8230 H         1 <0>         0.1127
     44 H20         9.9593    8.3652    4.5599 H         1 <0>         0.0962
     45 H21         9.7524    9.2108    3.0061 H         1 <0>         0.0835
     46 H22        10.6551    6.3169    3.3744 H         1 <0>         0.0872
     47 H23        11.6872    7.6843    2.8891 H         1 <0>         0.1152
     48 H24        10.9612    6.3547    0.9181 H         1 <0>         0.1298
     49 H25        10.3120    8.0108    0.8579 H         1 <0>         0.1329
     50 N2          2.3600    0.3977   -1.7321 N.pl3     1 <0>        -0.6301
     51 H26         1.5989   -0.2699   -1.9029 H         1 <0>         0.4764
     52 N3          8.9075    6.4957    1.3458 N.4       1 <0>        -0.3926
     53 H27         8.8853    5.6338    1.9033 H         1 <0>         0.4252
@<TRIPOS>BOND
     1    1    6 ar
     2    1    2 ar
     3    1   25 1
     4    2    3 ar
     5    2   26 1
     6    3    4 ar
     7    3   27 1
     8    4   10 1
     9    4    5 ar
    10    5    6 ar
    11    5    7 1
    12    6   28 1
    13    7    8 2
    14    7   29 1
    15    8    9 1
    16    8   13 1
    17    9   12 1
    18    9   10 1
    19   10   50 2
    20   11   12 1
    21   11   30 1
    22   11   31 1
    23   11   50 1
    24   12   32 1
    25   12   33 1
    26   13   18 ar
    27   13   14 ar
    28   14   15 ar
    29   14   34 1
    30   15   16 ar
    31   15   35 1
    32   16   17 ar
    33   16   19 1
    34   17   18 ar
    35   17   36 1
    36   18   37 1
    37   19   38 1
    38   19   39 1
    39   19   52 1
    40   20   21 1
    41   20   40 1
    42   20   41 1
    43   20   52 1
    44   21   22 1
    45   21   42 1
    46   21   43 1
    47   22   23 1
    48   22   44 1
    49   22   45 1
    50   23   24 1
    51   23   46 1
    52   23   47 1
    53   24   48 1
    54   24   49 1
    55   24   52 1
    56   50   51 1
    57   52   53 1
@<TRIPOS>MOLECULE
ZINC01851122
   62    64     0     0     0
SMALL
USER_CHARGES

@<TRIPOS>ATOM
      1 C1         -0.0187    1.5258    0.0104 C.3       1 <0>        -0.1525
      2 C2          0.0021   -0.0041    0.0020 C.3       1 <0>         0.0603
      3 O1         -1.3386   -0.4987    0.0122 O.3       1 <0>        -0.3481
      4 C3         -1.4964   -1.8317    0.0065 C.2       1 <0>         0.4472
      5 O2         -0.5283   -2.5546   -0.0066 O.2       1 <0>        -0.4887
      6 C4         -2.8809   -2.4266    0.0165 C.3       1 <0>         0.1581
      7 H1         -3.4261   -2.0931   -0.8665 H         1 <0>         0.1399
      8 C5         -3.6222   -1.9719    1.2754 C.3       1 <0>        -0.1169
      9 C6         -5.0671   -2.4727    1.2252 C.3       1 <0>        -0.0954
     10 C7         -5.7728   -2.1261    2.5377 C.3       1 <0>        -0.1470
     11 C8         -5.7989   -1.8028    0.0604 C.3       1 <0>        -0.1624
     12 N1         -2.7844   -3.8884    0.0078 N.pl3     1 <0>        -0.9775
     13 C9         -2.0927   -4.5833    1.0962 C.3       1 <0>         0.0894
     14 S1         -3.4572   -4.7551   -1.2325 S.o2      1 <0>         2.6852
     15 O3         -3.7087   -6.0592   -0.7270 O.2       1 <0>        -0.9406
     16 O4         -4.4824   -3.9421   -1.7869 O.2       1 <0>        -0.9418
     17 C10        -2.2224   -4.9272   -2.4777 C.ar      1 <0>        -0.6672
     18 C11        -2.1063   -3.9742   -3.4723 C.ar      1 <0>        -0.0196
     19 C12        -1.1375   -4.1092   -4.4491 C.ar      1 <0>        -0.1196
     20 C13        -0.2847   -5.1969   -4.4311 C.ar      1 <0>        -0.0631
     21 C14        -0.4003   -6.1495   -3.4360 C.ar      1 <0>        -0.1154
     22 C15        -1.3662   -6.0123   -2.4567 C.ar      1 <0>        -0.0137
     23 C16         0.7708   -5.3446   -5.4966 C.3       1 <0>         0.1437
     24 N2          2.0021   -4.6822   -5.0593 N.pl3     1 <0>        -0.4814
     25 C17         2.3396   -3.3812   -5.2777 C.2       1 <0>         0.2893
     26 N3          3.5025   -3.1261   -4.7520 N.2       1 <0>        -0.4748
     27 C18         3.9900   -4.2453   -4.1608 C.ar      1 <0>        -0.0042
     28 C19         3.0278   -5.2575   -4.3476 C.ar      1 <0>         0.0812
     29 C20         3.2813   -6.5213   -3.8270 C.ar      1 <0>        -0.1621
     30 C21         4.4609   -6.7351   -3.1467 C.ar      1 <0>         0.0989
     31 N4          5.3448   -5.7650   -2.9844 N.ar      1 <0>        -0.4844
     32 C22         5.1574   -4.5527   -3.4626 C.ar      1 <0>         0.1750
     33 C23         1.4905   -2.3822   -6.0209 C.3       1 <0>        -0.0824
     34 H2          1.0039    1.9031    0.0027 H         1 <0>         0.0813
     35 H3         -0.5459    1.8868   -0.8726 H         1 <0>         0.0679
     36 H4         -0.5289    1.8773    0.9072 H         1 <0>         0.0683
     37 H5          0.5123   -0.3556   -0.8948 H         1 <0>         0.0673
     38 H6          0.5293   -0.3651    0.8851 H         1 <0>         0.0686
     39 H7         -3.1266   -2.3801    2.1562 H         1 <0>         0.0790
     40 H8         -3.6166   -0.8832    1.3271 H         1 <0>         0.0943
     41 H9         -5.0724   -3.5535    1.0842 H         1 <0>         0.0669
     42 H10        -5.7676   -1.0453    2.6787 H         1 <0>         0.0580
     43 H11        -6.8022   -2.4829    2.5020 H         1 <0>         0.0589
     44 H12        -5.2515   -2.6034    3.3676 H         1 <0>         0.0548
     45 H13        -5.2961   -2.0497   -0.8747 H         1 <0>         0.0738
     46 H14        -6.8282   -2.1595    0.0247 H         1 <0>         0.0586
     47 H15        -5.7936   -0.7220    0.2014 H         1 <0>         0.0568
     48 H16        -2.8043   -4.8171    1.8882 H         1 <0>         0.0670
     49 H17        -1.6545   -5.5066    0.7173 H         1 <0>         0.0750
     50 H18        -1.3047   -3.9433    1.4931 H         1 <0>         0.0836
     51 H19        -2.7726   -3.1244   -3.4863 H         1 <0>         0.1427
     52 H20        -1.0472   -3.3650   -5.2265 H         1 <0>         0.1359
     53 H21         0.2658   -6.9995   -3.4221 H         1 <0>         0.1339
     54 H22        -1.4541   -6.7545   -1.6771 H         1 <0>         0.1437
     55 H23         0.9685   -6.4028   -5.6679 H         1 <0>         0.1076
     56 H24         0.4202   -4.8862   -6.4213 H         1 <0>         0.1123
     57 H25         2.5666   -7.3212   -3.9531 H         1 <0>         0.1314
     58 H26         4.6669   -7.7134   -2.7382 H         1 <0>         0.1636
     59 H27         5.9063   -3.7907   -3.3051 H         1 <0>         0.1657
     60 H28         0.8284   -1.8749   -5.3192 H         1 <0>         0.0903
     61 H29         2.1340   -1.6495   -6.5079 H         1 <0>         0.1019
     62 H30         0.8951   -2.8998   -6.7730 H         1 <0>         0.0816
@<TRIPOS>BOND
     1    1    2 1
     2    1   34 1
     3    1   35 1
     4    1   36 1
     5    2    3 1
     6    2   37 1
     7    2   38 1
     8    3    4 1
     9    4    5 2
    10    4    6 1
    11    6    7 1
    12    6    8 1
    13    6   12 1
    14    8    9 1
    15    8   39 1
    16    8   40 1
    17    9   10 1
    18    9   11 1
    19    9   41 1
    20   10   42 1
    21   10   43 1
    22   10   44 1
    23   11   45 1
    24   11   46 1
    25   11   47 1
    26   12   13 1
    27   12   14 1
    28   13   48 1
    29   13   49 1
    30   13   50 1
    31   14   15 2
    32   14   16 2
    33   14   17 1
    34   17   22 ar
    35   17   18 ar
    36   18   19 ar
    37   18   51 1
    38   19   20 ar
    39   19   52 1
    40   20   21 ar
    41   20   23 1
    42   21   22 ar
    43   21   53 1
    44   22   54 1
    45   23   24 1
    46   23   55 1
    47   23   56 1
    48   24   28 1
    49   24   25 1
    50   25   26 2
    51   25   33 1
    52   26   27 1
    53   27   32 ar
    54   27   28 ar
    55   28   29 ar
    56   29   30 ar
    57   29   57 1
    58   30   31 ar
    59   30   58 1
    60   31   32 ar
    61   32   59 1
    62   33   60 1
    63   33   61 1
    64   33   62 1
@<TRIPOS>MOLECULE
ZINC13821393
   38    41     0     0     0
SMALL
USER_CHARGES
3-[(2-chlorophenyl)-methyl-BLAHyl]prop-2-yn-1-ol
@<TRIPOS>ATOM
      1 C1         -0.9473   -1.0067   -0.1481 C.3       1 <0>        -0.0737
      2 C2          0.1914   -0.0224   -0.0733 C.2       1 <0>         0.1979
      3 N1          1.4672   -0.3091   -0.0266 N.2       1 <0>        -0.2745
      4 N2          2.1605    0.7754    0.0263 N.2       1 <0>        -0.2581
      5 C3          1.3677    1.8050    0.0118 C.2       1 <0>         0.1709
      6 N3          0.0892    1.3289   -0.0409 N.pl3     1 <0>        -0.3896
      7 C4         -1.0253    2.1377   -0.0424 C.2       1 <0>         0.0208
      8 C5         -1.1551    3.3958   -0.6329 C.2       1 <0>        -0.1213
      9 C6         -2.3982    4.0246   -0.4406 C.2       1 <0>        -0.0865
     10 C7         -3.3656    3.3653    0.2536 C.2       1 <0>        -0.0472
     11 S1         -2.5592    1.8336    0.6809 S.3       1 <0>         0.2324
     12 C8         -4.6967    3.7937    0.5623 C.1       1 <0>        -0.0972
     13 C9         -5.7879    4.1450    0.8155 C.1       1 <0>        -0.1036
     14 C10        -7.1561    4.5854    1.1329 C.3       1 <0>         0.1873
     15 O1         -7.8220    3.5679    1.8835 O.3       1 <0>        -0.5663
     16 C11        -0.0621    4.0179   -1.4161 C.2       1 <0>         0.2868
     17 N4          1.2019    3.9207   -1.1638 N.2       1 <0>        -0.4789
     18 C12         1.7312    3.2661    0.0334 C.3       1 <0>         0.1264
     19 C13        -0.4533    4.8242   -2.5957 C.ar      1 <0>        -0.0504
     20 C14        -0.2154    6.1984   -2.6149 C.ar      1 <0>        -0.0710
     21 C15        -0.5780    6.9432   -3.7179 C.ar      1 <0>        -0.1140
     22 C16        -1.1860    6.3320   -4.8004 C.ar      1 <0>        -0.0921
     23 C17        -1.4295    4.9710   -4.7867 C.ar      1 <0>        -0.1103
     24 C18        -1.0668    4.2129   -3.6900 C.ar      1 <0>        -0.0108
     25 Cl1        -1.3740    2.5044   -3.6732 Cl        1 <0>        -0.0608
     26 H1         -1.1786   -1.2161   -1.1924 H         1 <0>         0.0963
     27 H2         -0.6616   -1.9315    0.3533 H         1 <0>         0.1100
     28 H3         -1.8252   -0.5846    0.3409 H         1 <0>         0.0776
     29 H4         -2.5819    5.0123   -0.8368 H         1 <0>         0.1559
     30 H5         -7.1155    5.5026    1.7205 H         1 <0>         0.0826
     31 H6         -7.7021    4.7705    0.2078 H         1 <0>         0.0825
     32 H7         -8.7307    3.7906    2.1281 H         1 <0>         0.3938
     33 H8          1.3048    3.7332    0.9211 H         1 <0>         0.0952
     34 H9          2.8160    3.3700    0.0544 H         1 <0>         0.1392
     35 H10         0.2553    6.6777   -1.7693 H         1 <0>         0.1372
     36 H11        -0.3906    8.0067   -3.7349 H         1 <0>         0.1369
     37 H12        -1.4719    6.9207   -5.6596 H         1 <0>         0.1375
     38 H13        -1.9044    4.4998   -5.6345 H         1 <0>         0.1392
@<TRIPOS>BOND
     1    1    2 1
     2    1   26 1
     3    1   27 1
     4    1   28 1
     5    2    6 1
     6    2    3 2
     7    3    4 1
     8    4    5 2
     9    5   18 1
    10    5    6 1
    11    6    7 1
    12    7   11 1
    13    7    8 2
    14    8    9 1
    15    8   16 1
    16    9   10 2
    17    9   29 1
    18   10   11 1
    19   10   12 1
    20   12   13 3
    21   13   14 1
    22   14   15 1
    23   14   30 1
    24   14   31 1
    25   15   32 1
    26   16   17 2
    27   16   19 1
    28   17   18 1
    29   18   33 1
    30   18   34 1
    31   19   24 ar
    32   19   20 ar
    33   20   21 ar
    34   20   35 1
    35   21   22 ar
    36   21   36 1
    37   22   23 ar
    38   22   37 1
    39   23   24 ar
    40   23   38 1
    41   24   25 1
@<TRIPOS>MOLECULE
ZINC02570830
   32    35     0     0     0
SMALL
USER_CHARGES

@<TRIPOS>ATOM
      1 C1          0.1276    1.3627   -0.2137 C.3       1 <0>        -0.0742
      2 C2          0.0799   -0.1411   -0.1287 C.2       1 <0>         0.2013
      3 N1          0.0410   -0.9770   -1.1346 N.2       1 <0>        -0.2734
      4 N2          0.0152   -2.1891   -0.6988 N.2       1 <0>        -0.2557
      5 C3          0.0409   -2.1898    0.6004 C.2       1 <0>         0.1712
      6 N3          0.0750   -0.8850    1.0038 N.pl3     1 <0>        -0.3939
      7 C4          0.0797   -0.4985    2.3260 C.2       1 <0>         0.0663
      8 C5          0.6863   -1.1523    3.3968 C.2       1 <0>        -0.1199
      9 C6          0.4780   -0.5204    4.6894 C.2       1 <0>        -0.0682
     10 C7         -0.2311    0.6187    4.7622 C.2       1 <0>        -0.1686
     11 S1         -0.6782    0.9242    3.0633 S.3       1 <0>         0.1887
     12 Br1        -0.6521    1.6467    6.2925 Br        1 <0>         0.0657
     13 C8          1.4948   -2.3786    3.2188 C.2       1 <0>         0.2861
     14 N4          1.2577   -3.3240    2.3695 N.2       1 <0>        -0.4750
     15 C9          0.0473   -3.3687    1.5366 C.3       1 <0>         0.1240
     16 C10         2.6817   -2.5370    4.0911 C.ar      1 <0>        -0.0523
     17 C11         2.7267   -3.5650    5.0327 C.ar      1 <0>        -0.0703
     18 C12         3.8345   -3.7075    5.8422 C.ar      1 <0>        -0.1136
     19 C13         4.9006   -2.8333    5.7222 C.ar      1 <0>        -0.0908
     20 C14         4.8630   -1.8115    4.7914 C.ar      1 <0>        -0.1098
     21 C15         3.7619   -1.6618    3.9703 C.ar      1 <0>        -0.0107
     22 Cl1         3.7191   -0.3837    2.7963 Cl        1 <0>        -0.0610
     23 H1          1.1661    1.6917   -0.2518 H         1 <0>         0.0971
     24 H2         -0.3912    1.6924   -1.1138 H         1 <0>         0.1104
     25 H3         -0.3575    1.7918    0.6630 H         1 <0>         0.0780
     26 H4          0.8897   -0.9632    5.5843 H         1 <0>         0.1588
     27 H5         -0.8403   -3.3350    2.1685 H         1 <0>         0.0972
     28 H6          0.0450   -4.2920    0.9575 H         1 <0>         0.1402
     29 H7          1.8955   -4.2480    5.1280 H         1 <0>         0.1374
     30 H8          3.8698   -4.5031    6.5717 H         1 <0>         0.1373
     31 H9          5.7654   -2.9494    6.3585 H         1 <0>         0.1380
     32 H10         5.6978   -1.1320    4.7029 H         1 <0>         0.1396
@<TRIPOS>BOND
     1    1    2 1
     2    1   23 1
     3    1   24 1
     4    1   25 1
     5    2    6 1
     6    2    3 2
     7    3    4 1
     8    4    5 2
     9    5   15 1
    10    5    6 1
    11    6    7 1
    12    7   11 1
    13    7    8 2
    14    8    9 1
    15    8   13 1
    16    9   10 2
    17    9   26 1
    18   10   11 1
    19   10   12 1
    20   13   14 2
    21   13   16 1
    22   14   15 1
    23   15   27 1
    24   15   28 1
    25   16   21 ar
    26   16   17 ar
    27   17   18 ar
    28   17   29 1
    29   18   19 ar
    30   18   30 1
    31   19   20 ar
    32   19   31 1
    33   20   21 ar
    34   20   32 1
    35   21   22 1
@<TRIPOS>MOLECULE
ZINC02570830
   33    36     0     0     0
SMALL
USER_CHARGES

@<TRIPOS>ATOM
      1 C1          0.1272    1.3631   -0.2132 C.3       1 <0>        -0.0867
      2 C2          0.0797   -0.1407   -0.1284 C.2       1 <0>         0.2388
      3 N1          0.0409   -0.9765   -1.1344 N.2       1 <0>        -0.2547
      4 N2          0.0153   -2.1887   -0.6988 N.2       1 <0>        -0.2092
      5 C3          0.0409   -2.1895    0.6004 C.2       1 <0>         0.1252
      6 N3          0.0748   -0.8848    1.0040 N.pl3     1 <0>        -0.4047
      7 C4          0.0795   -0.4986    2.3262 C.2       1 <0>         0.1047
      8 C5          0.6862   -1.1524    3.3969 C.2       1 <0>        -0.1742
      9 C6          0.4778   -0.5208    4.6897 C.2       1 <0>        -0.0568
     10 C7         -0.2315    0.6182    4.7626 C.2       1 <0>        -0.1677
     11 S1         -0.6786    0.9240    3.0638 S.3       1 <0>         0.2991
     12 Br1        -0.6526    1.6459    6.2931 Br        1 <0>         0.1019
     13 C8          1.4948   -2.3786    3.2188 C.2       1 <0>         0.4756
     14 N4          1.2579   -3.3239    2.3694 N.pl3     1 <0>        -0.5305
     15 C9          0.0474   -3.3686    1.5365 C.3       1 <0>         0.1530
     16 C10         2.6817   -2.5370    4.0911 C.ar      1 <0>        -0.1723
     17 C11         2.7267   -3.5650    5.0327 C.ar      1 <0>        -0.0575
     18 C12         3.8345   -3.7075    5.8422 C.ar      1 <0>        -0.1045
     19 C13         4.9006   -2.8333    5.7222 C.ar      1 <0>        -0.0465
     20 C14         4.8630   -1.8115    4.7914 C.ar      1 <0>        -0.1006
     21 C15         3.7619   -1.6618    3.9703 C.ar      1 <0>         0.0141
     22 Cl1         3.7191   -0.3837    2.7963 Cl        1 <0>        -0.0378
     23 H1          1.1657    1.6922   -0.2512 H         1 <0>         0.1100
     24 H2         -0.3916    1.6929   -1.1132 H         1 <0>         0.1253
     25 H3         -0.3579    1.7920    0.6637 H         1 <0>         0.0828
     26 H4          0.8895   -0.9637    5.5845 H         1 <0>         0.1740
     27 H5         -0.8401   -3.3351    2.1683 H         1 <0>         0.1511
     28 H6          0.0453   -4.2918    0.9571 H         1 <0>         0.1778
     29 H7          1.8955   -4.2480    5.1280 H         1 <0>         0.1498
     30 H8          3.8698   -4.5031    6.5717 H         1 <0>         0.1555
     31 H9          5.7654   -2.9494    6.3585 H         1 <0>         0.1560
     32 H10         5.6978   -1.1320    4.7029 H         1 <0>         0.1577
     33 H11         1.9085   -4.0377    2.2797 H         1 <0>         0.4513
@<TRIPOS>BOND
     1    1    2 1
     2    1   23 1
     3    1   24 1
     4    1   25 1
     5    2    6 1
     6    2    3 2
     7    3    4 1
     8    4    5 2
     9    5   15 1
    10    5    6 1
    11    6    7 1
    12    7   11 1
    13    7    8 2
    14    8    9 1
    15    8   13 1
    16    9   10 2
    17    9   26 1
    18   10   11 1
    19   10   12 1
    20   13   14 2
    21   13   16 1
    22   14   15 1
    23   14   33 1
    24   15   27 1
    25   15   28 1
    26   16   21 ar
    27   16   17 ar
    28   17   18 ar
    29   17   29 1
    30   18   19 ar
    31   18   30 1
    32   19   20 ar
    33   19   31 1
    34   20   21 ar
    35   20   32 1
    36   21   22 1
@<TRIPOS>MOLECULE
ZINC02016001
   50    54     0     0     0
SMALL
USER_CHARGES
N-(3-benzoylphenyl)-2-(3-pyridyl)-3-thia-1-azabicyclo[3.3.0]octa-5,7-diene-6-carboxamide
@<TRIPOS>ATOM
      1 C1          2.8795   10.9780    9.2962 C.ar      1 <0>        -0.0942
      2 C2          3.5645   10.8084    8.1057 C.ar      1 <0>        -0.1264
      3 C3          3.0669    9.9653    7.1341 C.ar      1 <0>        -0.0679
      4 C4          1.8687    9.2819    7.3540 C.ar      1 <0>        -0.1535
      5 C5          1.1797    9.4623    8.5557 C.ar      1 <0>        -0.0849
      6 C6          1.6916   10.3044    9.5206 C.ar      1 <0>        -0.1283
      7 C7          1.3295    8.3771    6.3180 C.2       1 <0>         0.4376
      8 O1          1.4533    8.6576    5.1419 O.2       1 <0>        -0.4373
      9 C8          0.6398    7.1310    6.7117 C.ar      1 <0>        -0.1450
     10 C9          0.6354    6.7243    8.0485 C.ar      1 <0>        -0.0956
     11 C10        -0.0097    5.5608    8.4131 C.ar      1 <0>        -0.1115
     12 C11        -0.6582    4.7964    7.4605 C.ar      1 <0>        -0.1137
     13 C12        -0.6551    5.1889    6.1272 C.ar      1 <0>         0.1380
     14 C13        -0.0099    6.3563    5.7498 C.ar      1 <0>        -0.0622
     15 N1         -1.3079    4.4088    5.1669 N.am      1 <0>        -0.6695
     16 C14        -0.7957    4.3005    3.9249 C.2       1 <0>         0.5925
     17 O2          0.1868    4.9466    3.6138 O.2       1 <0>        -0.5225
     18 C15        -1.4254    3.4001    2.9448 C.2       1 <0>        -0.2116
     19 C16        -2.6009    2.5581    3.1561 C.2       1 <0>        -0.1474
     20 C17        -2.8141    1.9173    2.0019 C.2       1 <0>         0.0114
     21 N2         -1.8527    2.2995    1.0788 N.pl3     1 <0>        -0.4540
     22 C18        -1.0214    3.1803    1.6393 C.2       1 <0>         0.0939
     23 C19         0.1214    3.7211    0.7744 C.3       1 <0>        -0.0052
     24 S1          0.1032    2.5122   -0.6143 S.3       1 <0>        -0.2217
     25 C20        -1.6147    1.9122   -0.3425 C.3       1 <0>         0.2244
     26 H1         -1.6744    0.8310   -0.4672 H         1 <0>         0.1432
     27 C21        -2.5820    2.6122   -1.2620 C.ar      1 <0>        -0.1641
     28 C22        -3.4011    1.8803   -2.1083 C.ar      1 <0>        -0.0460
     29 C23        -4.2787    2.5665   -2.9334 C.ar      1 <0>        -0.1703
     30 C24        -4.3009    3.9480   -2.8925 C.ar      1 <0>         0.1161
     31 N3         -3.5037    4.6115   -2.0783 N.ar      1 <0>        -0.4783
     32 C25        -2.6598    3.9918   -1.2764 C.ar      1 <0>         0.1396
     33 H2          3.2737   11.6394   10.0535 H         1 <0>         0.1279
     34 H3          4.4906   11.3378    7.9368 H         1 <0>         0.1301
     35 H4          3.6023    9.8342    6.2054 H         1 <0>         0.1308
     36 H5          0.2503    8.9407    8.7303 H         1 <0>         0.1349
     37 H6          1.1621   10.4417   10.4518 H         1 <0>         0.1304
     38 H7          1.1367    7.3210    8.7962 H         1 <0>         0.1389
     39 H8         -0.0120    5.2481    9.4468 H         1 <0>         0.1349
     40 H9         -1.1656    3.8890    7.7531 H         1 <0>         0.1317
     41 H10        -0.0098    6.6651    4.7148 H         1 <0>         0.1521
     42 H11        -2.1292    3.9457    5.3949 H         1 <0>         0.4126
     43 H12        -3.1815    2.4713    4.0625 H         1 <0>         0.1569
     44 H13        -3.6112    1.2124    1.8174 H         1 <0>         0.1717
     45 H14         1.0696    3.6898    1.3110 H         1 <0>         0.1406
     46 H15        -0.0956    4.7293    0.4213 H         1 <0>         0.1232
     47 H16        -3.3592    0.8012   -2.1215 H         1 <0>         0.1408
     48 H17        -4.9339    2.0287   -3.6026 H         1 <0>         0.1442
     49 H18        -4.9788    4.4902   -3.5350 H         1 <0>         0.1634
     50 H19        -2.0223    4.5692   -0.6233 H         1 <0>         0.1494
@<TRIPOS>BOND
     1    1    6 ar
     2    1    2 ar
     3    1   33 1
     4    2    3 ar
     5    2   34 1
     6    3    4 ar
     7    3   35 1
     8    4    5 ar
     9    4    7 1
    10    5    6 ar
    11    5   36 1
    12    6   37 1
    13    7    8 2
    14    7    9 1
    15    9   14 ar
    16    9   10 ar
    17   10   11 ar
    18   10   38 1
    19   11   12 ar
    20   11   39 1
    21   12   13 ar
    22   12   40 1
    23   13   14 ar
    24   13   15 1
    25   14   41 1
    26   15   16 am
    27   15   42 1
    28   16   17 2
    29   16   18 1
    30   18   22 2
    31   18   19 1
    32   19   20 2
    33   19   43 1
    34   20   21 1
    35   20   44 1
    36   21   25 1
    37   21   22 1
    38   22   23 1
    39   23   24 1
    40   23   45 1
    41   23   46 1
    42   24   25 1
    43   25   26 1
    44   25   27 1
    45   27   32 ar
    46   27   28 ar
    47   28   29 ar
    48   28   47 1
    49   29   30 ar
    50   29   48 1
    51   30   31 ar
    52   30   49 1
    53   31   32 ar
    54   32   50 1
@<TRIPOS>MOLECULE
ZINC00600747
   58    62     0     0     0
SMALL
USER_CHARGES

@<TRIPOS>ATOM
      1 C1          0.2956    1.3113    0.3226 C.3       1 <0>        -0.0828
      2 C2          0.3437   -0.1924    0.4102 C.2       1 <0>         0.2879
      3 N1          0.4427   -0.9958   -0.6090 N.2       1 <0>        -0.4740
      4 C3          0.4592   -2.2806   -0.1753 C.ar      1 <0>        -0.0048
      5 C4          0.5466   -3.5243   -0.8014 C.ar      1 <0>         0.1733
      6 N2          0.5366   -4.6277   -0.0831 N.ar      1 <0>        -0.4843
      7 C5          0.4454   -4.6131    1.2362 C.ar      1 <0>         0.0946
      8 C6          0.3552   -3.4386    1.9320 C.ar      1 <0>        -0.1573
      9 C7          0.3611   -2.2389    1.2294 C.ar      1 <0>         0.0805
     10 N3          0.2959   -0.9082    1.5677 N.pl3     1 <0>        -0.4814
     11 C8          0.1905   -0.3613    2.9227 C.3       1 <0>         0.1492
     12 C9         -1.2627   -0.2249    3.2977 C.ar      1 <0>        -0.1258
     13 C10        -1.9126    0.9819    3.1090 C.ar      1 <0>        -0.0841
     14 C11        -3.2426    1.1138    3.4496 C.ar      1 <0>        -0.0696
     15 C12        -3.9350    0.0263    3.9861 C.ar      1 <0>        -0.1134
     16 C13        -3.2755   -1.1892    4.1747 C.ar      1 <0>        -0.0957
     17 C14        -1.9441   -1.3103    3.8247 C.ar      1 <0>         0.1113
     18 F1         -1.3046   -2.4872    4.0013 F         1 <0>        -0.1281
     19 C15        -5.3608    0.1621    4.3534 C.2       1 <0>         0.4780
     20 O1         -5.9063    1.2474    4.2834 O.2       1 <0>        -0.4233
     21 C16        -6.1187   -1.0134    4.8029 C.2       1 <0>        -0.2182
     22 C17        -6.4809   -1.3087    6.0849 C.2       1 <0>         0.1073
     23 N4         -7.1741   -2.4795    6.1063 N.am      1 <0>        -0.4672
     24 C18        -7.2878   -2.9918    4.8240 C.ar      1 <0>         0.1132
     25 C19        -6.6416   -2.1003    3.9566 C.ar      1 <0>        -0.0498
     26 C20        -6.6029   -2.3657    2.5785 C.ar      1 <0>         0.0536
     27 C21        -7.2138   -3.5173    2.0867 C.ar      1 <0>        -0.0993
     28 C22        -7.8515   -4.3876    2.9517 C.ar      1 <0>        -0.0903
     29 C23        -7.8863   -4.1356    4.3087 C.ar      1 <0>        -0.0995
     30 C24        -5.9422   -1.4610    1.6866 C.1       1 <0>        -0.1533
     31 C25        -5.4005   -0.7193    0.9554 C.1       1 <0>        -0.1590
     32 C26        -7.6769   -3.0578    7.2150 C.2       1 <0>         0.7094
     33 O2         -8.8546   -3.3527    7.2657 O.2       1 <0>        -0.5134
     34 N5         -6.8734   -3.3089    8.2676 N.am      1 <0>        -0.6120
     35 C27        -7.4394   -3.8352    9.5121 C.3       1 <0>         0.0923
     36 C28        -5.4339   -3.0555    8.1671 C.3       1 <0>         0.0682
     37 H1          1.3089    1.7104    0.3665 H         1 <0>         0.0928
     38 H2         -0.1705    1.6057   -0.6177 H         1 <0>         0.1014
     39 H3         -0.2865    1.7053    1.1557 H         1 <0>         0.0791
     40 H4          0.6222   -3.5821   -1.8772 H         1 <0>         0.1653
     41 H5          0.4417   -5.5486    1.7759 H         1 <0>         0.1610
     42 H6          0.2810   -3.4433    3.0095 H         1 <0>         0.1370
     43 H7          0.6855   -1.0322    3.6248 H         1 <0>         0.1068
     44 H8          0.6681    0.6178    2.9575 H         1 <0>         0.1153
     45 H9         -1.3768    1.8230    2.6944 H         1 <0>         0.1442
     46 H10        -3.7477    2.0569    3.3018 H         1 <0>         0.1473
     47 H11        -3.8054   -2.0341    4.5892 H         1 <0>         0.1453
     48 H12        -6.2520   -0.7052    6.9508 H         1 <0>         0.1858
     49 H13        -7.1895   -3.7304    1.0282 H         1 <0>         0.1367
     50 H14        -8.3227   -5.2778    2.5619 H         1 <0>         0.1412
     51 H15        -8.3895   -4.8245    4.9710 H         1 <0>         0.1317
     52 H16        -4.9160   -0.0559    0.3015 H         1 <0>         0.2223
     53 H17        -7.4346   -4.9248    9.4811 H         1 <0>         0.0658
     54 H18        -6.8411   -3.4931   10.3566 H         1 <0>         0.0812
     55 H19        -8.4635   -3.4794    9.6245 H         1 <0>         0.0825
     56 H20        -5.2607   -1.9858    8.0496 H         1 <0>         0.0646
     57 H21        -4.9392   -3.4064    9.0728 H         1 <0>         0.0919
     58 H22        -5.0310   -3.5858    7.3043 H         1 <0>         0.0686
@<TRIPOS>BOND
     1    1    2 1
     2    1   37 1
     3    1   38 1
     4    1   39 1
     5    2   10 1
     6    2    3 2
     7    3    4 1
     8    4    9 ar
     9    4    5 ar
    10    5    6 ar
    11    5   40 1
    12    6    7 ar
    13    7    8 ar
    14    7   41 1
    15    8    9 ar
    16    8   42 1
    17    9   10 1
    18   10   11 1
    19   11   12 1
    20   11   43 1
    21   11   44 1
    22   12   17 ar
    23   12   13 ar
    24   13   14 ar
    25   13   45 1
    26   14   15 ar
    27   14   46 1
    28   15   16 ar
    29   15   19 1
    30   16   17 ar
    31   16   47 1
    32   17   18 1
    33   19   20 2
    34   19   21 1
    35   21   25 1
    36   21   22 2
    37   22   23 1
    38   22   48 1
    39   23   24 1
    40   23   32 am
    41   24   29 ar
    42   24   25 ar
    43   25   26 ar
    44   26   27 ar
    45   26   30 1
    46   27   28 ar
    47   27   49 1
    48   28   29 ar
    49   28   50 1
    50   29   51 1
    51   30   31 3
    52   31   52 1
    53   32   33 2
    54   32   34 am
    55   34   35 1
    56   34   36 1
    57   35   53 1
    58   35   54 1
    59   35   55 1
    60   36   56 1
    61   36   57 1
    62   36   58 1
@<TRIPOS>MOLECULE
ZINC18269677
   55    57     0     0     0
SMALL
USER_CHARGES

@<TRIPOS>ATOM
      1 C1         -0.0187    1.5258    0.0104 C.3       1 <0>        -0.1462
      2 C2          0.0021   -0.0041    0.0020 C.3       1 <0>        -0.1125
      3 H1          0.5202   -0.3732   -0.8831 H         1 <0>         0.0872
      4 C3         -1.4363   -0.5653    0.0608 C.3       1 <0>        -0.1121
      5 H2         -1.6284   -1.2139   -0.7939 H         1 <0>         0.0871
      6 C4         -1.4689   -1.3774    1.3745 C.3       1 <0>         0.1252
      7 H3         -1.8626   -0.7678    2.1878 H         1 <0>         0.0786
      8 O1         -0.0900   -1.7243    1.6283 O.3       1 <0>        -0.3535
      9 C5          0.6716   -0.5434    1.2855 C.3       1 <0>         0.1252
     10 H4          0.6077    0.1942    2.0855 H         1 <0>         0.0788
     11 C6          2.1100   -0.9029    1.0154 C.ar      1 <0>        -0.0806
     12 C7          2.4174   -2.1017    0.3992 C.ar      1 <0>        -0.0891
     13 C8          3.7352   -2.4360    0.1493 C.ar      1 <0>        -0.1738
     14 C9          4.7516   -1.5686    0.5163 C.ar      1 <0>         0.1026
     15 C10         4.4422   -0.3618    1.1362 C.ar      1 <0>         0.0996
     16 C11         3.1189   -0.0306    1.3794 C.ar      1 <0>        -0.1610
     17 O2          5.4362    0.4928    1.4982 O.3       1 <0>        -0.3057
     18 C12         5.0444    1.7132    2.1301 C.3       1 <0>         0.0255
     19 O3          6.0486   -1.8962    0.2716 O.3       1 <0>        -0.3065
     20 C13         6.2913   -3.1511   -0.3674 C.3       1 <0>         0.0257
     21 C14        -2.3019   -2.6213    1.2018 C.ar      1 <0>        -0.0808
     22 C15        -1.7304   -3.7674    0.6811 C.ar      1 <0>        -0.0895
     23 C16        -2.4903   -4.9110    0.5207 C.ar      1 <0>        -0.1737
     24 C17        -3.8279   -4.9104    0.8826 C.ar      1 <0>         0.1021
     25 C18        -4.4031   -3.7570    1.4071 C.ar      1 <0>         0.0996
     26 C19        -3.6345   -2.6155    1.5698 C.ar      1 <0>        -0.1616
     27 O4         -5.7154   -3.7514    1.7638 O.3       1 <0>        -0.3057
     28 C20        -6.2381   -2.5322    2.2952 C.3       1 <0>         0.0256
     29 O5         -4.5770   -6.0344    0.7250 O.3       1 <0>        -0.3066
     30 C21        -3.9202   -7.1807    0.1802 C.3       1 <0>         0.0257
     31 C22        -2.4553    0.5750    0.1066 C.3       1 <0>        -0.1461
     32 H5          1.0039    1.9031    0.0027 H         1 <0>         0.0566
     33 H6         -0.5459    1.8868   -0.8726 H         1 <0>         0.0646
     34 H7         -0.5289    1.8773    0.9072 H         1 <0>         0.0612
     35 H8          1.6261   -2.7786    0.1126 H         1 <0>         0.1305
     36 H9          3.9727   -3.3734   -0.3316 H         1 <0>         0.1364
     37 H10         2.8759    0.9071    1.8569 H         1 <0>         0.1355
     38 H11         5.9314    2.3011    2.3662 H         1 <0>         0.1015
     39 H12         4.4011    2.2804    1.4574 H         1 <0>         0.0546
     40 H13         4.5020    1.4889    3.0485 H         1 <0>         0.0550
     41 H14         5.8977   -3.9567    0.2524 H         1 <0>         0.0555
     42 H15         5.7973   -3.1657   -1.3389 H         1 <0>         0.0552
     43 H16         7.3641   -3.2882   -0.5033 H         1 <0>         0.1013
     44 H17        -0.6880   -3.7692    0.3987 H         1 <0>         0.1316
     45 H18        -2.0416   -5.8048    0.1130 H         1 <0>         0.1363
     46 H19        -4.0775   -1.7201    1.9801 H         1 <0>         0.1354
     47 H20        -7.2925   -2.6643    2.5380 H         1 <0>         0.1015
     48 H21        -5.6883   -2.2638    3.1973 H         1 <0>         0.0549
     49 H22        -6.1322   -1.7386    1.5555 H         1 <0>         0.0546
     50 H23        -3.5372   -6.9425   -0.8121 H         1 <0>         0.0552
     51 H24        -3.0933   -7.4684    0.8295 H         1 <0>         0.0555
     52 H25        -4.6292   -8.0054    0.1077 H         1 <0>         0.1013
     53 H26        -2.3519    1.1908   -0.7868 H         1 <0>         0.0651
     54 H27        -3.4626    0.1607    0.1477 H         1 <0>         0.0564
     55 H28        -2.2773    1.1860    0.9916 H         1 <0>         0.0610
@<TRIPOS>BOND
     1    1    2 1
     2    1   32 1
     3    1   33 1
     4    1   34 1
     5    2    3 1
     6    2    9 1
     7    2    4 1
     8    4    5 1
     9    4    6 1
    10    4   31 1
    11    6    7 1
    12    6    8 1
    13    6   21 1
    14    8    9 1
    15    9   10 1
    16    9   11 1
    17   11   16 ar
    18   11   12 ar
    19   12   13 ar
    20   12   35 1
    21   13   14 ar
    22   13   36 1
    23   14   15 ar
    24   14   19 1
    25   15   16 ar
    26   15   17 1
    27   16   37 1
    28   17   18 1
    29   18   38 1
    30   18   39 1
    31   18   40 1
    32   19   20 1
    33   20   41 1
    34   20   42 1
    35   20   43 1
    36   21   26 ar
    37   21   22 ar
    38   22   23 ar
    39   22   44 1
    40   23   24 ar
    41   23   45 1
    42   24   25 ar
    43   24   29 1
    44   25   26 ar
    45   25   27 1
    46   26   46 1
    47   27   28 1
    48   28   47 1
    49   28   48 1
    50   28   49 1
    51   29   30 1
    52   30   50 1
    53   30   51 1
    54   30   52 1
    55   31   53 1
    56   31   54 1
    57   31   55 1
@<TRIPOS>MOLECULE
ZINC08552017
   54    59     0     0     0
SMALL
USER_CHARGES
trihydroxy-methyl-tert-butyl-BLAHtrione
@<TRIPOS>ATOM
      1 C1         -8.4621   -0.9705    1.0432 C.3       1 <0>        -0.1423
      2 C2         -6.9316   -0.9351    1.0934 C.3       1 <0>        -0.1819
      3 H1         -6.5366   -0.6751    0.1112 H         1 <0>         0.1443
      4 C3         -6.3933   -2.2758    1.5369 C.2       1 <0>         0.5005
      5 O1         -6.4782   -3.2988    0.8932 O.2       1 <0>        -0.4377
      6 O2         -5.8057   -2.1718    2.7296 O.3       1 <0>        -0.3216
      7 C4         -5.9300   -0.8402    3.2936 C.3       1 <0>         0.0199
      8 H2         -6.6018   -0.8388    4.1652 H         1 <0>         0.1367
      9 C5         -6.4549    0.0699    2.1612 C.3       1 <0>         0.1191
     10 C6         -5.2670    0.8697    1.6390 C.3       1 <0>         0.0662
     11 C7         -5.5666    2.3472    1.6185 C.2       1 <0>         0.5144
     12 O3         -6.2676    2.8955    0.7935 O.2       1 <0>        -0.4153
     13 O4         -4.9513    2.9596    2.6323 O.3       1 <0>        -0.3159
     14 C8         -3.9000    2.1328    3.2110 C.3       1 <0>         0.1143
     15 H3         -3.8980    2.1708    4.2962 H         1 <0>         0.1567
     16 C9         -4.1125    0.7177    2.6564 C.3       1 <0>        -0.0855
     17 C10        -4.5324   -0.3147    3.6763 C.3       1 <0>         0.1301
     18 H4         -3.8441   -1.1640    3.6842 H         1 <0>         0.0994
     19 O5         -4.5802    0.2512    4.9899 O.3       1 <0>        -0.5369
     20 C11        -2.8923    0.3779    1.7988 C.3       1 <0>        -0.0856
     21 C12        -2.2352    1.6943    1.4474 C.3       1 <0>        -0.0668
     22 H5         -2.6913    2.1034    0.5436 H         1 <0>         0.0966
     23 C13        -2.5508    2.6243    2.6397 C.3       1 <0>        -0.1423
     24 C14        -0.7288    1.5792    1.2668 C.3       1 <0>        -0.0597
     25 C15        -0.4240    0.5781    0.1507 C.3       1 <0>        -0.1630
     26 C16        -0.0940    1.0963    2.5725 C.3       1 <0>        -0.1628
     27 C17        -0.1537    2.9476    0.8956 C.3       1 <0>        -0.1426
     28 C18        -2.0221   -0.7560    2.2991 C.3       1 <0>         0.0559
     29 H6         -1.0575   -0.7956    1.7784 H         1 <0>         0.1384
     30 C19        -2.8006   -2.0018    1.8901 C.2       1 <0>         0.4484
     31 O6         -2.5644   -3.1253    2.2643 O.2       1 <0>        -0.4175
     32 O7         -3.7930   -1.6468    1.0474 O.3       1 <0>        -0.3546
     33 C20        -3.5547   -0.2921    0.5513 C.3       1 <0>         0.2345
     34 H7         -2.9204   -0.2662   -0.3293 H         1 <0>         0.1796
     35 O8         -4.7903    0.4143    0.3759 O.3       1 <0>        -0.2903
     36 O9         -1.7989   -0.7011    3.7021 O.3       1 <0>        -0.5144
     37 O10        -7.5199    0.9301    2.5975 O.3       1 <0>        -0.5173
     38 H8         -8.8521   -1.2273    2.0281 H         1 <0>         0.0601
     39 H9         -8.8386    0.0087    0.7472 H         1 <0>         0.0879
     40 H10        -8.7846   -1.7180    0.3184 H         1 <0>         0.0819
     41 H11        -4.8451   -0.3743    5.6782 H         1 <0>         0.3931
     42 H12        -1.7764    2.5376    3.3939 H         1 <0>         0.1116
     43 H13        -2.6500    3.6481    2.2927 H         1 <0>         0.0996
     44 H14        -0.9979   -0.3341    0.3141 H         1 <0>         0.0475
     45 H15         0.6404    0.3432    0.1540 H         1 <0>         0.0719
     46 H16        -0.6973    1.0119   -0.8112 H         1 <0>         0.0683
     47 H17         0.9254    1.4756    2.6429 H         1 <0>         0.0609
     48 H18        -0.6772    1.4628    3.4173 H         1 <0>         0.0785
     49 H19        -0.0781    0.0066    2.5874 H         1 <0>         0.0614
     50 H20        -0.6060    3.2916   -0.0345 H         1 <0>         0.0589
     51 H21        -0.3709    3.6608    1.6908 H         1 <0>         0.0626
     52 H22         0.9254    2.8652    0.7663 H         1 <0>         0.0632
     53 H23        -1.2448   -1.4177    4.0405 H         1 <0>         0.3967
     54 H24        -8.2929    0.4582    2.9363 H         1 <0>         0.3947
@<TRIPOS>BOND
     1    1    2 1
     2    1   38 1
     3    1   39 1
     4    1   40 1
     5    2    3 1
     6    2    9 1
     7    2    4 1
     8    4    5 2
     9    4    6 1
    10    6    7 1
    11    7    8 1
    12    7   17 1
    13    7    9 1
    14    9   10 1
    15    9   37 1
    16   10   16 1
    17   10   35 1
    18   10   11 1
    19   11   12 2
    20   11   13 1
    21   13   14 1
    22   14   15 1
    23   14   23 1
    24   14   16 1
    25   16   17 1
    26   16   20 1
    27   17   18 1
    28   17   19 1
    29   19   41 1
    30   20   33 1
    31   20   21 1
    32   20   28 1
    33   21   22 1
    34   21   23 1
    35   21   24 1
    36   23   42 1
    37   23   43 1
    38   24   25 1
    39   24   26 1
    40   24   27 1
    41   25   44 1
    42   25   45 1
    43   25   46 1
    44   26   47 1
    45   26   48 1
    46   26   49 1
    47   27   50 1
    48   27   51 1
    49   27   52 1
    50   28   29 1
    51   28   30 1
    52   28   36 1
    53   30   31 2
    54   30   32 1
    55   32   33 1
    56   33   34 1
    57   33   35 1
    58   36   53 1
    59   37   54 1
@<TRIPOS>MOLECULE
ZINC29555312
   55    57     0     0     0
SMALL
USER_CHARGES

@<TRIPOS>ATOM
      1 C1         -0.0187    1.5258    0.0104 C.3       1 <0>        -0.1428
      2 C2          0.0021   -0.0041    0.0020 C.3       1 <0>        -0.1115
      3 H1          0.5202   -0.3732   -0.8831 H         1 <0>         0.0855
      4 C3         -1.4363   -0.5653    0.0608 C.3       1 <0>        -0.1114
      5 H2         -1.6284   -1.2139   -0.7939 H         1 <0>         0.0856
      6 C4         -1.4689   -1.3774    1.3745 C.3       1 <0>         0.1229
      7 H3         -1.2561   -2.4280    1.1766 H         1 <0>         0.0772
      8 O1         -0.4281   -0.7990    2.1919 O.3       1 <0>        -0.3517
      9 C5          0.6716   -0.5434    1.2855 C.3       1 <0>         0.1225
     10 H4          1.2116   -1.4660    1.0728 H         1 <0>         0.0784
     11 C6          1.6035    0.4896    1.8648 C.ar      1 <0>        -0.0739
     12 C7          1.1107    1.4664    2.7100 C.ar      1 <0>        -0.0870
     13 C8          1.9614    2.4162    3.2441 C.ar      1 <0>        -0.1745
     14 C9          3.3114    2.3903    2.9329 C.ar      1 <0>         0.1015
     15 C10         3.8075    1.4069    2.0825 C.ar      1 <0>         0.0997
     16 C11         2.9502    0.4549    1.5545 C.ar      1 <0>        -0.1642
     17 O2          5.1317    1.3773    1.7742 O.3       1 <0>        -0.3060
     18 C12         5.5701    0.3394    0.8951 C.3       1 <0>         0.0258
     19 O3          4.1496    3.3242    3.4571 O.3       1 <0>        -0.3068
     20 C13         3.5704    4.3035    4.3217 C.3       1 <0>         0.0259
     21 C14        -2.8093   -1.2324    2.0478 C.ar      1 <0>        -0.0753
     22 C15        -3.0903   -0.0991    2.7881 C.ar      1 <0>        -0.0856
     23 C16        -4.3185    0.0386    3.4076 C.ar      1 <0>        -0.1755
     24 C17        -5.2712   -0.9603    3.2869 C.ar      1 <0>         0.1024
     25 C18        -4.9885   -2.1008    2.5414 C.ar      1 <0>         0.0990
     26 C19        -3.7573   -2.2304    1.9190 C.ar      1 <0>        -0.1629
     27 O4         -5.9203   -3.0839    2.4200 O.3       1 <0>        -0.3060
     28 C20        -5.5608   -4.2257    1.6397 C.3       1 <0>         0.0257
     29 O5         -6.4797   -0.8266    3.8961 O.3       1 <0>        -0.3067
     30 C21        -6.6998    0.3704    4.6450 C.3       1 <0>         0.0259
     31 C22        -2.4553    0.5750    0.1066 C.3       1 <0>        -0.1442
     32 H5          1.0039    1.9031    0.0027 H         1 <0>         0.0573
     33 H6         -0.5459    1.8868   -0.8726 H         1 <0>         0.0577
     34 H7         -0.5289    1.8773    0.9072 H         1 <0>         0.0647
     35 H8          0.0586    1.4876    2.9534 H         1 <0>         0.1309
     36 H9          1.5737    3.1786    3.9035 H         1 <0>         0.1358
     37 H10         3.3333   -0.3116    0.8972 H         1 <0>         0.1349
     38 H11         6.6440    0.4307    0.7322 H         1 <0>         0.1012
     39 H12         5.3515   -0.6309    1.3411 H         1 <0>         0.0548
     40 H13         5.0492    0.4267   -0.0584 H         1 <0>         0.0546
     41 H14         2.8104    4.8644    3.7778 H         1 <0>         0.0551
     42 H15         3.1128    3.8073    5.1776 H         1 <0>         0.0553
     43 H16         4.3462    4.9856    4.6693 H         1 <0>         0.1010
     44 H17        -2.3486    0.6801    2.8829 H         1 <0>         0.1305
     45 H18        -4.5352    0.9246    3.9859 H         1 <0>         0.1359
     46 H19        -3.5367   -3.1128    1.3367 H         1 <0>         0.1350
     47 H20        -6.3913   -4.9314    1.6242 H         1 <0>         0.1012
     48 H21        -5.3314   -3.9122    0.6212 H         1 <0>         0.0545
     49 H22        -4.6853   -4.7045    2.0783 H         1 <0>         0.0549
     50 H23        -5.9603    0.4409    5.4427 H         1 <0>         0.0553
     51 H24        -6.6068    1.2336    3.9860 H         1 <0>         0.0551
     52 H25        -7.7000    0.3495    5.0777 H         1 <0>         0.1010
     53 H26        -2.3519    1.1908   -0.7868 H         1 <0>         0.0580
     54 H27        -3.4626    0.1607    0.1477 H         1 <0>         0.0570
     55 H28        -2.2773    1.1860    0.9916 H         1 <0>         0.0662
@<TRIPOS>BOND
     1    1    2 1
     2    1   32 1
     3    1   33 1
     4    1   34 1
     5    2    3 1
     6    2    9 1
     7    2    4 1
     8    4    5 1
     9    4    6 1
    10    4   31 1
    11    6    7 1
    12    6    8 1
    13    6   21 1
    14    8    9 1
    15    9   10 1
    16    9   11 1
    17   11   16 ar
    18   11   12 ar
    19   12   13 ar
    20   12   35 1
    21   13   14 ar
    22   13   36 1
    23   14   15 ar
    24   14   19 1
    25   15   16 ar
    26   15   17 1
    27   16   37 1
    28   17   18 1
    29   18   38 1
    30   18   39 1
    31   18   40 1
    32   19   20 1
    33   20   41 1
    34   20   42 1
    35   20   43 1
    36   21   26 ar
    37   21   22 ar
    38   22   23 ar
    39   22   44 1
    40   23   24 ar
    41   23   45 1
    42   24   25 ar
    43   24   29 1
    44   25   26 ar
    45   25   27 1
    46   26   46 1
    47   27   28 1
    48   28   47 1
    49   28   48 1
    50   28   49 1
    51   29   30 1
    52   30   50 1
    53   30   51 1
    54   30   52 1
    55   31   53 1
    56   31   54 1
    57   31   55 1
@<TRIPOS>MOLECULE
ZINC06067611
   55    57     0     0     0
SMALL
USER_CHARGES
methyl 1,4a-dimethyl-6-methylene-5-[2-(2-oxo-5H-furan-3-yl)ethyl]decalin-1-carboxylate
@<TRIPOS>ATOM
      1 C1         -0.5235    0.9657    0.5111 C.3       1 <0>        -0.1928
      2 C2         -0.3781   -0.5535    0.4033 C.3       1 <0>        -0.0426
      3 C3         -1.7652   -1.1981    0.3381 C.3       1 <0>        -0.1148
      4 C4         -2.5468   -0.8895    1.6072 C.3       1 <0>        -0.1366
      5 C5         -1.7893   -1.4445    2.8158 C.3       1 <0>        -0.0992
      6 C6         -0.4134   -0.7822    2.8950 C.3       1 <0>        -0.0468
      7 C7          0.3806   -1.0831    1.6210 C.3       1 <0>        -0.0627
      8 H1          0.5178   -2.1601    1.5239 H         1 <0>         0.0870
      9 C8          1.7473   -0.3995    1.7206 C.3       1 <0>        -0.1310
     10 C9          2.5922   -0.7582    0.4948 C.3       1 <0>        -0.0857
     11 C10         1.8092   -0.3912   -0.7468 C.2       1 <0>        -0.1037
     12 C11         2.3427    0.3522   -1.6843 C.2       1 <0>        -0.2150
     13 C12         0.3937   -0.9062   -0.8745 C.3       1 <0>        -0.0409
     14 H2          0.4039   -1.9879   -1.0084 H         1 <0>         0.0860
     15 C13        -0.2785   -0.2439   -2.0789 C.3       1 <0>        -0.1140
     16 C14         0.3034   -0.8230   -3.3700 C.3       1 <0>        -0.0719
     17 C15        -0.3747   -0.1871   -4.5561 C.2       1 <0>        -0.1949
     18 C16         0.0815    0.8677   -5.2267 C.2       1 <0>        -0.1262
     19 C17        -0.9122    1.1520   -6.3287 C.3       1 <0>         0.0562
     20 O1         -1.9625    0.1544   -6.1894 O.3       1 <0>        -0.3248
     21 C18        -1.6411   -0.6312   -5.1445 C.2       1 <0>         0.4957
     22 O2         -2.3033   -1.5699   -4.7479 O.2       1 <0>        -0.4500
     23 C19         0.3444   -1.3270    4.1074 C.3       1 <0>        -0.1475
     24 C20        -0.5837    0.7083    3.0390 C.2       1 <0>         0.4859
     25 O3         -1.6906    1.1836    3.1320 O.2       1 <0>        -0.5077
     26 O4          0.4943    1.5077    3.0638 O.3       1 <0>        -0.3504
     27 C21         0.2550    2.9328    3.2049 C.3       1 <0>         0.0269
     28 H3          0.4205    1.3985    0.8422 H         1 <0>         0.0719
     29 H4         -0.7891    1.3754   -0.4634 H         1 <0>         0.0608
     30 H5         -1.3056    1.2056    1.2315 H         1 <0>         0.0773
     31 H6         -2.3073   -0.8053   -0.5221 H         1 <0>         0.0669
     32 H7         -1.6586   -2.2780    0.2360 H         1 <0>         0.0638
     33 H8         -3.5323   -1.3519    1.5514 H         1 <0>         0.0651
     34 H9         -2.6565    0.1900    1.7105 H         1 <0>         0.0876
     35 H10        -1.6687   -2.5222    2.7064 H         1 <0>         0.0767
     36 H11        -2.3493   -1.2305    3.7261 H         1 <0>         0.0714
     37 H12         1.6104    0.6810    1.7634 H         1 <0>         0.0954
     38 H13         2.2566   -0.7364    2.6235 H         1 <0>         0.0709
     39 H14         3.5279   -0.1996    0.5174 H         1 <0>         0.0695
     40 H15         2.8024   -1.8278    0.4937 H         1 <0>         0.0702
     41 H16         3.3858    0.6262   -1.6279 H         1 <0>         0.0954
     42 H17         1.7394    0.6910   -2.5135 H         1 <0>         0.1079
     43 H18        -1.3513   -0.4344   -2.0464 H         1 <0>         0.0732
     44 H19        -0.0992    0.8308   -2.0496 H         1 <0>         0.0715
     45 H20         1.3732   -0.6183   -3.4102 H         1 <0>         0.0945
     46 H21         0.1385   -1.9003   -3.3917 H         1 <0>         0.0816
     47 H22         0.9901    1.4149   -5.0235 H         1 <0>         0.1741
     48 H23        -0.4335    1.0594   -7.3036 H         1 <0>         0.1212
     49 H24        -1.3265    2.1528   -6.2069 H         1 <0>         0.1199
     50 H25         1.3232   -0.8513    4.1679 H         1 <0>         0.0736
     51 H26        -0.2202   -1.1132    5.0149 H         1 <0>         0.0613
     52 H27         0.4700   -2.4047    4.0031 H         1 <0>         0.0742
     53 H28        -0.3508    3.2840    2.3696 H         1 <0>         0.0627
     54 H29        -0.2715    3.1220    4.1404 H         1 <0>         0.0625
     55 H30         1.2077    3.4624    3.2107 H         1 <0>         0.1006
@<TRIPOS>BOND
     1    1    2 1
     2    1   28 1
     3    1   29 1
     4    1   30 1
     5    2    7 1
     6    2   13 1
     7    2    3 1
     8    3    4 1
     9    3   31 1
    10    3   32 1
    11    4    5 1
    12    4   33 1
    13    4   34 1
    14    5    6 1
    15    5   35 1
    16    5   36 1
    17    6    7 1
    18    6   23 1
    19    6   24 1
    20    7    8 1
    21    7    9 1
    22    9   10 1
    23    9   37 1
    24    9   38 1
    25   10   11 1
    26   10   39 1
    27   10   40 1
    28   11   12 2
    29   11   13 1
    30   12   41 1
    31   12   42 1
    32   13   14 1
    33   13   15 1
    34   15   16 1
    35   15   43 1
    36   15   44 1
    37   16   17 1
    38   16   45 1
    39   16   46 1
    40   17   21 1
    41   17   18 2
    42   18   19 1
    43   18   47 1
    44   19   20 1
    45   19   48 1
    46   19   49 1
    47   20   21 1
    48   21   22 2
    49   23   50 1
    50   23   51 1
    51   23   52 1
    52   24   25 2
    53   24   26 1
    54   26   27 1
    55   27   53 1
    56   27   54 1
    57   27   55 1
@<TRIPOS>MOLECULE
ZINC26579027
   55    57     0     0     0
SMALL
USER_CHARGES
methyl (1S,4aR,5S,8aS)-1,4a-dimethyl-6-methylene-5-[2-(2-oxo-5H-furan-3-yl)ethyl]decalin-1-carboxylate
@<TRIPOS>ATOM
      1 C1          0.8447   -0.4480   -1.2023 C.3       1 <0>        -0.2067
      2 C2          0.1103    0.0433    0.0468 C.3       1 <0>        -0.0427
      3 C3         -0.2781    1.5107   -0.1382 C.3       1 <0>        -0.1117
      4 C4          0.9850    2.3422   -0.3745 C.3       1 <0>        -0.1351
      5 C5          1.9233    2.2015    0.8253 C.3       1 <0>        -0.1020
      6 C6          2.3020    0.7309    1.0127 C.3       1 <0>        -0.0483
      7 C7          1.0314   -0.0894    1.2614 C.3       1 <0>        -0.0635
      8 H1          1.2699   -1.1519    1.4170 H         1 <0>         0.0876
      9 C8          0.3455    0.4563    2.5052 C.3       1 <0>        -0.1212
     10 C9         -0.8930   -0.3911    2.8127 C.3       1 <0>        -0.0851
     11 C10        -1.7735   -0.4156    1.5826 C.2       1 <0>        -0.1099
     12 C11        -3.0448   -0.1086    1.6584 C.2       1 <0>        -0.1976
     13 C12        -1.1451   -0.8040    0.2628 C.3       1 <0>        -0.0387
     14 H2         -1.8674   -0.6272   -0.5478 H         1 <0>         0.0781
     15 C13        -0.7656   -2.2860    0.2885 C.3       1 <0>        -0.1098
     16 C14        -2.0346   -3.1359    0.3794 C.3       1 <0>        -0.0601
     17 C15        -1.6608   -4.5956    0.4047 C.2       1 <0>        -0.2044
     18 C16        -1.5015   -5.3283    1.5038 C.2       1 <0>        -0.1303
     19 C17        -1.1352   -6.7233    1.0536 C.3       1 <0>         0.0619
     20 O1         -1.1005   -6.6796   -0.4006 O.3       1 <0>        -0.3224
     21 C18        -1.4106   -5.4249   -0.7772 C.2       1 <0>         0.4945
     22 O2         -1.4737   -5.0373   -1.9274 O.2       1 <0>        -0.4517
     23 C19         3.2423    0.5929    2.2118 C.3       1 <0>        -0.1489
     24 C20         2.9919    0.2265   -0.2285 C.2       1 <0>         0.4956
     25 O3          3.2765    0.9953   -1.1162 O.2       1 <0>        -0.5142
     26 O4          3.2902   -1.0768   -0.3480 O.3       1 <0>        -0.3585
     27 C21         3.9546   -1.4915   -1.5707 C.3       1 <0>         0.0276
     28 H3          0.1843   -0.3535   -2.0769 H         1 <0>         0.0589
     29 H4          1.1289   -1.5023   -1.0696 H         1 <0>         0.0683
     30 H5          1.7489    0.1586   -1.3584 H         1 <0>         0.0927
     31 H6         -0.9492    1.6059   -1.0046 H         1 <0>         0.0621
     32 H7         -0.7923    1.8706    0.7652 H         1 <0>         0.0700
     33 H8          1.4949    1.9849   -1.2813 H         1 <0>         0.0837
     34 H9          0.7095    3.3996   -0.5013 H         1 <0>         0.0650
     35 H10         2.8337    2.7934    0.6501 H         1 <0>         0.0721
     36 H11         1.4173    2.5665    1.7313 H         1 <0>         0.0804
     37 H12         1.0414    0.4140    3.3561 H         1 <0>         0.0726
     38 H13         0.0439    1.4995    2.3298 H         1 <0>         0.0761
     39 H14        -0.5822   -1.4137    3.0730 H         1 <0>         0.0720
     40 H15        -1.4400    0.0522    3.6578 H         1 <0>         0.0700
     41 H16        -3.6710   -0.1314    0.7543 H         1 <0>         0.0986
     42 H17        -3.4861    0.1720    2.6261 H         1 <0>         0.0993
     43 H18        -0.2189   -2.5405   -0.6315 H         1 <0>         0.0747
     44 H19        -0.1271   -2.4859    1.1616 H         1 <0>         0.0685
     45 H20        -2.5812   -2.8814    1.2994 H         1 <0>         0.0834
     46 H21        -2.6731   -2.9360   -0.4937 H         1 <0>         0.0801
     47 H22        -1.6423   -4.8715    2.4945 H         1 <0>         0.1790
     48 H23        -0.1527   -6.9957    1.4665 H         1 <0>         0.1228
     49 H24        -1.8935   -7.4352    1.4117 H         1 <0>         0.1229
     50 H25         3.5136   -0.4647    2.3452 H         1 <0>         0.0700
     51 H26         2.7372    0.9590    3.1178 H         1 <0>         0.0790
     52 H27         4.1521    1.1853    2.0344 H         1 <0>         0.0626
     53 H28         4.1393   -2.5754   -1.5381 H         1 <0>         0.1030
     54 H29         4.9124   -0.9591   -1.6662 H         1 <0>         0.0643
     55 H30         3.3154   -1.2542   -2.4339 H         1 <0>         0.0653
@<TRIPOS>BOND
     1    1    2 1
     2    1   28 1
     3    1   29 1
     4    1   30 1
     5    2    7 1
     6    2   13 1
     7    2    3 1
     8    3    4 1
     9    3   31 1
    10    3   32 1
    11    4    5 1
    12    4   33 1
    13    4   34 1
    14    5    6 1
    15    5   35 1
    16    5   36 1
    17    6    7 1
    18    6   23 1
    19    6   24 1
    20    7    8 1
    21    7    9 1
    22    9   10 1
    23    9   37 1
    24    9   38 1
    25   10   11 1
    26   10   39 1
    27   10   40 1
    28   11   12 2
    29   11   13 1
    30   12   41 1
    31   12   42 1
    32   13   14 1
    33   13   15 1
    34   15   16 1
    35   15   43 1
    36   15   44 1
    37   16   17 1
    38   16   45 1
    39   16   46 1
    40   17   21 1
    41   17   18 2
    42   18   19 1
    43   18   47 1
    44   19   20 1
    45   19   48 1
    46   19   49 1
    47   20   21 1
    48   21   22 2
    49   23   50 1
    50   23   51 1
    51   23   52 1
    52   24   25 2
    53   24   26 1
    54   26   27 1
    55   27   53 1
    56   27   54 1
    57   27   55 1
@<TRIPOS>MOLECULE
ZINC00598829
   57    61     0     0     0
SMALL
USER_CHARGES
chloro-[1-[(5-methyl-3-pyridyl)methyl]-4-piperidylidene]-BLAH
@<TRIPOS>ATOM
      1 C1          0.6344    3.4441    4.2252 C.3       1 <0>        -0.1214
      2 C2         -0.2725    3.0157    3.1005 C.ar      1 <0>        -0.1255
      3 C3          0.2550    2.4465    1.9513 C.ar      1 <0>        -0.0547
      4 C4         -0.6171    2.0680    0.9424 C.ar      1 <0>        -0.2123
      5 C5         -1.9734    2.2738    1.1121 C.ar      1 <0>         0.1232
      6 N1         -2.4401    2.8137    2.2208 N.ar      1 <0>        -0.4696
      7 C6         -1.6401    3.1854    3.2013 C.ar      1 <0>         0.1344
      8 C7         -0.0926    1.4456   -0.3260 C.3       1 <0>         0.0533
      9 C8          0.9442   -0.3944    0.8568 C.3       1 <0>        -0.0053
     10 C9          0.8033   -1.8894    1.1656 C.3       1 <0>        -0.0926
     11 C10         0.9044   -2.6542   -0.1375 C.2       1 <0>        -0.1299
     12 C11         1.7189   -3.7096   -0.2586 C.2       1 <0>         0.0183
     13 C12         1.8893   -4.3462   -1.5846 C.ar      1 <0>        -0.0581
     14 C13         0.8157   -4.9298   -2.2513 C.ar      1 <0>        -0.0875
     15 C14         1.0286   -5.5026   -3.4914 C.ar      1 <0>        -0.1093
     16 C15         2.2951   -5.4885   -4.0511 C.ar      1 <0>        -0.0234
     17 C16         3.3572   -4.9082   -3.3783 C.ar      1 <0>        -0.1028
     18 C17         3.1485   -4.3371   -2.1332 C.ar      1 <0>        -0.0537
     19 C18         4.2919   -3.7193   -1.3902 C.3       1 <0>        -0.0791
     20 C19         4.7405   -4.5341   -0.2070 C.3       1 <0>        -0.0762
     21 C20         3.7568   -4.5982    0.9317 C.ar      1 <0>        -0.0964
     22 C21         2.4355   -4.2128    0.9337 C.ar      1 <0>         0.1416
     23 N2          1.7029   -4.2985    2.0556 N.ar      1 <0>        -0.4771
     24 C22         2.1863   -4.7602    3.1844 C.ar      1 <0>         0.1060
     25 C23         3.4991   -5.1898    3.2514 C.ar      1 <0>        -0.1564
     26 C24         4.2905   -5.1078    2.1229 C.ar      1 <0>        -0.0828
     27 Cl1         2.5539   -6.2055   -5.6108 Cl        1 <0>        -0.0540
     28 C25         0.0536   -2.1850   -1.2990 C.3       1 <0>        -0.1112
     29 C26         0.2421   -0.6713   -1.4513 C.3       1 <0>         0.0032
     30 H1          0.9373    4.4801    4.0732 H         1 <0>         0.0845
     31 H2          0.1039    3.3561    5.1734 H         1 <0>         0.0806
     32 H3          1.5180    2.8061    4.2427 H         1 <0>         0.0742
     33 H4          1.3199    2.3013    1.8449 H         1 <0>         0.1430
     34 H5         -2.6591    1.9855    0.3291 H         1 <0>         0.1625
     35 H6         -2.0588    3.6279    4.0930 H         1 <0>         0.1690
     36 H7          0.9071    1.8280   -0.5319 H         1 <0>         0.1383
     37 H8         -0.7552    1.6960   -1.1545 H         1 <0>         0.1399
     38 H9          1.9506   -0.1922    0.4904 H         1 <0>         0.1285
     39 H10         0.7644    0.1827    1.7638 H         1 <0>         0.1262
     40 H11        -0.1647   -2.0793    1.6292 H         1 <0>         0.1009
     41 H12         1.6016   -2.2025    1.8385 H         1 <0>         0.1191
     42 H13        -0.1685   -4.9351   -1.8066 H         1 <0>         0.1383
     43 H14         0.2078   -5.9607   -4.0233 H         1 <0>         0.1415
     44 H15         4.3422   -4.9012   -3.8211 H         1 <0>         0.1415
     45 H16         5.1324   -3.6037   -2.0745 H         1 <0>         0.0878
     46 H17         3.9890   -2.7328   -1.0391 H         1 <0>         0.0741
     47 H18         4.9407   -5.5506   -0.5458 H         1 <0>         0.0864
     48 H19         5.6727   -4.1114    0.1677 H         1 <0>         0.0914
     49 H20         1.5584   -4.8052    4.0620 H         1 <0>         0.1648
     50 H21         3.8998   -5.5837    4.1737 H         1 <0>         0.1422
     51 H22         5.3190   -5.4355    2.1584 H         1 <0>         0.1398
     52 H23        -0.9948   -2.4067   -1.0999 H         1 <0>         0.1038
     53 H24         0.3693   -2.6885   -2.2128 H         1 <0>         0.1223
     54 H25        -0.4441   -0.2939   -2.2094 H         1 <0>         0.1332
     55 H26         1.2683   -0.4610   -1.7528 H         1 <0>         0.1314
     56 N3         -0.0657   -0.0213   -0.1580 N.4       1 <0>        -0.3932
     57 H27        -0.9892   -0.3372    0.1609 H         1 <0>         0.4269
@<TRIPOS>BOND
     1    1    2 1
     2    1   30 1
     3    1   31 1
     4    1   32 1
     5    2    7 ar
     6    2    3 ar
     7    3    4 ar
     8    3   33 1
     9    4    5 ar
    10    4    8 1
    11    5    6 ar
    12    5   34 1
    13    6    7 ar
    14    7   35 1
    15    8   36 1
    16    8   37 1
    17    8   56 1
    18    9   10 1
    19    9   38 1
    20    9   39 1
    21    9   56 1
    22   10   11 1
    23   10   40 1
    24   10   41 1
    25   11   12 2
    26   11   28 1
    27   12   22 1
    28   12   13 1
    29   13   18 ar
    30   13   14 ar
    31   14   15 ar
    32   14   42 1
    33   15   16 ar
    34   15   43 1
    35   16   17 ar
    36   16   27 1
    37   17   18 ar
    38   17   44 1
    39   18   19 1
    40   19   20 1
    41   19   45 1
    42   19   46 1
    43   20   21 1
    44   20   47 1
    45   20   48 1
    46   21   26 ar
    47   21   22 ar
    48   22   23 ar
    49   23   24 ar
    50   24   25 ar
    51   24   49 1
    52   25   26 ar
    53   25   50 1
    54   26   51 1
    55   28   29 1
    56   28   52 1
    57   28   53 1
    58   29   54 1
    59   29   55 1
    60   29   56 1
    61   56   57 1
@<TRIPOS>MOLECULE
ZINC03809579
   60    65     0     0     0
SMALL
USER_CHARGES
6-(4-fluorophenyl)-N,N-dimethyl-3-[[2-(3-pyridyl)-3-thia-1-azabicyclo[3.3.0]octa-5,7-dien-6-yl]carbonyl]indole-1-carboxamide
@<TRIPOS>ATOM
      1 C1         -4.7143    4.9251   -0.5875 C.3       1 <0>         0.0931
      2 N1         -3.2591    4.8154   -0.7162 N.am      1 <0>        -0.6113
      3 C2         -2.6766    4.0815   -1.8424 C.3       1 <0>         0.0611
      4 C3         -2.4563    5.3898    0.2014 C.2       1 <0>         0.7091
      5 O1         -2.9341    6.0811    1.0792 O.2       1 <0>        -0.5186
      6 N2         -1.1235    5.1974    0.1455 N.am      1 <0>        -0.4717
      7 C4         -0.5121    3.9806    0.1203 C.2       1 <0>         0.0951
      8 C5          0.8391    4.1458    0.0668 C.2       1 <0>        -0.1959
      9 C6          1.0869    5.6001    0.0474 C.ar      1 <0>        -0.0625
     10 C7         -0.1778    6.2087    0.0985 C.ar      1 <0>         0.1162
     11 C8         -0.2693    7.5928    0.0942 C.ar      1 <0>        -0.1015
     12 C9          0.8895    8.3598    0.0394 C.ar      1 <0>        -0.0202
     13 C10         2.1421    7.7428   -0.0111 C.ar      1 <0>        -0.1179
     14 C11         2.2399    6.3803   -0.0068 C.ar      1 <0>        -0.0655
     15 C12         0.7952    9.8401    0.0342 C.ar      1 <0>        -0.0537
     16 C13        -0.4518   10.4612    0.0782 C.ar      1 <0>        -0.0804
     17 C14        -0.5345   11.8384    0.0779 C.ar      1 <0>        -0.1496
     18 C15         0.6191   12.6038    0.0234 C.ar      1 <0>         0.1004
     19 C16         1.8606   11.9906   -0.0258 C.ar      1 <0>        -0.1501
     20 C17         1.9531   10.6141   -0.0206 C.ar      1 <0>        -0.0785
     21 F1          0.5332   13.9521    0.0177 F         1 <0>        -0.1380
     22 C18         1.8531    3.0817    0.0292 C.2       1 <0>         0.5046
     23 O2          2.0440    2.4588   -0.9992 O.2       1 <0>        -0.4553
     24 C19         2.6380    2.7693    1.2361 C.2       1 <0>        -0.2269
     25 C20         2.6064    3.4816    2.5115 C.2       1 <0>        -0.1235
     26 C21         3.4728    2.8527    3.3128 C.2       1 <0>         0.0018
     27 N3          4.0469    1.7921    2.6284 N.pl3     1 <0>        -0.4526
     28 C22         3.5528    1.7412    1.3894 C.2       1 <0>         0.0870
     29 C23         4.0711    0.6325    0.4682 C.3       1 <0>        -0.0080
     30 S1          5.5650    0.0856    1.3952 S.3       1 <0>        -0.2212
     31 C24         5.0565    0.7679    3.0265 C.3       1 <0>         0.2238
     32 H1          5.9012    1.2309    3.5366 H         1 <0>         0.1427
     33 C25         4.4308   -0.3001    3.8862 C.ar      1 <0>        -0.1638
     34 C26         4.8921   -0.5239    5.1746 C.ar      1 <0>        -0.0458
     35 C27         4.2865   -1.5169    5.9290 C.ar      1 <0>        -0.1703
     36 C28         3.2504   -2.2456    5.3758 C.ar      1 <0>         0.1159
     37 N4          2.8377   -2.0052    4.1468 N.ar      1 <0>        -0.4791
     38 C29         3.3865   -1.0648    3.4025 C.ar      1 <0>         0.1395
     39 H2         -5.0592    5.8169   -1.1108 H         1 <0>         0.0646
     40 H3         -5.1850    4.0436   -1.0229 H         1 <0>         0.0803
     41 H4         -4.9815    4.9963    0.4668 H         1 <0>         0.0819
     42 H5         -1.5934    4.0402   -1.7278 H         1 <0>         0.0848
     43 H6         -3.0786    3.0686   -1.8629 H         1 <0>         0.0753
     44 H7         -2.9243    4.5897   -2.7744 H         1 <0>         0.0722
     45 H8         -1.0214    3.0285    0.1425 H         1 <0>         0.1814
     46 H9         -1.2361    8.0727    0.1329 H         1 <0>         0.1294
     47 H10         3.0371    8.3459   -0.0531 H         1 <0>         0.1335
     48 H11         3.2105    5.9082   -0.0462 H         1 <0>         0.1315
     49 H12        -1.3517    9.8653    0.1166 H         1 <0>         0.1348
     50 H13        -1.5002   12.3206    0.1158 H         1 <0>         0.1383
     51 H14         2.7573   12.5911   -0.0686 H         1 <0>         0.1393
     52 H15         2.9212   10.1369   -0.0593 H         1 <0>         0.1388
     53 H16         2.0010    4.3410    2.7590 H         1 <0>         0.1567
     54 H17         3.6909    3.1276    4.3342 H         1 <0>         0.1698
     55 H18         4.3390    1.0282   -0.5114 H         1 <0>         0.1402
     56 H19         3.3456   -0.1760    0.3789 H         1 <0>         0.1214
     57 H20         5.7041    0.0611    5.5806 H         1 <0>         0.1407
     58 H21         4.6198   -1.7183    6.9364 H         1 <0>         0.1440
     59 H22         2.7736   -3.0211    5.9568 H         1 <0>         0.1631
     60 H23         3.0182   -0.8934    2.4018 H         1 <0>         0.1494
@<TRIPOS>BOND
     1    1    2 1
     2    1   39 1
     3    1   40 1
     4    1   41 1
     5    2    3 1
     6    2    4 am
     7    3   42 1
     8    3   43 1
     9    3   44 1
    10    4    5 2
    11    4    6 am
    12    6   10 1
    13    6    7 1
    14    7    8 2
    15    7   45 1
    16    8    9 1
    17    8   22 1
    18    9   14 ar
    19    9   10 ar
    20   10   11 ar
    21   11   12 ar
    22   11   46 1
    23   12   13 ar
    24   12   15 1
    25   13   14 ar
    26   13   47 1
    27   14   48 1
    28   15   20 ar
    29   15   16 ar
    30   16   17 ar
    31   16   49 1
    32   17   18 ar
    33   17   50 1
    34   18   19 ar
    35   18   21 1
    36   19   20 ar
    37   19   51 1
    38   20   52 1
    39   22   23 2
    40   22   24 1
    41   24   28 2
    42   24   25 1
    43   25   26 2
    44   25   53 1
    45   26   27 1
    46   26   54 1
    47   27   31 1
    48   27   28 1
    49   28   29 1
    50   29   30 1
    51   29   55 1
    52   29   56 1
    53   30   31 1
    54   31   32 1
    55   31   33 1
    56   33   38 ar
    57   33   34 ar
    58   34   35 ar
    59   34   57 1
    60   35   36 ar
    61   35   58 1
    62   36   37 ar
    63   36   59 1
    64   37   38 ar
    65   38   60 1
