@<TRIPOS>MOLECULE
ZINC03099994
   66    71     0     0     0
SMALL
USER_CHARGES
4-[bis(3,4-dimethylphenyl)-tetraoxo-BLAHyl]carbonylbenzoic acid
@<TRIPOS>ATOM
      1 C1          6.4121    0.1130    0.0366 C.3       1 <0>        -0.1176
      2 C2          4.9899    0.6116    0.0369 C.ar      1 <0>        -0.0907
      3 C3          3.9422   -0.2909    0.0140 C.ar      1 <0>        -0.0940
      4 C4          2.6380    0.1630    0.0142 C.ar      1 <0>        -0.1349
      5 C5          2.3790    1.5271    0.0369 C.ar      1 <0>         0.1207
      6 C6          3.4328    2.4306    0.0540 C.ar      1 <0>        -0.1326
      7 C7          4.7353    1.9703    0.0595 C.ar      1 <0>        -0.0688
      8 C8          5.8798    2.9504    0.0843 C.3       1 <0>        -0.1165
      9 N1          1.0566    1.9908    0.0366 N.am      1 <0>        -0.5114
     10 C9          0.7049    3.2888    0.0583 C.2       1 <0>         0.5821
     11 O1          1.4714    4.2303    0.0796 O.2       1 <0>        -0.4319
     12 C10        -0.7730    3.3779    0.0510 C.ar      1 <0>        -0.1072
     13 C11        -1.6737    4.4368    0.0650 C.ar      1 <0>         0.0376
     14 C12        -3.0403    4.1824    0.0382 C.ar      1 <0>        -0.1068
     15 C13        -3.5151    2.8592    0.0088 C.ar      1 <0>        -0.0839
     16 C14        -2.6130    1.7887   -0.0013 C.ar      1 <0>         0.0080
     17 C15        -1.2380    2.0513    0.0182 C.ar      1 <0>        -0.0847
     18 C16        -0.0288    1.1965    0.0155 C.2       1 <0>         0.5715
     19 O2         -0.0187   -0.0174   -0.0074 O.2       1 <0>        -0.4108
     20 C17        -3.1076    0.3942   -0.0327 C.2       1 <0>         0.4450
     21 O3         -3.2366   -0.2280    1.0026 O.2       1 <0>        -0.4184
     22 C18        -3.4447   -0.2418   -1.3245 C.ar      1 <0>        -0.1715
     23 C19        -3.2022    0.4364   -2.5216 C.ar      1 <0>        -0.0913
     24 C20        -3.5106   -0.1590   -3.7250 C.ar      1 <0>        -0.0887
     25 C21        -4.0766   -1.4352   -3.7480 C.ar      1 <0>        -0.0690
     26 C22        -4.3249   -2.1109   -2.5515 C.ar      1 <0>        -0.0984
     27 C23        -4.0110   -1.5187   -1.3479 C.ar      1 <0>        -0.0611
     28 C24        -4.4129   -2.0719   -5.0402 C.2       1 <0>         0.4853
     29 O4         -4.9048   -3.1820   -5.0604 O.co2     1 <0>        -0.6220
     30 C25        -4.9926    2.9576   -0.0044 C.2       1 <0>         0.5708
     31 O5         -5.7653    2.0214   -0.0293 O.2       1 <0>        -0.4094
     32 N2         -5.3349    4.2583    0.0163 N.am      1 <0>        -0.5114
     33 C26        -4.2439    5.0445    0.0420 C.2       1 <0>         0.5819
     34 O6         -4.2459    6.2585    0.0652 O.2       1 <0>        -0.4321
     35 C27        -6.6539    4.7316    0.0110 C.ar      1 <0>         0.1207
     36 C28        -7.7136    3.8396    0.1092 C.ar      1 <0>        -0.1333
     37 C29        -9.0123    4.3091    0.1042 C.ar      1 <0>        -0.0940
     38 C30        -9.2580    5.6662    0.0010 C.ar      1 <0>        -0.0903
     39 C31        -8.2050    6.5568   -0.0969 C.ar      1 <0>        -0.0689
     40 C32        -6.9036    6.0937   -0.0867 C.ar      1 <0>        -0.1312
     41 C33        -8.4772    8.0348   -0.2092 C.3       1 <0>        -0.1163
     42 C34       -10.6764    6.1753   -0.0042 C.3       1 <0>        -0.1176
     43 H1          6.7613    0.0114   -0.9909 H         1 <0>         0.0729
     44 H2          7.0462    0.8231    0.5673 H         1 <0>         0.0713
     45 H3          6.4573   -0.8563    0.5332 H         1 <0>         0.0673
     46 H4          4.1442   -1.3517   -0.0036 H         1 <0>         0.1333
     47 H5          1.8202   -0.5422   -0.0036 H         1 <0>         0.1562
     48 H6          3.2345    3.4921    0.0675 H         1 <0>         0.1558
     49 H7          6.1624    3.2050   -0.9372 H         1 <0>         0.0739
     50 H8          5.5736    3.8534    0.6124 H         1 <0>         0.0683
     51 H9          6.7314    2.5016    0.5957 H         1 <0>         0.0729
     52 H10        -1.3128    5.4545    0.0858 H         1 <0>         0.1733
     53 H11        -2.7689    1.4255   -2.5037 H         1 <0>         0.1145
     54 H12        -3.3185    0.3632   -4.6507 H         1 <0>         0.1394
     55 H13        -4.7626   -3.0980   -2.5697 H         1 <0>         0.1382
     56 H14        -4.2024   -2.0416   -0.4225 H         1 <0>         0.1319
     57 H15        -7.5223    2.7797    0.1898 H         1 <0>         0.1550
     58 H16        -9.8369    3.6159    0.1805 H         1 <0>         0.1334
     59 H17        -6.0814    6.7902   -0.1590 H         1 <0>         0.1547
     60 H18        -8.5173    8.4736    0.7878 H         1 <0>         0.0730
     61 H19        -7.6804    8.5084   -0.7828 H         1 <0>         0.0685
     62 H20        -9.4306    8.1914   -0.7137 H         1 <0>         0.0734
     63 H21       -10.9925    6.3806    1.0186 H         1 <0>         0.0718
     64 H22       -10.7315    7.0914   -0.5923 H         1 <0>         0.0717
     65 H23       -11.3311    5.4222   -0.4426 H         1 <0>         0.0680
     66 O7         -4.1735   -1.4203   -6.1945 O.co2     1 <0>        -0.7459
@<TRIPOS>BOND
     1    1    2 1
     2    1   43 1
     3    1   44 1
     4    1   45 1
     5    2    7 ar
     6    2    3 ar
     7    3    4 ar
     8    3   46 1
     9    4    5 ar
    10    4   47 1
    11    5    6 ar
    12    5    9 1
    13    6    7 ar
    14    6   48 1
    15    7    8 1
    16    8   49 1
    17    8   50 1
    18    8   51 1
    19    9   18 am
    20    9   10 am
    21   10   11 2
    22   10   12 1
    23   12   17 ar
    24   12   13 ar
    25   13   14 ar
    26   13   52 1
    27   14   33 1
    28   14   15 ar
    29   15   16 ar
    30   15   30 1
    31   16   17 ar
    32   16   20 1
    33   17   18 1
    34   18   19 2
    35   20   21 2
    36   20   22 1
    37   22   27 ar
    38   22   23 ar
    39   23   24 ar
    40   23   53 1
    41   24   25 ar
    42   24   54 1
    43   25   26 ar
    44   25   28 1
    45   26   27 ar
    46   26   55 1
    47   27   56 1
    48   28   29 2
    49   28   66 1
    50   30   31 2
    51   30   32 am
    52   32   33 am
    53   32   35 1
    54   33   34 2
    55   35   40 ar
    56   35   36 ar
    57   36   37 ar
    58   36   57 1
    59   37   38 ar
    60   37   58 1
    61   38   39 ar
    62   38   42 1
    63   39   40 ar
    64   39   41 1
    65   40   59 1
    66   41   60 1
    67   41   61 1
    68   41   62 1
    69   42   63 1
    70   42   64 1
    71   42   65 1
@<TRIPOS>MOLECULE
ZINC40865722
   52    53     0     0     0
SMALL
USER_CHARGES

@<TRIPOS>ATOM
      1 C1          0.0376    1.4705    0.1179 C.3       1 <0>        -0.1522
      2 C2          0.0440   -0.0591    0.0820 C.3       1 <0>        -0.1259
      3 C3          0.7555   -0.5365   -1.1855 C.3       1 <0>        -0.1197
      4 C4          0.7619   -2.0661   -1.2214 C.3       1 <0>        -0.1188
      5 C5          1.4734   -2.5435   -2.4890 C.3       1 <0>        -0.1247
      6 C6          1.4799   -4.0731   -2.5249 C.3       1 <0>        -0.0813
      7 C7          2.1914   -4.5505   -3.7924 C.3       1 <0>        -0.1381
      8 H1          1.7216   -4.0973   -4.6654 H         1 <0>         0.0899
      9 C8          2.0908   -6.0510   -3.8901 C.2       1 <0>         0.5038
     10 O1          1.7987   -6.5745   -4.9517 O.co2     1 <0>        -0.6579
     11 O2          2.3014   -6.7413   -2.9075 O.co2     1 <0>        -0.6894
     12 S1          3.9378   -4.0647   -3.7250 S.3       1 <0>         0.0178
     13 C9          4.5753   -4.5467   -5.2953 C.ar      1 <0>         0.3546
     14 N1          5.8540   -4.3301   -5.5676 N.ar      1 <0>        -0.5473
     15 C10         6.3657   -4.6824   -6.7428 C.ar      1 <0>         0.4420
     16 C11         5.5362   -5.2856   -7.6898 C.ar      1 <0>        -0.2910
     17 C12         4.2076   -5.4938   -7.3660 C.ar      1 <0>         0.2726
     18 N2          3.7653   -5.1217   -6.1726 N.ar      1 <0>        -0.4973
     19 Cl1         3.1328   -6.2398   -8.5070 Cl        1 <0>        -0.0138
     20 N3          7.7039   -4.4537   -7.0242 N.pl3     1 <0>        -0.6460
     21 C13         8.4940   -3.7323   -6.1244 C.ar      1 <0>         0.1692
     22 C14         7.9038   -2.8304   -5.2478 C.ar      1 <0>        -0.1267
     23 C15         8.6871   -2.1194   -4.3603 C.ar      1 <0>        -0.0971
     24 C16        10.0578   -2.3039   -4.3439 C.ar      1 <0>        -0.1435
     25 C17        10.6483   -3.2003   -5.2153 C.ar      1 <0>        -0.0699
     26 C18         9.8699   -3.9196   -6.1010 C.ar      1 <0>        -0.1286
     27 C19        10.5137   -4.9014   -7.0459 C.3       1 <0>        -0.1135
     28 C20        12.1422   -3.3973   -5.1945 C.3       1 <0>        -0.1121
     29 H2          1.0636    1.8383    0.1168 H         1 <0>         0.0525
     30 H3         -0.4862    1.8522   -0.7585 H         1 <0>         0.0519
     31 H4         -0.4693    1.8106    1.0209 H         1 <0>         0.0500
     32 H5          0.5678   -0.4409    0.9584 H         1 <0>         0.0601
     33 H6         -0.9821   -0.4269    0.0832 H         1 <0>         0.0594
     34 H7          0.2317   -0.1547   -2.0619 H         1 <0>         0.0591
     35 H8          1.7816   -0.1687   -1.1867 H         1 <0>         0.0605
     36 H9          1.2857   -2.4479   -0.3451 H         1 <0>         0.0615
     37 H10        -0.2641   -2.4339   -1.2203 H         1 <0>         0.0601
     38 H11         0.9497   -2.1617   -3.3653 H         1 <0>         0.0594
     39 H12         2.4995   -2.1757   -2.4901 H         1 <0>         0.0653
     40 H13         2.0037   -4.4548   -1.6485 H         1 <0>         0.0744
     41 H14         0.4538   -4.4409   -2.5237 H         1 <0>         0.0740
     42 H15         5.9229   -5.5825   -8.6535 H         1 <0>         0.1481
     43 H16         8.0920   -4.7943   -7.8453 H         1 <0>         0.4190
     44 H17         6.8337   -2.6854   -5.2606 H         1 <0>         0.1506
     45 H18         8.2290   -1.4182   -3.6786 H         1 <0>         0.1232
     46 H19        10.6681   -1.7462   -3.6490 H         1 <0>         0.1180
     47 H20        10.7824   -4.3922   -7.9714 H         1 <0>         0.0669
     48 H21        11.4109   -5.3145   -6.5849 H         1 <0>         0.0713
     49 H22         9.8135   -5.7076   -7.2648 H         1 <0>         0.0610
     50 H23        12.3940   -4.1929   -4.4933 H         1 <0>         0.0685
     51 H24        12.4868   -3.6696   -6.1921 H         1 <0>         0.0655
     52 H25        12.6264   -2.4717   -4.8829 H         1 <0>         0.0645
@<TRIPOS>BOND
     1    1    2 1
     2    1   29 1
     3    1   30 1
     4    1   31 1
     5    2    3 1
     6    2   32 1
     7    2   33 1
     8    3    4 1
     9    3   34 1
    10    3   35 1
    11    4    5 1
    12    4   36 1
    13    4   37 1
    14    5    6 1
    15    5   38 1
    16    5   39 1
    17    6    7 1
    18    6   40 1
    19    6   41 1
    20    7    8 1
    21    7    9 1
    22    7   12 1
    23    9   10 2
    24    9   11 1
    25   12   13 1
    26   13   18 ar
    27   13   14 ar
    28   14   15 ar
    29   15   16 ar
    30   15   20 1
    31   16   17 ar
    32   16   42 1
    33   17   18 ar
    34   17   19 1
    35   20   21 1
    36   20   43 1
    37   21   26 ar
    38   21   22 ar
    39   22   23 ar
    40   22   44 1
    41   23   24 ar
    42   23   45 1
    43   24   25 ar
    44   24   46 1
    45   25   26 ar
    46   25   28 1
    47   26   27 1
    48   27   47 1
    49   27   48 1
    50   27   49 1
    51   28   50 1
    52   28   51 1
    53   28   52 1
@<TRIPOS>MOLECULE
ZINC40393731
   59    61     0     0     0
SMALL
USER_CHARGES

@<TRIPOS>ATOM
      1 C1         -0.0187    1.5258    0.0104 C.3       1 <0>        -0.1522
      2 C2          0.0021   -0.0041    0.0020 C.3       1 <0>        -0.1259
      3 C3          0.7421   -0.5109    1.2415 C.3       1 <0>        -0.1198
      4 C4          0.7628   -2.0407    1.2331 C.3       1 <0>        -0.1188
      5 C5          1.5028   -2.5476    2.4727 C.3       1 <0>        -0.1248
      6 C6          1.5236   -4.0774    2.4642 C.3       1 <0>        -0.0811
      7 C7          2.2636   -4.5842    3.7038 C.3       1 <0>        -0.1367
      8 H1          3.2565   -4.1363    3.7426 H         1 <0>         0.0893
      9 C8          2.3915   -6.0842    3.6341 C.2       1 <0>         0.5041
     10 O1          3.4545   -6.6184    3.9008 O.co2     1 <0>        -0.6577
     11 O2          1.4319   -6.7635    3.3112 O.co2     1 <0>        -0.6908
     12 S1          1.3344   -4.1251    5.1926 S.3       1 <0>         0.0097
     13 C9          2.3736   -4.6397    6.5192 C.ar      1 <0>         0.3618
     14 N1          1.9712   -4.4472    7.7672 N.ar      1 <0>        -0.5651
     15 C10         2.7317   -4.8245    8.7900 C.ar      1 <0>         0.4547
     16 C11         3.9638   -5.4282    8.5322 C.ar      1 <0>        -0.3032
     17 C12         4.3464   -5.6107    7.2157 C.ar      1 <0>         0.2726
     18 N2          3.5356   -5.2145    6.2441 N.ar      1 <0>        -0.5053
     19 Cl1         5.8684   -6.3562    6.8395 Cl        1 <0>        -0.0201
     20 N3          2.3079   -4.6212   10.0933 N.pl3     1 <0>        -0.7096
     21 C13         3.1544   -5.0411   11.2128 C.3       1 <0>         0.1677
     22 C14         2.4687   -4.7092   12.5131 C.ar      1 <0>        -0.1043
     23 C15         2.6795   -3.4787   13.1087 C.ar      1 <0>        -0.0932
     24 C16         2.0541   -3.1694   14.2996 C.ar      1 <0>        -0.1130
     25 C17         1.2091   -4.0994   14.9018 C.ar      1 <0>        -0.0385
     26 C18         1.0004   -5.3374   14.2974 C.ar      1 <0>        -0.1123
     27 C19         1.6265   -5.6339   13.1036 C.ar      1 <0>        -0.0925
     28 C20         0.5344   -3.7727   16.1824 C.ar      1 <0>        -0.0462
     29 C21         0.7390   -2.5328   16.7841 C.ar      1 <0>        -0.1101
     30 C22         0.1085   -2.2340   17.9750 C.ar      1 <0>        -0.1183
     31 C23        -0.7249   -3.1631   18.5713 C.ar      1 <0>        -0.1196
     32 C24        -0.9312   -4.3958   17.9786 C.ar      1 <0>        -0.1180
     33 C25        -0.3106   -4.7027   16.7846 C.ar      1 <0>        -0.1098
     34 H2          1.0039    1.9031    0.0027 H         1 <0>         0.0519
     35 H3         -0.5459    1.8868   -0.8726 H         1 <0>         0.0500
     36 H4         -0.5289    1.8773    0.9072 H         1 <0>         0.0524
     37 H5         -1.0205   -0.3814    0.0098 H         1 <0>         0.0601
     38 H6          0.5123   -0.3556   -0.8948 H         1 <0>         0.0595
     39 H7          1.7647   -0.1336    1.2338 H         1 <0>         0.0591
     40 H8          0.2319   -0.1594    2.1383 H         1 <0>         0.0604
     41 H9         -0.2598   -2.4180    1.2409 H         1 <0>         0.0613
     42 H10         1.2730   -2.3923    0.3363 H         1 <0>         0.0600
     43 H11         2.5254   -2.1703    2.4649 H         1 <0>         0.0593
     44 H12         0.9926   -2.1961    3.3695 H         1 <0>         0.0654
     45 H13         0.5010   -4.4547    2.4720 H         1 <0>         0.0741
     46 H14         2.0337   -4.4289    1.5675 H         1 <0>         0.0734
     47 H15         4.6038   -5.7451    9.3424 H         1 <0>         0.1443
     48 H16         1.4506   -4.2008   10.2645 H         1 <0>         0.4090
     49 H17         3.3249   -6.1162   11.1560 H         1 <0>         0.0762
     50 H18         4.1096   -4.5185   11.1620 H         1 <0>         0.0758
     51 H19         3.3350   -2.7588   12.6413 H         1 <0>         0.1281
     52 H20         2.2197   -2.2086   14.7640 H         1 <0>         0.1271
     53 H21         0.3467   -6.0620   14.7601 H         1 <0>         0.1275
     54 H22         1.4617   -6.5914   12.6318 H         1 <0>         0.1290
     55 H23         1.3900   -1.8069   16.3197 H         1 <0>         0.1258
     56 H24         0.2663   -1.2732   18.4422 H         1 <0>         0.1241
     57 H25        -1.2160   -2.9254   19.5034 H         1 <0>         0.1223
     58 H26        -1.5826   -5.1176   18.4487 H         1 <0>         0.1243
     59 H27        -0.4759   -5.6637   16.3204 H         1 <0>         0.1261
@<TRIPOS>BOND
     1    1    2 1
     2    1   34 1
     3    1   35 1
     4    1   36 1
     5    2    3 1
     6    2   37 1
     7    2   38 1
     8    3    4 1
     9    3   39 1
    10    3   40 1
    11    4    5 1
    12    4   41 1
    13    4   42 1
    14    5    6 1
    15    5   43 1
    16    5   44 1
    17    6    7 1
    18    6   45 1
    19    6   46 1
    20    7    8 1
    21    7    9 1
    22    7   12 1
    23    9   10 2
    24    9   11 1
    25   12   13 1
    26   13   18 ar
    27   13   14 ar
    28   14   15 ar
    29   15   16 ar
    30   15   20 1
    31   16   17 ar
    32   16   47 1
    33   17   18 ar
    34   17   19 1
    35   20   21 1
    36   20   48 1
    37   21   22 1
    38   21   49 1
    39   21   50 1
    40   22   27 ar
    41   22   23 ar
    42   23   24 ar
    43   23   51 1
    44   24   25 ar
    45   24   52 1
    46   25   26 ar
    47   25   28 1
    48   26   27 ar
    49   26   53 1
    50   27   54 1
    51   28   33 ar
    52   28   29 ar
    53   29   30 ar
    54   29   55 1
    55   30   31 ar
    56   30   56 1
    57   31   32 ar
    58   31   57 1
    59   32   33 ar
    60   32   58 1
    61   33   59 1
@<TRIPOS>MOLECULE
ZINC35337462
   45    47     0     0     0
SMALL
USER_CHARGES

@<TRIPOS>ATOM
      1 C1         -0.1200    1.4768    0.0449 C.3       1 <0>        -0.0855
      2 C2         -0.0901   -0.0299    0.0370 C.ar      1 <0>        -0.2113
      3 C3         -0.0978   -0.7137   -1.1649 C.ar      1 <0>        -0.0773
      4 C4         -0.0704   -2.0944   -1.1758 C.ar      1 <0>        -0.1820
      5 C5         -0.0351   -2.7963    0.0224 C.ar      1 <0>         0.2839
      6 C6         -0.0275   -2.1062    1.2280 C.ar      1 <0>        -0.2648
      7 C7         -0.0493   -0.7253    1.2315 C.ar      1 <0>        -0.0631
      8 N1         -0.0078   -4.1927    0.0151 N.2       1 <0>        -1.0743
      9 S1          0.0343   -5.0276    1.4446 S.o2      1 <0>         2.5977
     10 O1          1.2851   -4.7323    2.0507 O.2       1 <0>        -1.0269
     11 O2         -1.2047   -4.7812    2.0955 O.2       1 <0>        -1.0111
     12 C8          0.0608   -6.7435    1.0452 C.ar      1 <0>        -0.6105
     13 C9          1.1628   -7.5080    1.3668 C.ar      1 <0>         0.0326
     14 C10         1.1820   -8.8676    1.0500 C.ar      1 <0>        -0.1427
     15 C11         0.0839   -9.4449    0.4090 C.ar      1 <0>        -0.0336
     16 C12        -1.0119   -8.6700    0.0927 C.ar      1 <0>        -0.1258
     17 C13        -1.0271   -7.3229    0.4143 C.ar      1 <0>         0.0256
     18 Br1        -2.5372   -6.2691   -0.0160 Br        1 <0>        -0.0130
     19 C14         2.3596   -9.6921    1.3913 C.2       1 <0>         0.5571
     20 O3          3.3143   -9.1870    1.9490 O.2       1 <0>        -0.5307
     21 N2          2.3753  -11.0044    1.0842 N.am      1 <0>        -0.6369
     22 C15         3.5184  -11.7602    1.3207 C.ar      1 <0>         0.1768
     23 C16         4.3126  -11.4968    2.4293 C.ar      1 <0>        -0.1416
     24 C17         5.4464  -12.2481    2.6620 C.ar      1 <0>        -0.1103
     25 C18         5.8026  -13.2694    1.7949 C.ar      1 <0>        -0.1590
     26 C19         5.0284  -13.5463    0.6901 C.ar      1 <0>        -0.0701
     27 C20         3.8728  -12.7979    0.4430 C.ar      1 <0>        -0.1656
     28 C21         3.0374  -13.0918   -0.7319 C.2       1 <0>         0.5265
     29 O4          3.2937  -14.0569   -1.4388 O.co2     1 <0>        -0.6843
     30 O5          2.0864  -12.3711   -1.0020 O.co2     1 <0>        -0.6858
     31 H1          0.9000    1.8606    0.0237 H         1 <0>         0.0463
     32 H2         -0.6610    1.8341   -0.8313 H         1 <0>         0.0477
     33 H3         -0.6207    1.8255    0.9482 H         1 <0>         0.0470
     34 H4         -0.1256   -0.1674   -2.0962 H         1 <0>         0.1002
     35 H5         -0.0769   -2.6279   -2.1148 H         1 <0>         0.1108
     36 H6         -0.0004   -2.6489    2.1614 H         1 <0>         0.0953
     37 H7         -0.0389   -0.1881    2.1684 H         1 <0>         0.0973
     38 H8          2.0092   -7.0558    1.8622 H         1 <0>         0.1580
     39 H9          0.0930  -10.4960    0.1611 H         1 <0>         0.1484
     40 H10        -1.8616   -9.1152   -0.4034 H         1 <0>         0.1432
     41 H11         1.5892  -11.4216    0.6983 H         1 <0>         0.4235
     42 H12         4.0427  -10.7028    3.1098 H         1 <0>         0.1343
     43 H13         6.0607  -12.0389    3.5254 H         1 <0>         0.1148
     44 H14         6.6924  -13.8508    1.9866 H         1 <0>         0.1125
     45 H15         5.3109  -14.3428    0.0177 H         1 <0>         0.1269
@<TRIPOS>BOND
     1    1    2 1
     2    1   31 1
     3    1   32 1
     4    1   33 1
     5    2    7 ar
     6    2    3 ar
     7    3    4 ar
     8    3   34 1
     9    4    5 ar
    10    4   35 1
    11    5    6 ar
    12    5    8 1
    13    6    7 ar
    14    6   36 1
    15    7   37 1
    16    8    9 1
    17    9   10 2
    18    9   11 2
    19    9   12 1
    20   12   17 ar
    21   12   13 ar
    22   13   14 ar
    23   13   38 1
    24   14   15 ar
    25   14   19 1
    26   15   16 ar
    27   15   39 1
    28   16   17 ar
    29   16   40 1
    30   17   18 1
    31   19   20 2
    32   19   21 am
    33   21   22 1
    34   21   41 1
    35   22   27 ar
    36   22   23 ar
    37   23   24 ar
    38   23   42 1
    39   24   25 ar
    40   24   43 1
    41   25   26 ar
    42   25   44 1
    43   26   27 ar
    44   26   45 1
    45   27   28 1
    46   28   29 2
    47   28   30 1
@<TRIPOS>MOLECULE
ZINC08396340
   75    79     0     0     0
SMALL
USER_CHARGES
3-[9-[3-bromo-4-[(4-chlorophenyl)methoxy]phenyl]-3,3,6,6-tetramethyl-1,8-dioxo-4,5,7,9-tetrahydro-2H-acridin-10-yl]propanoic acid
@<TRIPOS>ATOM
      1 C1         -8.0696    1.5285    4.4951 C.3       1 <0>        -0.1522
      2 C2         -9.3212    2.4058    4.4270 C.3       1 <0>        -0.0532
      3 C3         -9.0224    3.7761    5.0393 C.3       1 <0>        -0.0990
      4 C4         -7.9344    4.4580    4.2483 C.2       1 <0>         0.2353
      5 C5         -7.7869    4.2313    2.9260 C.2       1 <0>        -0.2921
      6 C6         -6.7025    4.9285    2.1468 C.3       1 <0>         0.0945
      7 C7         -6.2093    6.1504    2.8766 C.2       1 <0>        -0.2919
      8 C8         -6.4174    6.2887    4.2017 C.2       1 <0>         0.2356
      9 N1         -7.0945    5.3231    4.8948 N.pl3     1 <0>        -0.5158
     10 C9         -6.9180    5.2138    6.3450 C.3       1 <0>         0.1107
     11 C10        -8.0339    5.9839    7.0540 C.3       1 <0>        -0.1804
     12 C11        -7.7823    5.9785    8.5399 C.2       1 <0>         0.4644
     13 O1         -6.8102    5.4165    8.9859 O.co2     1 <0>        -0.6364
     14 C12        -5.9120    7.4982    4.9474 C.3       1 <0>        -0.0997
     15 C13        -5.9075    8.7110    4.0137 C.3       1 <0>        -0.0518
     16 C14        -5.0227    8.3909    2.8044 C.3       1 <0>        -0.1494
     17 C15        -5.5313    7.1400    2.1411 C.2       1 <0>         0.4096
     18 O2         -5.3538    6.9820    0.9495 O.2       1 <0>        -0.4778
     19 C16        -7.3340    9.0032    3.5439 C.3       1 <0>        -0.1510
     20 C17        -5.3466    9.9271    4.7534 C.3       1 <0>        -0.1417
     21 C18        -5.5518    3.9772    1.9420 C.ar      1 <0>        -0.0838
     22 C19        -5.1656    3.6267    0.6612 C.ar      1 <0>        -0.0372
     23 C20        -4.1114    2.7546    0.4704 C.ar      1 <0>        -0.2055
     24 C21        -3.4394    2.2302    1.5648 C.ar      1 <0>         0.1454
     25 C22        -3.8317    2.5795    2.8495 C.ar      1 <0>        -0.1237
     26 C23        -4.8839    3.4568    3.0348 C.ar      1 <0>        -0.0432
     27 Br1        -2.9233    1.8618    4.3446 Br        1 <0>        -0.0427
     28 O3         -2.4022    1.3716    1.3795 O.3       1 <0>        -0.2968
     29 C24        -2.0575    1.0523    0.0300 C.3       1 <0>         0.0989
     30 C25        -0.8941    0.0944    0.0218 C.ar      1 <0>        -0.0872
     31 C26         0.3999    0.5795   -0.0120 C.ar      1 <0>        -0.0805
     32 C27         1.4672   -0.2986   -0.0253 C.ar      1 <0>        -0.1136
     33 C28         1.2403   -1.6632   -0.0047 C.ar      1 <0>        -0.0259
     34 C29        -0.0551   -2.1481    0.0292 C.ar      1 <0>        -0.1136
     35 C30        -1.1216   -1.2690    0.0425 C.ar      1 <0>        -0.0804
     36 Cl1         2.5803   -2.7667   -0.0208 Cl        1 <0>        -0.0694
     37 C31        -8.6355    3.3417    2.2437 C.2       1 <0>         0.4095
     38 O4         -8.4816    3.1659    1.0514 O.2       1 <0>        -0.4782
     39 C32        -9.7314    2.6044    2.9641 C.3       1 <0>        -0.1492
     40 C33       -10.4638    1.7381    5.1949 C.3       1 <0>        -0.1415
     41 H1         -7.7704    1.4026    5.5357 H         1 <0>         0.0634
     42 H2         -8.2851    0.5534    4.0585 H         1 <0>         0.0594
     43 H3         -7.2615    2.0047    3.9398 H         1 <0>         0.0617
     44 H4         -8.6954    3.6489    6.0712 H         1 <0>         0.1013
     45 H5         -9.9246    4.3874    5.0172 H         1 <0>         0.1026
     46 H6         -7.0963    5.2272    1.1753 H         1 <0>         0.0898
     47 H7         -6.9578    4.1647    6.6378 H         1 <0>         0.0938
     48 H8         -5.9519    5.6331    6.6261 H         1 <0>         0.0995
     49 H9         -8.0524    7.0120    6.6924 H         1 <0>         0.0726
     50 H10        -8.9924    5.5083    6.8461 H         1 <0>         0.0742
     51 H11        -6.5627    7.6979    5.7988 H         1 <0>         0.1017
     52 H12        -4.8986    7.3092    5.3014 H         1 <0>         0.1006
     53 H13        -5.0546    9.1525    2.1571 H         1 <0>         0.0850
     54 H14        -3.9953    8.2380    3.1346 H         1 <0>         0.0976
     55 H15        -7.9650    9.2136    4.4074 H         1 <0>         0.0633
     56 H16        -7.3278    9.8671    2.8792 H         1 <0>         0.0600
     57 H17        -7.7254    8.1370    3.0103 H         1 <0>         0.0595
     58 H18        -4.3276    9.7166    5.0782 H         1 <0>         0.0605
     59 H19        -5.3445   10.7891    4.0863 H         1 <0>         0.0610
     60 H20        -5.9679   10.1420    5.6228 H         1 <0>         0.0648
     61 H21        -5.6889    4.0350   -0.1907 H         1 <0>         0.1307
     62 H22        -3.8105    2.4814   -0.5302 H         1 <0>         0.1317
     63 H23        -5.1874    3.7320    4.0340 H         1 <0>         0.1299
     64 H24        -1.7813    1.9639   -0.4999 H         1 <0>         0.0748
     65 H25        -2.9123    0.5899   -0.4637 H         1 <0>         0.0748
     66 H26         0.5770    1.6447   -0.0281 H         1 <0>         0.1352
     67 H27         2.4782    0.0804   -0.0515 H         1 <0>         0.1363
     68 H28        -0.2329   -3.2132    0.0457 H         1 <0>         0.1363
     69 H29        -2.1328   -1.6473    0.0693 H         1 <0>         0.1352
     70 H30        -9.8772    1.7131    2.5349 H         1 <0>         0.0846
     71 H31       -10.6535    3.1840    2.9194 H         1 <0>         0.0974
     72 H32       -11.3550    2.3629    5.1361 H         1 <0>         0.0600
     73 H33       -10.6745    0.7625    4.7568 H         1 <0>         0.0608
     74 H34       -10.1758    1.6131    6.2387 H         1 <0>         0.0645
     75 O5         -8.6381    6.5982    9.3677 O.co2     1 <0>        -0.7635
@<TRIPOS>BOND
     1    1    2 1
     2    1   41 1
     3    1   42 1
     4    1   43 1
     5    2   39 1
     6    2    3 1
     7    2   40 1
     8    3    4 1
     9    3   44 1
    10    3   45 1
    11    4    9 1
    12    4    5 2
    13    5    6 1
    14    5   37 1
    15    6    7 1
    16    6   21 1
    17    6   46 1
    18    7   17 1
    19    7    8 2
    20    8    9 1
    21    8   14 1
    22    9   10 1
    23   10   11 1
    24   10   47 1
    25   10   48 1
    26   11   12 1
    27   11   49 1
    28   11   50 1
    29   12   13 2
    30   12   75 1
    31   14   15 1
    32   14   51 1
    33   14   52 1
    34   15   16 1
    35   15   19 1
    36   15   20 1
    37   16   17 1
    38   16   53 1
    39   16   54 1
    40   17   18 2
    41   19   55 1
    42   19   56 1
    43   19   57 1
    44   20   58 1
    45   20   59 1
    46   20   60 1
    47   21   26 ar
    48   21   22 ar
    49   22   23 ar
    50   22   61 1
    51   23   24 ar
    52   23   62 1
    53   24   25 ar
    54   24   28 1
    55   25   26 ar
    56   25   27 1
    57   26   63 1
    58   28   29 1
    59   29   30 1
    60   29   64 1
    61   29   65 1
    62   30   35 ar
    63   30   31 ar
    64   31   32 ar
    65   31   66 1
    66   32   33 ar
    67   32   67 1
    68   33   34 ar
    69   33   36 1
    70   34   35 ar
    71   34   68 1
    72   35   69 1
    73   37   38 2
    74   37   39 1
    75   39   70 1
    76   39   71 1
    77   40   72 1
    78   40   73 1
    79   40   74 1
@<TRIPOS>MOLECULE
ZINC02189411
   55    57     0     0     0
SMALL
USER_CHARGES
2-[6-(4-tert-butylbenzoyl)aminobenzothiazol-2-yl]sulfanylpentanoic acid
@<TRIPOS>ATOM
      1 C1          3.6177    1.5253   -1.2565 C.3       1 <0>        -0.1486
      2 C2          2.1812    0.9988   -1.2391 C.3       1 <0>        -0.1312
      3 C3          1.4326    1.5987   -0.0472 C.3       1 <0>        -0.0860
      4 C4         -0.0039    1.0722   -0.0298 C.3       1 <0>        -0.1166
      5 H1          0.0086   -0.0177   -0.0312 H         1 <0>         0.0961
      6 C5         -0.7044    1.5649    1.2102 C.2       1 <0>         0.4717
      7 O1         -1.3006    0.7869    1.9167 O.co2     1 <0>        -0.6048
      8 S1         -0.8825    1.6674   -1.4960 S.3       1 <0>         0.0489
      9 C6         -2.4116    0.8132   -1.3042 C.2       1 <0>         0.1396
     10 N1         -2.7767   -0.0199   -0.3561 N.2       1 <0>        -0.4674
     11 C7         -3.9960   -0.6039   -0.3332 C.ar      1 <0>         0.0940
     12 C8         -4.5118   -1.5076    0.6242 C.ar      1 <0>        -0.0399
     13 C9         -5.7669   -2.0163    0.5007 C.ar      1 <0>        -0.1304
     14 C10        -6.5920   -1.6704   -0.5669 C.ar      1 <0>         0.1428
     15 C11        -6.1203   -0.7846   -1.5277 C.ar      1 <0>        -0.0619
     16 C12        -4.8542   -0.2703   -1.4056 C.ar      1 <0>        -0.1361
     17 S2         -3.8574    0.8537   -2.3539 S.3       1 <0>         0.0008
     18 N2         -7.8807   -2.2083   -0.6703 N.am      1 <0>        -0.6615
     19 C13        -8.8838   -1.4625   -1.1742 C.2       1 <0>         0.5561
     20 O2         -8.6537   -0.3541   -1.6175 O.2       1 <0>        -0.5129
     21 C14       -10.2638   -1.9922   -1.1880 C.ar      1 <0>        -0.1376
     22 C15       -10.5305   -3.2667   -0.6850 C.ar      1 <0>        -0.0821
     23 C16       -11.8215   -3.7527   -0.6956 C.ar      1 <0>        -0.1291
     24 C17       -12.8490   -2.9844   -1.2136 C.ar      1 <0>        -0.0433
     25 C18       -12.5906   -1.7226   -1.7190 C.ar      1 <0>        -0.1235
     26 C19       -11.3050   -1.2223   -1.7092 C.ar      1 <0>        -0.0530
     27 C20       -14.2560   -3.5242   -1.2272 C.3       1 <0>        -0.0341
     28 C21       -14.7630   -3.5903   -2.6692 C.3       1 <0>        -0.1399
     29 C22       -14.2698   -4.9272   -0.6169 C.3       1 <0>        -0.1462
     30 C23       -15.1634   -2.6032   -0.4091 C.3       1 <0>        -0.1402
     31 H2          3.6054    2.6117   -1.3447 H         1 <0>         0.0542
     32 H3          4.1200    1.2415   -0.3318 H         1 <0>         0.0528
     33 H4          4.1510    1.0979   -2.1056 H         1 <0>         0.0501
     34 H5          2.1935   -0.0876   -1.1510 H         1 <0>         0.0611
     35 H6          1.6789    1.2826   -2.1639 H         1 <0>         0.0654
     36 H7          1.4203    2.6851   -0.1354 H         1 <0>         0.0793
     37 H8          1.9349    1.3149    0.8776 H         1 <0>         0.0765
     38 H9         -3.9001   -1.7983    1.4654 H         1 <0>         0.1405
     39 H10        -6.1324   -2.7051    1.2479 H         1 <0>         0.1330
     40 H11        -6.7442   -0.5039   -2.3633 H         1 <0>         0.1451
     41 H12        -8.0515   -3.1177   -0.3792 H         1 <0>         0.4104
     42 H13        -9.7286   -3.8692   -0.2845 H         1 <0>         0.1265
     43 H14       -12.0300   -4.7369   -0.3027 H         1 <0>         0.1340
     44 H15       -13.3970   -1.1281   -2.1223 H         1 <0>         0.1292
     45 H16       -11.1046   -0.2371   -2.1036 H         1 <0>         0.1377
     46 H17       -14.1165   -4.2464   -3.2520 H         1 <0>         0.0576
     47 H18       -15.7807   -3.9807   -2.6789 H         1 <0>         0.0602
     48 H19       -14.7531   -2.5908   -3.1039 H         1 <0>         0.0587
     49 H20       -13.9086   -4.8801    0.4104 H         1 <0>         0.0603
     50 H21       -15.2875   -5.3176   -0.6267 H         1 <0>         0.0597
     51 H22       -13.6233   -5.5833   -1.1997 H         1 <0>         0.0601
     52 H23       -15.1535   -1.6037   -0.8439 H         1 <0>         0.0588
     53 H24       -16.1811   -2.9937   -0.4189 H         1 <0>         0.0602
     54 H25       -14.8022   -2.5562    0.6182 H         1 <0>         0.0580
     55 O3         -0.6661    2.8680    1.5297 O.co2     1 <0>        -0.7530
@<TRIPOS>BOND
     1    1    2 1
     2    1   31 1
     3    1   32 1
     4    1   33 1
     5    2    3 1
     6    2   34 1
     7    2   35 1
     8    3    4 1
     9    3   36 1
    10    3   37 1
    11    4    5 1
    12    4    6 1
    13    4    8 1
    14    6    7 2
    15    6   55 1
    16    8    9 1
    17    9   17 1
    18    9   10 2
    19   10   11 1
    20   11   16 ar
    21   11   12 ar
    22   12   13 ar
    23   12   38 1
    24   13   14 ar
    25   13   39 1
    26   14   15 ar
    27   14   18 1
    28   15   16 ar
    29   15   40 1
    30   16   17 1
    31   18   19 am
    32   18   41 1
    33   19   20 2
    34   19   21 1
    35   21   26 ar
    36   21   22 ar
    37   22   23 ar
    38   22   42 1
    39   23   24 ar
    40   23   43 1
    41   24   25 ar
    42   24   27 1
    43   25   26 ar
    44   25   44 1
    45   26   45 1
    46   27   28 1
    47   27   29 1
    48   27   30 1
    49   28   46 1
    50   28   47 1
    51   28   48 1
    52   29   49 1
    53   29   50 1
    54   29   51 1
    55   30   52 1
    56   30   53 1
    57   30   54 1
@<TRIPOS>MOLECULE
ZINC02189412
   55    57     0     0     0
SMALL
USER_CHARGES
2-[6-(4-tert-butylbenzoyl)aminobenzothiazol-2-yl]sulfanylpentanoic acid
@<TRIPOS>ATOM
      1 C1          0.1765    1.5206    0.1649 C.3       1 <0>        -0.1486
      2 C2          0.1835   -0.0092    0.1398 C.3       1 <0>        -0.1311
      3 C3          0.7135   -0.4947   -1.2108 C.3       1 <0>        -0.0860
      4 C4          0.7205   -2.0245   -1.2359 C.3       1 <0>        -0.1164
      5 H1          1.2900   -2.3992   -0.3854 H         1 <0>         0.0960
      6 C5          1.3558   -2.5030   -2.5159 C.2       1 <0>         0.4717
      7 O1          2.2312   -3.3352   -2.4816 O.co2     1 <0>        -0.6046
      8 S1         -0.9800   -2.6372   -1.1405 S.3       1 <0>         0.0485
      9 C6         -0.6755   -4.3696   -1.0357 C.2       1 <0>         0.1394
     10 N1          0.4741   -5.0057   -1.0366 N.2       1 <0>        -0.4664
     11 C7          0.5585   -6.3521   -0.9458 C.ar      1 <0>         0.0926
     12 C8          1.7234   -7.1535   -0.9316 C.ar      1 <0>        -0.0381
     13 C9          1.6396   -8.5077   -0.8402 C.ar      1 <0>        -0.1319
     14 C10         0.4107   -9.1581   -0.7572 C.ar      1 <0>         0.1470
     15 C11        -0.7563   -8.4043   -0.7682 C.ar      1 <0>        -0.0633
     16 C12        -0.6744   -7.0379   -0.8604 C.ar      1 <0>        -0.1339
     17 S2         -1.8523   -5.7087   -0.9092 S.3       1 <0>         0.0003
     18 N2          0.3523  -10.5541   -0.6635 N.am      1 <0>        -0.6619
     19 C13        -0.6755  -11.2245   -1.2209 C.2       1 <0>         0.5556
     20 O2         -1.5003  -10.6288   -1.8863 O.2       1 <0>        -0.5115
     21 C14        -0.8000  -12.6841   -1.0230 C.ar      1 <0>        -0.1379
     22 C15         0.1485  -13.3720   -0.2643 C.ar      1 <0>        -0.0820
     23 C16         0.0238  -14.7335   -0.0796 C.ar      1 <0>        -0.1291
     24 C17        -1.0326  -15.4186   -0.6532 C.ar      1 <0>        -0.0433
     25 C18        -1.9733  -14.7436   -1.4107 C.ar      1 <0>        -0.1235
     26 C19        -1.8633  -13.3814   -1.5989 C.ar      1 <0>        -0.0530
     27 C20        -1.1594  -16.9067   -0.4515 C.3       1 <0>        -0.0341
     28 C21        -1.1179  -17.6107   -1.8093 C.3       1 <0>        -0.1401
     29 C22        -0.0019  -17.4042    0.4165 C.3       1 <0>        -0.1462
     30 C23        -2.4873  -17.2159    0.2429 C.3       1 <0>        -0.1400
     31 H2          1.1911    1.8910    0.0183 H         1 <0>         0.0528
     32 H3         -0.4655    1.8941   -0.6329 H         1 <0>         0.0542
     33 H4         -0.2012    1.8665    1.1271 H         1 <0>         0.0501
     34 H5          0.8254   -0.3827    0.9376 H         1 <0>         0.0611
     35 H6         -0.8311   -0.3796    0.2864 H         1 <0>         0.0653
     36 H7          0.0715   -0.1212   -2.0086 H         1 <0>         0.0794
     37 H8          1.7281   -0.1243   -1.3574 H         1 <0>         0.0765
     38 H9          2.6937   -6.6833   -0.9946 H         1 <0>         0.1407
     39 H10         2.5474   -9.0927   -0.8314 H         1 <0>         0.1332
     40 H11        -1.7191   -8.8895   -0.7045 H         1 <0>         0.1406
     41 H12         1.0515  -11.0386   -0.1974 H         1 <0>         0.4104
     42 H13         0.9760  -12.8391    0.1802 H         1 <0>         0.1266
     43 H14         0.7545  -15.2662    0.5109 H         1 <0>         0.1340
     44 H15        -2.7953  -15.2844   -1.8560 H         1 <0>         0.1292
     45 H16        -2.5984  -12.8556   -2.1901 H         1 <0>         0.1377
     46 H17        -0.1720  -17.3904   -2.3040 H         1 <0>         0.0579
     47 H18        -1.2097  -18.6870   -1.6634 H         1 <0>         0.0602
     48 H19        -1.9426  -17.2563   -2.4277 H         1 <0>         0.0588
     49 H20        -0.0315  -16.9026    1.3838 H         1 <0>         0.0601
     50 H21        -0.0937  -18.4805    0.5624 H         1 <0>         0.0598
     51 H22         0.9440  -17.1839   -0.0782 H         1 <0>         0.0602
     52 H23        -3.3119  -16.8614   -0.3755 H         1 <0>         0.0588
     53 H24        -2.5790  -18.2921    0.3888 H         1 <0>         0.0602
     54 H25        -2.5168  -16.7143    1.2102 H         1 <0>         0.0577
     55 O3          0.9493   -2.0047   -3.6941 O.co2     1 <0>        -0.7531
@<TRIPOS>BOND
     1    1    2 1
     2    1   31 1
     3    1   32 1
     4    1   33 1
     5    2    3 1
     6    2   34 1
     7    2   35 1
     8    3    4 1
     9    3   36 1
    10    3   37 1
    11    4    5 1
    12    4    6 1
    13    4    8 1
    14    6    7 2
    15    6   55 1
    16    8    9 1
    17    9   17 1
    18    9   10 2
    19   10   11 1
    20   11   16 ar
    21   11   12 ar
    22   12   13 ar
    23   12   38 1
    24   13   14 ar
    25   13   39 1
    26   14   15 ar
    27   14   18 1
    28   15   16 ar
    29   15   40 1
    30   16   17 1
    31   18   19 am
    32   18   41 1
    33   19   20 2
    34   19   21 1
    35   21   26 ar
    36   21   22 ar
    37   22   23 ar
    38   22   42 1
    39   23   24 ar
    40   23   43 1
    41   24   25 ar
    42   24   27 1
    43   25   26 ar
    44   25   44 1
    45   26   45 1
    46   27   28 1
    47   27   29 1
    48   27   30 1
    49   28   46 1
    50   28   47 1
    51   28   48 1
    52   29   49 1
    53   29   50 1
    54   29   51 1
    55   30   52 1
    56   30   53 1
    57   30   54 1
@<TRIPOS>MOLECULE
ZINC00702199
   53    56     0     0     0
SMALL
USER_CHARGES
5,7-dichloro-4-[[3-(4-methoxyphenyl)sulfanylphenyl]methyl-methyl-amino]-quinoline-2-carboxylic acid
@<TRIPOS>ATOM
      1 C1          3.6601    2.8603   -1.1999 C.3       1 <0>         0.0149
      2 N1          3.5473    2.0778    0.0383 N.pl3     1 <0>        -0.5055
      3 C2          3.6671    2.9421    1.2200 C.3       1 <0>         0.0928
      4 C3          5.0593    3.5156    1.2839 C.ar      1 <0>        -0.0925
      5 C4          5.3400    4.7187    0.6617 C.ar      1 <0>        -0.0785
      6 C5          6.6161    5.2485    0.7173 C.ar      1 <0>        -0.1252
      7 C6          7.6151    4.5778    1.3950 C.ar      1 <0>        -0.0574
      8 C7          7.3367    3.3692    2.0216 C.ar      1 <0>        -0.1400
      9 C8          6.0515    2.8423    1.9680 C.ar      1 <0>        -0.0406
     10 S1          8.6079    2.5102    2.8881 S.3       1 <0>        -0.0097
     11 C9          9.2359    1.3686    1.7018 C.ar      1 <0>        -0.1340
     12 C10         8.7750    1.4036    0.3917 C.ar      1 <0>        -0.0812
     13 C11         9.2716    0.5120   -0.5383 C.ar      1 <0>        -0.1904
     14 C12        10.2223   -0.4256   -0.1623 C.ar      1 <0>         0.1269
     15 C13        10.6790   -0.4652    1.1470 C.ar      1 <0>        -0.1331
     16 C14        10.1879    0.4293    2.0773 C.ar      1 <0>        -0.0571
     17 O1         10.7067   -1.3070   -1.0777 O.3       1 <0>        -0.3151
     18 C15        10.1923   -1.2096   -2.4074 C.3       1 <0>         0.0264
     19 C16         2.3612    1.3596    0.0660 C.ar      1 <0>         0.2595
     20 C17         1.1352    2.0063    0.0891 C.ar      1 <0>        -0.1699
     21 C18        -0.0418    1.2525    0.1164 C.ar      1 <0>         0.2360
     22 C19         1.1295   -0.7478    0.1002 C.ar      1 <0>         0.1742
     23 C20         2.3659   -0.0544    0.0720 C.ar      1 <0>        -0.0762
     24 C21         3.5680   -0.7782    0.0515 C.ar      1 <0>         0.0408
     25 C22         3.5348   -2.1410    0.0590 C.ar      1 <0>        -0.1116
     26 C23         2.3207   -2.8263    0.0868 C.ar      1 <0>         0.0441
     27 C24         1.1359   -2.1553    0.1062 C.ar      1 <0>        -0.1426
     28 Cl1         2.3196   -4.5622    0.0956 Cl        1 <0>        -0.0138
     29 Cl2         5.0892    0.0575    0.0163 Cl        1 <0>         0.0263
     30 C25        -1.3482    1.9522    0.1343 C.2       1 <0>         0.4699
     31 O2         -1.3871    3.1657    0.1302 O.co2     1 <0>        -0.5529
     32 H1          2.8265    3.5596   -1.2650 H         1 <0>         0.0519
     33 H2          4.5991    3.4138   -1.1956 H         1 <0>         0.0958
     34 H3          3.6383    2.1882   -2.0577 H         1 <0>         0.0809
     35 H4          2.9427    3.7537    1.1516 H         1 <0>         0.0710
     36 H5          3.4735    2.3572    2.1191 H         1 <0>         0.0954
     37 H6          4.5607    5.2454    0.1309 H         1 <0>         0.1301
     38 H7          6.8317    6.1881    0.2303 H         1 <0>         0.1334
     39 H8          8.6115    4.9923    1.4383 H         1 <0>         0.1348
     40 H9          5.8306    1.9052    2.4573 H         1 <0>         0.1319
     41 H10         8.0316    2.1306    0.0998 H         1 <0>         0.1223
     42 H11         8.9168    0.5419   -1.5579 H         1 <0>         0.1289
     43 H12        11.4192   -1.1955    1.4387 H         1 <0>         0.1375
     44 H13        10.5441    0.3988    3.0964 H         1 <0>         0.1360
     45 H14        10.4100   -0.2203   -2.8096 H         1 <0>         0.0558
     46 H15        10.6607   -1.9681   -3.0346 H         1 <0>         0.1024
     47 H16         9.1137   -1.3663   -2.3921 H         1 <0>         0.0553
     48 H17         1.0896    3.0854    0.0861 H         1 <0>         0.1912
     49 H18         4.4606   -2.6970    0.0437 H         1 <0>         0.1654
     50 H19         0.2043   -2.7012    0.1279 H         1 <0>         0.1698
     51 N2         -0.0868   -0.1083    0.1228 N.ar      1 <0>        -0.4640
     52 H20        -0.9741   -0.6245    0.1432 H         1 <0>         0.4823
     53 O3         -2.4921    1.2420    0.1551 O.co2     1 <0>        -0.6922
@<TRIPOS>BOND
     1    1    2 1
     2    1   32 1
     3    1   33 1
     4    1   34 1
     5    2    3 1
     6    2   19 1
     7    3    4 1
     8    3   35 1
     9    3   36 1
    10    4    9 ar
    11    4    5 ar
    12    5    6 ar
    13    5   37 1
    14    6    7 ar
    15    6   38 1
    16    7    8 ar
    17    7   39 1
    18    8    9 ar
    19    8   10 1
    20    9   40 1
    21   10   11 1
    22   11   16 ar
    23   11   12 ar
    24   12   13 ar
    25   12   41 1
    26   13   14 ar
    27   13   42 1
    28   14   15 ar
    29   14   17 1
    30   15   16 ar
    31   15   43 1
    32   16   44 1
    33   17   18 1
    34   18   45 1
    35   18   46 1
    36   18   47 1
    37   19   23 ar
    38   19   20 ar
    39   20   21 ar
    40   20   48 1
    41   21   30 1
    42   21   51 ar
    43   22   27 ar
    44   22   23 ar
    45   22   51 ar
    46   23   24 ar
    47   24   25 ar
    48   24   29 1
    49   25   26 ar
    50   25   49 1
    51   26   27 ar
    52   26   28 1
    53   27   50 1
    54   30   31 2
    55   30   53 1
    56   51   52 1
@<TRIPOS>MOLECULE
ZINC08552816
   34    35     0     0     0
SMALL
USER_CHARGES
3-[5-nitro-2-(p-tolylsulfanyl)phenyl]prop-2-enoic acid
@<TRIPOS>ATOM
      1 C1         -2.8469   12.1745   -0.4286 C.3       1 <0>        -0.1204
      2 C2         -2.4027   10.7392   -0.3113 C.ar      1 <0>        -0.0542
      3 C3         -2.1476   10.1957    0.9346 C.ar      1 <0>        -0.1318
      4 C4         -1.7409    8.8808    1.0459 C.ar      1 <0>        -0.0572
      5 C5         -1.5880    8.1035   -0.0958 C.ar      1 <0>        -0.1683
      6 C6         -1.8397    8.6547   -1.3464 C.ar      1 <0>        -0.0577
      7 C7         -2.2516    9.9686   -1.4498 C.ar      1 <0>        -0.1313
      8 S1         -1.0692    6.4252    0.0414 S.3       1 <0>         0.0571
      9 C8         -2.5763    5.5124    0.0480 C.ar      1 <0>        -0.0609
     10 C9         -3.7962    6.1775    0.0686 C.ar      1 <0>        -0.1230
     11 C10        -4.9749    5.4605    0.0733 C.ar      1 <0>        -0.0513
     12 C11        -4.9550    4.0739    0.0579 C.ar      1 <0>        -0.0470
     13 C12        -3.7576    3.3946    0.0311 C.ar      1 <0>        -0.0424
     14 C13        -2.5518    4.1057    0.0319 C.ar      1 <0>        -0.0088
     15 C14        -1.2714    3.3892    0.0101 C.2       1 <0>        -0.1321
     16 C15        -1.2534    2.0370   -0.0053 C.2       1 <0>        -0.1092
     17 C16        -0.0175    1.3454   -0.0264 C.2       1 <0>         0.4660
     18 O1          1.0278    1.9678   -0.0357 O.co2     1 <0>        -0.6289
     19 N1         -6.2288    3.3197    0.0632 N.pl3     1 <0>         0.0332
     20 O2         -7.2901    3.9170    0.0809 O.2       1 <0>        -0.1715
     21 O3         -6.2155    2.1019    0.0497 O.3       1 <0>        -0.1593
     22 H1         -1.9730   12.8183   -0.5279 H         1 <0>         0.0757
     23 H2         -3.4829   12.2874   -1.3066 H         1 <0>         0.0698
     24 H3         -3.4060   12.4559    0.4637 H         1 <0>         0.0698
     25 H4         -2.2663   10.8005    1.8215 H         1 <0>         0.1296
     26 H5         -1.5422    8.4569    2.0192 H         1 <0>         0.1350
     27 H6         -1.7175    8.0548   -2.2362 H         1 <0>         0.1342
     28 H7         -2.4520   10.3962   -2.4211 H         1 <0>         0.1295
     29 H8         -3.8216    7.2572    0.0807 H         1 <0>         0.1425
     30 H9         -5.9200    5.9829    0.0893 H         1 <0>         0.1509
     31 H10        -3.7487    2.3148    0.0140 H         1 <0>         0.1629
     32 H11        -0.3434    3.9417    0.0063 H         1 <0>         0.1421
     33 H12        -2.1813    1.4845   -0.0015 H         1 <0>         0.1117
     34 O4          0.0005   -0.0039   -0.0417 O.co2     1 <0>        -0.7549
@<TRIPOS>BOND
     1    1    2 1
     2    1   22 1
     3    1   23 1
     4    1   24 1
     5    2    7 ar
     6    2    3 ar
     7    3    4 ar
     8    3   25 1
     9    4    5 ar
    10    4   26 1
    11    5    6 ar
    12    5    8 1
    13    6    7 ar
    14    6   27 1
    15    7   28 1
    16    8    9 1
    17    9   14 ar
    18    9   10 ar
    19   10   11 ar
    20   10   29 1
    21   11   12 ar
    22   11   30 1
    23   12   13 ar
    24   12   19 1
    25   13   14 ar
    26   13   31 1
    27   14   15 1
    28   15   16 2
    29   15   32 1
    30   16   17 1
    31   16   33 1
    32   17   18 2
    33   17   34 1
    34   19   20 2
    35   19   21 1
@<TRIPOS>MOLECULE
ZINC01536875
   65    67     0     0     0
SMALL
USER_CHARGES

@<TRIPOS>ATOM
      1 C1          4.0767    1.5501   -2.2253 C.3       1 <0>        -0.1429
      2 C2          3.1892    0.3066   -2.1417 C.3       1 <0>        -0.0503
      3 C3          3.6889   -0.7444   -3.1349 C.3       1 <0>        -0.1420
      4 C4          3.2437   -0.2563   -0.7448 C.ar      1 <0>        -0.1038
      5 C5          4.4596   -0.6659   -0.2142 C.ar      1 <0>        -0.1005
      6 C6          4.5312   -1.1831    1.0603 C.ar      1 <0>        -0.1276
      7 C7          3.3746   -1.2973    1.8259 C.ar      1 <0>         0.0922
      8 C8          2.1455   -0.8808    1.2834 C.ar      1 <0>        -0.0637
      9 C9          2.0970   -0.3544   -0.0085 C.ar      1 <0>        -0.0667
     10 C10         1.1366   -1.1274    2.3206 C.2       1 <0>        -0.2087
     11 C11         1.7820   -1.6532    3.3790 C.2       1 <0>         0.1830
     12 N1          3.1248   -1.7613    3.0977 N.pl3     1 <0>        -0.4758
     13 C12         4.1370   -2.2913    4.0145 C.3       1 <0>         0.1480
     14 C13         4.7666   -1.1553    4.7788 C.ar      1 <0>        -0.1002
     15 C14         5.0820    0.0235    4.1292 C.ar      1 <0>        -0.0905
     16 C15         5.6594    1.0657    4.8297 C.ar      1 <0>        -0.1102
     17 C16         5.9219    0.9290    6.1812 C.ar      1 <0>        -0.0263
     18 C17         5.6061   -0.2510    6.8307 C.ar      1 <0>        -0.1053
     19 C18         5.0235   -1.2905    6.1304 C.ar      1 <0>        -0.0845
     20 Cl1         6.6477    2.2374    7.0615 Cl        1 <0>        -0.0750
     21 C19         1.1320   -2.0616    4.6758 C.3       1 <0>        -0.0423
     22 C20         0.8145   -0.8138    5.5023 C.3       1 <0>        -0.1182
     23 C21         2.1056   -0.0384    5.7717 C.3       1 <0>        -0.1138
     24 C22        -0.1624    0.0748    4.7297 C.3       1 <0>        -0.1169
     25 C23         0.1923   -1.2238    6.8122 C.2       1 <0>         0.5070
     26 O1          0.3520   -0.5346    7.8052 O.co2     1 <0>        -0.6941
     27 O2         -0.4709   -2.2447    6.8790 O.co2     1 <0>        -0.6977
     28 S1         -0.5903   -0.7977    2.2032 S.3       1 <0>        -0.0723
     29 C24        -1.2856   -2.3329    1.5323 C.3       1 <0>        -0.0756
     30 C25        -0.9832   -3.4897    2.4869 C.3       1 <0>        -0.1393
     31 C26        -2.8003   -2.1819    1.3776 C.3       1 <0>        -0.1241
     32 C27        -0.6598   -2.6220    0.1663 C.3       1 <0>        -0.1341
     33 H1          5.1044    1.2801   -1.9822 H         1 <0>         0.0545
     34 H2          4.0374    1.9573   -3.2357 H         1 <0>         0.0531
     35 H3          3.7207    2.2989   -1.5177 H         1 <0>         0.0556
     36 H4          2.1616    0.5767   -2.3848 H         1 <0>         0.0741
     37 H5          4.7166   -1.0144   -2.8918 H         1 <0>         0.0544
     38 H6          3.0567   -1.6302   -3.0753 H         1 <0>         0.0543
     39 H7          3.6496   -0.3372   -4.1452 H         1 <0>         0.0531
     40 H8          5.3582   -0.5784   -0.8069 H         1 <0>         0.1188
     41 H9          5.4817   -1.4993    1.4640 H         1 <0>         0.1154
     42 H10         1.1555   -0.0296   -0.4262 H         1 <0>         0.1205
     43 H11         3.6674   -2.9833    4.7135 H         1 <0>         0.1043
     44 H12         4.9045   -2.8153    3.4448 H         1 <0>         0.0993
     45 H13         4.8774    0.1300    3.0741 H         1 <0>         0.1330
     46 H14         5.9061    1.9865    4.3220 H         1 <0>         0.1306
     47 H15         5.8110   -0.3584    7.8856 H         1 <0>         0.1349
     48 H16         4.7725   -2.2099    6.6384 H         1 <0>         0.1342
     49 H17         0.2093   -2.6024    4.4653 H         1 <0>         0.1047
     50 H18         1.8107   -2.7052    5.2356 H         1 <0>         0.0598
     51 H19         2.6357    0.1221    4.8328 H         1 <0>         0.0360
     52 H20         1.8640    0.9246    6.2216 H         1 <0>         0.0474
     53 H21         2.7371   -0.6093    6.4524 H         1 <0>         0.0446
     54 H22        -1.0822   -0.4777    4.5378 H         1 <0>         0.0683
     55 H23        -0.3886    0.9637    5.3185 H         1 <0>         0.0403
     56 H24         0.2877    0.3713    3.7823 H         1 <0>         0.0502
     57 H25        -1.4291   -3.2837    3.4600 H         1 <0>         0.0739
     58 H26        -1.4010   -4.4122    2.0837 H         1 <0>         0.0521
     59 H27         0.0958   -3.5972    2.5971 H         1 <0>         0.0538
     60 H28        -3.0157   -1.3578    0.6975 H         1 <0>         0.0584
     61 H29        -3.2181   -3.1044    0.9745 H         1 <0>         0.0622
     62 H30        -3.2461   -1.9760    2.3507 H         1 <0>         0.0651
     63 H31         0.4192   -2.7296    0.2765 H         1 <0>         0.0569
     64 H32        -1.0776   -3.5445   -0.2368 H         1 <0>         0.0503
     65 H33        -0.8753   -1.7979   -0.5138 H         1 <0>         0.0583
@<TRIPOS>BOND
     1    1    2 1
     2    1   33 1
     3    1   34 1
     4    1   35 1
     5    2    3 1
     6    2    4 1
     7    2   36 1
     8    3   37 1
     9    3   38 1
    10    3   39 1
    11    4    9 ar
    12    4    5 ar
    13    5    6 ar
    14    5   40 1
    15    6    7 ar
    16    6   41 1
    17    7   12 1
    18    7    8 ar
    19    8    9 ar
    20    8   10 1
    21    9   42 1
    22   10   11 2
    23   10   28 1
    24   11   12 1
    25   11   21 1
    26   12   13 1
    27   13   14 1
    28   13   43 1
    29   13   44 1
    30   14   19 ar
    31   14   15 ar
    32   15   16 ar
    33   15   45 1
    34   16   17 ar
    35   16   46 1
    36   17   18 ar
    37   17   20 1
    38   18   19 ar
    39   18   47 1
    40   19   48 1
    41   21   22 1
    42   21   49 1
    43   21   50 1
    44   22   23 1
    45   22   24 1
    46   22   25 1
    47   23   51 1
    48   23   52 1
    49   23   53 1
    50   24   54 1
    51   24   55 1
    52   24   56 1
    53   25   26 2
    54   25   27 1
    55   28   29 1
    56   29   30 1
    57   29   31 1
    58   29   32 1
    59   30   57 1
    60   30   58 1
    61   30   59 1
    62   31   60 1
    63   31   61 1
    64   31   62 1
    65   32   63 1
    66   32   64 1
    67   32   65 1
@<TRIPOS>MOLECULE
ZINC03805769
   48    51     0     0     0
SMALL
USER_CHARGES
2-[2-(4-chlorophenyl)-6,6-dimethyl-1-phenyl-5,7-dihydropyrrolizin-3-yl]acetic acid
@<TRIPOS>ATOM
      1 C1         -2.2532   -1.4002    4.0865 C.3       1 <0>        -0.1356
      2 C2         -3.1452   -0.5402    3.1888 C.3       1 <0>        -0.0760
      3 C3         -3.2276    0.9088    3.7180 C.3       1 <0>        -0.0445
      4 C4         -2.1209    1.6373    2.9823 C.2       1 <0>         0.0128
      5 C5         -1.3852    2.7825    3.0385 C.2       1 <0>        -0.1130
      6 C6         -0.4588    2.7332    1.8996 C.2       1 <0>        -0.1371
      7 C7         -0.7181    1.5718    1.2479 C.2       1 <0>         0.1342
      8 N1         -1.7212    0.9110    1.9042 N.pl3     1 <0>        -0.4574
      9 C8         -2.5000   -0.3374    1.8023 C.3       1 <0>         0.1145
     10 C9         -0.0127    1.0858    0.0080 C.3       1 <0>        -0.1077
     11 C10        -0.7416    1.5850   -1.2129 C.2       1 <0>         0.4690
     12 O1         -1.7322    2.2656   -1.0889 O.co2     1 <0>        -0.6251
     13 C11         0.5559    3.7511    1.5337 C.ar      1 <0>         0.0222
     14 C12         1.6305    4.0046    2.3845 C.ar      1 <0>        -0.0994
     15 C13         2.5740    4.9499    2.0376 C.ar      1 <0>        -0.1175
     16 C14         2.4497    5.6526    0.8513 C.ar      1 <0>        -0.0415
     17 C15         1.3816    5.4080    0.0051 C.ar      1 <0>        -0.1098
     18 C16         0.4351    4.4616    0.3408 C.ar      1 <0>        -0.0837
     19 Cl1         3.6368    6.8449    0.4236 Cl        1 <0>        -0.0888
     20 C17        -1.4938    3.8609    4.0508 C.ar      1 <0>         0.0167
     21 C18        -2.6573    4.6233    4.1386 C.ar      1 <0>        -0.1100
     22 C19        -2.7549    5.6217    5.0864 C.ar      1 <0>        -0.1213
     23 C20        -1.6964    5.8743    5.9403 C.ar      1 <0>        -0.1330
     24 C21        -0.5371    5.1245    5.8539 C.ar      1 <0>        -0.1217
     25 C22        -0.4306    4.1195    4.9142 C.ar      1 <0>        -0.1079
     26 C23        -4.5402   -1.1550    3.0589 C.3       1 <0>        -0.1351
     27 H1         -2.6778   -1.4401    5.0895 H         1 <0>         0.0616
     28 H2         -2.1911   -2.4088    3.6778 H         1 <0>         0.0589
     29 H3         -1.2551   -0.9643    4.1315 H         1 <0>         0.0594
     30 H4         -3.0508    0.9328    4.7933 H         1 <0>         0.0822
     31 H5         -4.1967    1.3472    3.4800 H         1 <0>         0.0828
     32 H6         -3.2715   -0.2386    1.0387 H         1 <0>         0.0850
     33 H7         -1.8417   -1.1737    1.5673 H         1 <0>         0.0816
     34 H8          0.0021   -0.0041    0.0020 H         1 <0>         0.0691
     35 H9          1.0099    1.4631    0.0003 H         1 <0>         0.0873
     36 H10         1.7264    3.4596    3.3119 H         1 <0>         0.1261
     37 H11         3.4087    5.1449    2.6947 H         1 <0>         0.1267
     38 H12         1.2889    5.9591   -0.9191 H         1 <0>         0.1296
     39 H13        -0.3982    4.2720   -0.3197 H         1 <0>         0.1433
     40 H14        -3.4826    4.4299    3.4694 H         1 <0>         0.1189
     41 H15        -3.6578    6.2099    5.1585 H         1 <0>         0.1166
     42 H16        -1.7755    6.6596    6.6775 H         1 <0>         0.1145
     43 H17         0.2860    5.3259    6.5234 H         1 <0>         0.1165
     44 H18         0.4747    3.5343    4.8481 H         1 <0>         0.1185
     45 H19        -5.1436   -0.5474    2.3844 H         1 <0>         0.0621
     46 H20        -4.4561   -2.1659    2.6602 H         1 <0>         0.0612
     47 H21        -5.0148   -1.1895    4.0395 H         1 <0>         0.0640
     48 O2         -0.2903    1.2736   -2.4381 O.co2     1 <0>        -0.7691
@<TRIPOS>BOND
     1    1    2 1
     2    1   27 1
     3    1   28 1
     4    1   29 1
     5    2    9 1
     6    2    3 1
     7    2   26 1
     8    3    4 1
     9    3   30 1
    10    3   31 1
    11    4    8 1
    12    4    5 2
    13    5    6 1
    14    5   20 1
    15    6    7 2
    16    6   13 1
    17    7    8 1
    18    7   10 1
    19    8    9 1
    20    9   32 1
    21    9   33 1
    22   10   11 1
    23   10   34 1
    24   10   35 1
    25   11   12 2
    26   11   48 1
    27   13   18 ar
    28   13   14 ar
    29   14   15 ar
    30   14   36 1
    31   15   16 ar
    32   15   37 1
    33   16   17 ar
    34   16   19 1
    35   17   18 ar
    36   17   38 1
    37   18   39 1
    38   20   25 ar
    39   20   21 ar
    40   21   22 ar
    41   21   40 1
    42   22   23 ar
    43   22   41 1
    44   23   24 ar
    45   23   42 1
    46   24   25 ar
    47   24   43 1
    48   25   44 1
    49   26   45 1
    50   26   46 1
    51   26   47 1
@<TRIPOS>MOLECULE
ZINC29136213
   39    43     0     0     0
SMALL
USER_CHARGES
2-(6-chloro-1H-phenanthro[9,10-d]imidazol-2-yl)benzene-1,3-dicarbonitrile
@<TRIPOS>ATOM
      1 C1         -2.8499   11.1210   -0.1519 C.ar      1 <0>        -0.1066
      2 C2         -3.5503    9.9232   -0.2140 C.ar      1 <0>        -0.1052
      3 C3         -2.8939    8.7274   -0.1693 C.ar      1 <0>        -0.1112
      4 C4         -1.4980    8.6990   -0.0596 C.ar      1 <0>        -0.0109
      5 C5         -0.7834    9.9138    0.0038 C.ar      1 <0>        -0.0207
      6 C6         -1.4778   11.1248   -0.0439 C.ar      1 <0>        -0.0984
      7 C7          0.6814    9.8930    0.1185 C.ar      1 <0>        -0.0294
      8 C8          1.4080   11.0849    0.1821 C.ar      1 <0>        -0.0941
      9 C9          2.7805   11.0423    0.2890 C.ar      1 <0>        -0.0289
     10 C10         3.4471    9.8238    0.3339 C.ar      1 <0>        -0.1037
     11 C11         2.7558    8.6478    0.2731 C.ar      1 <0>        -0.0766
     12 C12         1.3623    8.6610    0.1644 C.ar      1 <0>         0.0115
     13 C13         0.6067    7.4015    0.0976 C.ar      1 <0>         0.0636
     14 C14        -0.7807    7.4268   -0.0110 C.ar      1 <0>         0.0491
     15 N1         -1.1928    6.1162   -0.0568 N.pl3     1 <0>        -0.5691
     16 H1         -2.2630    5.8791   -0.1491 H         1 <0>         0.4475
     17 C15        -0.0704    5.3391    0.0314 C.2       1 <0>         0.2519
     18 N2          0.9874    6.1134    0.1193 N.2       1 <0>        -0.4330
     19 C16        -0.0504    3.8650    0.0228 C.ar      1 <0>         0.0794
     20 C17         1.1729    3.1717   -0.0396 C.ar      1 <0>         0.0186
     21 C18         1.1768    1.7765   -0.0465 C.ar      1 <0>        -0.0346
     22 C19        -0.0125    1.0758    0.0080 C.ar      1 <0>        -0.1077
     23 C20        -1.2207    1.7433    0.0642 C.ar      1 <0>        -0.0338
     24 C21        -1.2544    3.1381    0.0774 C.ar      1 <0>        -0.0302
     25 C22        -2.5084    3.8268    0.1407 C.1       1 <0>         0.2598
     26 N3         -3.5031    4.3731    0.1910 N.1       1 <0>        -0.4021
     27 C23         2.4077    3.8948   -0.0952 C.1       1 <0>         0.2471
     28 N4          3.3872    4.4684   -0.1393 N.1       1 <0>        -0.3734
     29 Cl1         3.6846   12.5221    0.3676 Cl        1 <0>        -0.0630
     30 H2         -3.3865   12.0575   -0.1890 H         1 <0>         0.1329
     31 H3         -4.6269    9.9383   -0.2990 H         1 <0>         0.1306
     32 H4         -3.4508    7.8033   -0.2188 H         1 <0>         0.1195
     33 H5         -0.9403   12.0603    0.0043 H         1 <0>         0.1368
     34 H6          0.8958   12.0350    0.1480 H         1 <0>         0.1430
     35 H7          4.5237    9.8068    0.4175 H         1 <0>         0.1393
     36 H8          3.2857    7.7074    0.3086 H         1 <0>         0.1441
     37 H9          2.1140    1.2418   -0.0943 H         1 <0>         0.1532
     38 H10         0.0021   -0.0041    0.0020 H         1 <0>         0.1545
     39 H11        -2.1432    1.1829    0.1019 H         1 <0>         0.1505
@<TRIPOS>BOND
     1    1    6 ar
     2    1    2 ar
     3    1   30 1
     4    2    3 ar
     5    2   31 1
     6    3    4 ar
     7    3   32 1
     8    4   14 ar
     9    4    5 ar
    10    5    6 ar
    11    5    7 ar
    12    6   33 1
    13    7   12 ar
    14    7    8 ar
    15    8    9 ar
    16    8   34 1
    17    9   10 ar
    18    9   29 1
    19   10   11 ar
    20   10   35 1
    21   11   12 ar
    22   11   36 1
    23   12   13 ar
    24   13   18 1
    25   13   14 ar
    26   14   15 1
    27   15   16 1
    28   15   17 1
    29   17   18 2
    30   17   19 1
    31   19   24 ar
    32   19   20 ar
    33   20   21 ar
    34   20   27 1
    35   21   22 ar
    36   21   37 1
    37   22   23 ar
    38   22   38 1
    39   23   24 ar
    40   23   39 1
    41   24   25 1
    42   25   26 3
    43   27   28 3
@<TRIPOS>MOLECULE
ZINC40861880
   56    58     0     0     0
SMALL
USER_CHARGES

@<TRIPOS>ATOM
      1 C1          0.4320    0.2617   -1.3557 C.3       1 <0>        -0.1522
      2 C2          0.4074   -1.2409   -1.0688 C.3       1 <0>        -0.1259
      3 C3          1.0839   -1.5146    0.2759 C.3       1 <0>        -0.1196
      4 C4          1.0593   -3.0173    0.5627 C.3       1 <0>        -0.1190
      5 C5          1.7359   -3.2910    1.9074 C.3       1 <0>        -0.1242
      6 C6          1.7112   -4.7936    2.1943 C.3       1 <0>        -0.0820
      7 C7          2.3878   -5.0673    3.5390 C.3       1 <0>        -0.1385
      8 H1          1.9099   -4.4689    4.3146 H         1 <0>         0.0899
      9 C8          2.2555   -6.5294    3.8796 C.2       1 <0>         0.5052
     10 O1          2.5594   -7.3767    3.0573 O.co2     1 <0>        -0.6888
     11 O2          1.8445   -6.8648    4.9773 O.co2     1 <0>        -0.6603
     12 S1          4.1445   -4.6278    3.4325 S.3       1 <0>         0.0200
     13 C9          4.7410   -4.8550    5.0749 C.ar      1 <0>         0.3575
     14 N1          6.0157   -4.6069    5.3393 N.ar      1 <0>        -0.5485
     15 C10         6.4965   -4.7681    6.5681 C.ar      1 <0>         0.4433
     16 C11         5.6390   -5.2033    7.5799 C.ar      1 <0>        -0.2909
     17 C12         4.3157   -5.4510    7.2621 C.ar      1 <0>         0.2722
     18 N2          3.9025   -5.2644    6.0160 N.ar      1 <0>        -0.5025
     19 Cl1         3.2069   -5.9941    8.4824 Cl        1 <0>        -0.0135
     20 N3          7.8309   -4.5080    6.8408 N.pl3     1 <0>        -0.6523
     21 C13         8.6504   -3.9548    5.8542 C.ar      1 <0>         0.1712
     22 C14         8.1339   -3.0152    4.9694 C.ar      1 <0>        -0.1080
     23 C15         8.9409   -2.4680    3.9949 C.ar      1 <0>        -0.0842
     24 C16        10.2760   -2.8571    3.8975 C.ar      1 <0>        -0.0733
     25 C17        10.7921   -3.7992    4.7861 C.ar      1 <0>        -0.0881
     26 C18         9.9828   -4.3403    5.7622 C.ar      1 <0>        -0.1495
     27 C19        11.1462   -2.2700    2.8494 C.ar      1 <0>        -0.0322
     28 C20        10.6334   -1.3242    1.9635 C.ar      1 <0>        -0.1139
     29 C21        11.4475   -0.7813    0.9903 C.ar      1 <0>        -0.1162
     30 C22        12.7701   -1.1746    0.8929 C.ar      1 <0>        -0.1266
     31 C23        13.2845   -2.1129    1.7695 C.ar      1 <0>        -0.1181
     32 C24        12.4812   -2.6578    2.7505 C.ar      1 <0>        -0.1164
     33 H2          1.4650    0.6079   -1.3915 H         1 <0>         0.0525
     34 H3         -0.0500    0.4567   -2.3137 H         1 <0>         0.0501
     35 H4         -0.1014    0.7911   -0.5662 H         1 <0>         0.0519
     36 H5         -0.6256   -1.5871   -1.0329 H         1 <0>         0.0595
     37 H6          0.9408   -1.7703   -1.8583 H         1 <0>         0.0601
     38 H7          2.1169   -1.1685    0.2400 H         1 <0>         0.0604
     39 H8          0.5506   -0.9852    1.0654 H         1 <0>         0.0592
     40 H9          0.0263   -3.3634    0.5986 H         1 <0>         0.0602
     41 H10         1.5927   -3.5467   -0.2268 H         1 <0>         0.0615
     42 H11         2.7688   -2.9448    1.8716 H         1 <0>         0.0653
     43 H12         1.2025   -2.7616    2.6970 H         1 <0>         0.0597
     44 H13         0.6783   -5.1398    2.2302 H         1 <0>         0.0741
     45 H14         2.2446   -5.3230    1.4048 H         1 <0>         0.0742
     46 H15         6.0005   -5.3438    8.5879 H         1 <0>         0.1485
     47 H16         8.1952   -4.7102    7.7168 H         1 <0>         0.4205
     48 H17         7.0995   -2.7140    5.0452 H         1 <0>         0.1351
     49 H18         8.5391   -1.7386    3.3072 H         1 <0>         0.1273
     50 H19        11.8261   -4.1020    4.7123 H         1 <0>         0.1262
     51 H20        10.3832   -5.0673    6.4532 H         1 <0>         0.1252
     52 H21         9.6007   -1.0170    2.0382 H         1 <0>         0.1263
     53 H22        11.0512   -0.0484    0.3032 H         1 <0>         0.1226
     54 H23        13.4035   -0.7477    0.1294 H         1 <0>         0.1197
     55 H24        14.3179   -2.4163    1.6889 H         1 <0>         0.1213
     56 H25        12.8851   -3.3868    3.4375 H         1 <0>         0.1239
@<TRIPOS>BOND
     1    1    2 1
     2    1   33 1
     3    1   34 1
     4    1   35 1
     5    2    3 1
     6    2   36 1
     7    2   37 1
     8    3    4 1
     9    3   38 1
    10    3   39 1
    11    4    5 1
    12    4   40 1
    13    4   41 1
    14    5    6 1
    15    5   42 1
    16    5   43 1
    17    6    7 1
    18    6   44 1
    19    6   45 1
    20    7    8 1
    21    7    9 1
    22    7   12 1
    23    9   10 2
    24    9   11 1
    25   12   13 1
    26   13   18 ar
    27   13   14 ar
    28   14   15 ar
    29   15   16 ar
    30   15   20 1
    31   16   17 ar
    32   16   46 1
    33   17   18 ar
    34   17   19 1
    35   20   21 1
    36   20   47 1
    37   21   26 ar
    38   21   22 ar
    39   22   23 ar
    40   22   48 1
    41   23   24 ar
    42   23   49 1
    43   24   25 ar
    44   24   27 1
    45   25   26 ar
    46   25   50 1
    47   26   51 1
    48   27   32 ar
    49   27   28 ar
    50   28   29 ar
    51   28   52 1
    52   29   30 ar
    53   29   53 1
    54   30   31 ar
    55   30   54 1
    56   31   32 ar
    57   31   55 1
    58   32   56 1
@<TRIPOS>MOLECULE
ZINC40861882
   56    58     0     0     0
SMALL
USER_CHARGES

@<TRIPOS>ATOM
      1 C1          1.5488    2.5299    0.4420 C.3       1 <0>        -0.1523
      2 C2          1.2932    1.0265    0.3187 C.3       1 <0>        -0.1257
      3 C3          1.8776    0.3082    1.5367 C.3       1 <0>        -0.1199
      4 C4          1.6220   -1.1952    1.4134 C.3       1 <0>        -0.1190
      5 C5          2.2064   -1.9135    2.6314 C.3       1 <0>        -0.1231
      6 C6          1.9508   -3.4169    2.5081 C.3       1 <0>        -0.0846
      7 C7          2.5352   -4.1352    3.7261 C.3       1 <0>        -0.1418
      8 H1          3.5902   -3.8805    3.8265 H         1 <0>         0.0912
      9 C8          2.3928   -5.6247    3.5470 C.2       1 <0>         0.5145
     10 O1          3.2350   -6.2469    2.9223 O.co2     1 <0>        -0.6829
     11 O2          1.4355   -6.2077    4.0268 O.co2     1 <0>        -0.6792
     12 S1          1.6435   -3.6176    5.2186 S.3       1 <0>         0.0343
     13 C9          2.5169   -4.4043    6.5312 C.ar      1 <0>         0.3730
     14 N1          2.1047   -4.2281    7.7783 N.ar      1 <0>        -0.5494
     15 C10         2.7416   -4.8082    8.7908 C.ar      1 <0>         0.4473
     16 C11         3.8539   -5.6079    8.5229 C.ar      1 <0>        -0.2927
     17 C12         4.2514   -5.7660    7.2075 C.ar      1 <0>         0.2718
     18 N2          3.5664   -5.1619    6.2462 N.ar      1 <0>        -0.5270
     19 Cl1         5.6280   -6.7498    6.8189 Cl        1 <0>        -0.0176
     20 N3          2.3076   -4.6210   10.0943 N.pl3     1 <0>        -0.6518
     21 C13         1.1233   -3.9234   10.3427 C.ar      1 <0>         0.1697
     22 C14         0.0444   -4.0567    9.4762 C.ar      1 <0>        -0.1064
     23 C15        -1.1253   -3.3690    9.7195 C.ar      1 <0>        -0.0833
     24 C16        -1.2260   -2.5399   10.8356 C.ar      1 <0>        -0.0730
     25 C17        -0.1431   -2.4080   11.7035 C.ar      1 <0>        -0.0897
     26 C18         1.0232   -3.1012   11.4591 C.ar      1 <0>        -0.1500
     27 C19        -2.4836   -1.7985   11.0992 C.ar      1 <0>        -0.0323
     28 C20        -3.5690   -1.9333   10.2355 C.ar      1 <0>        -0.1135
     29 C21        -4.7366   -1.2412   10.4856 C.ar      1 <0>        -0.1159
     30 C22        -4.8305   -0.4146   11.5907 C.ar      1 <0>        -0.1267
     31 C23        -3.7563   -0.2770   12.4513 C.ar      1 <0>        -0.1188
     32 C24        -2.5860   -0.9692   12.2145 C.ar      1 <0>        -0.1168
     33 H2          2.6222    2.7131    0.4915 H         1 <0>         0.0521
     34 H3          1.1325    3.0416   -0.4257 H         1 <0>         0.0502
     35 H4          1.0739    2.9061    1.3481 H         1 <0>         0.0526
     36 H5          0.2199    0.8433    0.2692 H         1 <0>         0.0600
     37 H6          1.7682    0.6503   -0.5874 H         1 <0>         0.0596
     38 H7          2.9510    0.4914    1.5862 H         1 <0>         0.0597
     39 H8          1.4027    0.6844    2.4428 H         1 <0>         0.0607
     40 H9          0.5487   -1.3784    1.3639 H         1 <0>         0.0610
     41 H10         2.0969   -1.5714    0.5073 H         1 <0>         0.0609
     42 H11         3.2797   -1.7303    2.6808 H         1 <0>         0.0615
     43 H12         1.7315   -1.5373    3.5375 H         1 <0>         0.0660
     44 H13         0.8774   -3.6001    2.4586 H         1 <0>         0.0675
     45 H14         2.4257   -3.7931    1.6020 H         1 <0>         0.0803
     46 H15         4.3921   -6.0919    9.3245 H         1 <0>         0.1487
     47 H16         2.8264   -4.9746   10.8337 H         1 <0>         0.4203
     48 H17         0.1228   -4.6992    8.6117 H         1 <0>         0.1377
     49 H18        -1.9631   -3.4724    9.0457 H         1 <0>         0.1285
     50 H19        -0.2190   -1.7660   12.5687 H         1 <0>         0.1257
     51 H20         1.8611   -3.0022   12.1333 H         1 <0>         0.1245
     52 H21        -3.4966   -2.5779    9.3720 H         1 <0>         0.1273
     53 H22        -5.5784   -1.3448    9.8169 H         1 <0>         0.1229
     54 H23        -5.7458    0.1257   11.7822 H         1 <0>         0.1196
     55 H24        -3.8352    0.3697   13.3127 H         1 <0>         0.1210
     56 H25        -1.7496   -0.8648   12.8897 H         1 <0>         0.1236
@<TRIPOS>BOND
     1    1    2 1
     2    1   33 1
     3    1   34 1
     4    1   35 1
     5    2    3 1
     6    2   36 1
     7    2   37 1
     8    3    4 1
     9    3   38 1
    10    3   39 1
    11    4    5 1
    12    4   40 1
    13    4   41 1
    14    5    6 1
    15    5   42 1
    16    5   43 1
    17    6    7 1
    18    6   44 1
    19    6   45 1
    20    7    8 1
    21    7    9 1
    22    7   12 1
    23    9   10 2
    24    9   11 1
    25   12   13 1
    26   13   18 ar
    27   13   14 ar
    28   14   15 ar
    29   15   16 ar
    30   15   20 1
    31   16   17 ar
    32   16   46 1
    33   17   18 ar
    34   17   19 1
    35   20   21 1
    36   20   47 1
    37   21   26 ar
    38   21   22 ar
    39   22   23 ar
    40   22   48 1
    41   23   24 ar
    42   23   49 1
    43   24   25 ar
    44   24   27 1
    45   25   26 ar
    46   25   50 1
    47   26   51 1
    48   27   32 ar
    49   27   28 ar
    50   28   29 ar
    51   28   52 1
    52   29   30 ar
    53   29   53 1
    54   30   31 ar
    55   30   54 1
    56   31   32 ar
    57   31   55 1
    58   32   56 1
@<TRIPOS>MOLECULE
ZINC40393729
   59    61     0     0     0
SMALL
USER_CHARGES

@<TRIPOS>ATOM
      1 C1         -0.0187    1.5258    0.0104 C.3       1 <0>        -0.1522
      2 C2          0.0021   -0.0041    0.0020 C.3       1 <0>        -0.1258
      3 C3          0.7421   -0.5109    1.2415 C.3       1 <0>        -0.1198
      4 C4          0.7628   -2.0407    1.2331 C.3       1 <0>        -0.1192
      5 C5          1.5028   -2.5476    2.4727 C.3       1 <0>        -0.1229
      6 C6          1.5236   -4.0774    2.4642 C.3       1 <0>        -0.0847
      7 C7          2.2636   -4.5842    3.7038 C.3       1 <0>        -0.1402
      8 H1          1.8067   -4.1607    4.5982 H         1 <0>         0.0909
      9 C8          2.1782   -6.0878    3.7600 C.2       1 <0>         0.5146
     10 O1          3.0807   -6.7672    3.3013 O.co2     1 <0>        -0.6794
     11 O2          1.2066   -6.6248    4.2642 O.co2     1 <0>        -0.6839
     12 S1          4.0040   -4.0802    3.6172 S.3       1 <0>         0.0261
     13 C9          4.6758   -4.6010    5.1606 C.ar      1 <0>         0.3785
     14 N1          5.9551   -4.3705    5.4191 N.ar      1 <0>        -0.5657
     15 C10         6.4920   -4.7505    6.5741 C.ar      1 <0>         0.4592
     16 C11         5.6887   -5.3976    7.5147 C.ar      1 <0>        -0.3051
     17 C12         4.3589   -5.6190    7.2059 C.ar      1 <0>         0.2724
     18 N2          3.8880   -5.2086    6.0361 N.ar      1 <0>        -0.5346
     19 Cl1         3.3160   -6.4193    8.3397 Cl        1 <0>        -0.0234
     20 N3          7.8298   -4.5081    6.8406 N.pl3     1 <0>        -0.7087
     21 C13         8.4109   -4.9314    8.1171 C.3       1 <0>         0.1673
     22 C14         9.8690   -4.5526    8.1555 C.ar      1 <0>        -0.1044
     23 C15        10.8233   -5.4367    7.6854 C.ar      1 <0>        -0.0923
     24 C16        12.1600   -5.0949    7.7182 C.ar      1 <0>        -0.1122
     25 C17        12.5476   -3.8566    8.2261 C.ar      1 <0>        -0.0385
     26 C18        11.5821   -2.9699    8.6983 C.ar      1 <0>        -0.1130
     27 C19        10.2476   -3.3197    8.6556 C.ar      1 <0>        -0.0931
     28 C20        13.9834   -3.4837    8.2644 C.ar      1 <0>        -0.0462
     29 C21        14.9485   -4.3683    7.7873 C.ar      1 <0>        -0.1098
     30 C22        16.2824   -4.0162    7.8249 C.ar      1 <0>        -0.1180
     31 C23        16.6620   -2.7880    8.3354 C.ar      1 <0>        -0.1195
     32 C24        15.7082   -1.9062    8.8108 C.ar      1 <0>        -0.1184
     33 C25        14.3709   -2.2455    8.7723 C.ar      1 <0>        -0.1101
     34 H2          1.0039    1.9031    0.0027 H         1 <0>         0.0525
     35 H3         -0.5459    1.8868   -0.8726 H         1 <0>         0.0500
     36 H4         -0.5289    1.8773    0.9072 H         1 <0>         0.0521
     37 H5         -1.0205   -0.3814    0.0098 H         1 <0>         0.0596
     38 H6          0.5123   -0.3556   -0.8948 H         1 <0>         0.0599
     39 H7          1.7647   -0.1336    1.2338 H         1 <0>         0.0607
     40 H8          0.2319   -0.1594    2.1383 H         1 <0>         0.0597
     41 H9         -0.2598   -2.4180    1.2409 H         1 <0>         0.0608
     42 H10         1.2730   -2.3923    0.3363 H         1 <0>         0.0609
     43 H11         2.5254   -2.1703    2.4649 H         1 <0>         0.0662
     44 H12         0.9926   -2.1961    3.3695 H         1 <0>         0.0615
     45 H13         0.5010   -4.4547    2.4720 H         1 <0>         0.0798
     46 H14         2.0337   -4.4289    1.5675 H         1 <0>         0.0672
     47 H15         6.0965   -5.7185    8.4619 H         1 <0>         0.1447
     48 H16         8.3818   -4.0582    6.1819 H         1 <0>         0.4094
     49 H17         7.8860   -4.4396    8.9361 H         1 <0>         0.0759
     50 H18         8.3135   -6.0122    8.2200 H         1 <0>         0.0765
     51 H19        10.5218   -6.3963    7.2923 H         1 <0>         0.1291
     52 H20        12.9043   -5.7861    7.3512 H         1 <0>         0.1275
     53 H21        11.8770   -2.0090    9.0934 H         1 <0>         0.1271
     54 H22         9.4981   -2.6313    9.0169 H         1 <0>         0.1281
     55 H23        14.6532   -5.3278    7.3891 H         1 <0>         0.1261
     56 H24        17.0313   -4.7010    7.4553 H         1 <0>         0.1243
     57 H25        17.7070   -2.5166    8.3632 H         1 <0>         0.1223
     58 H26        16.0101   -0.9486    9.2087 H         1 <0>         0.1241
     59 H27        13.6267   -1.5544    9.1396 H         1 <0>         0.1258
@<TRIPOS>BOND
     1    1    2 1
     2    1   34 1
     3    1   35 1
     4    1   36 1
     5    2    3 1
     6    2   37 1
     7    2   38 1
     8    3    4 1
     9    3   39 1
    10    3   40 1
    11    4    5 1
    12    4   41 1
    13    4   42 1
    14    5    6 1
    15    5   43 1
    16    5   44 1
    17    6    7 1
    18    6   45 1
    19    6   46 1
    20    7    8 1
    21    7    9 1
    22    7   12 1
    23    9   10 2
    24    9   11 1
    25   12   13 1
    26   13   18 ar
    27   13   14 ar
    28   14   15 ar
    29   15   16 ar
    30   15   20 1
    31   16   17 ar
    32   16   47 1
    33   17   18 ar
    34   17   19 1
    35   20   21 1
    36   20   48 1
    37   21   22 1
    38   21   49 1
    39   21   50 1
    40   22   27 ar
    41   22   23 ar
    42   23   24 ar
    43   23   51 1
    44   24   25 ar
    45   24   52 1
    46   25   26 ar
    47   25   28 1
    48   26   27 ar
    49   26   53 1
    50   27   54 1
    51   28   33 ar
    52   28   29 ar
    53   29   30 ar
    54   29   55 1
    55   30   31 ar
    56   30   56 1
    57   31   32 ar
    58   31   57 1
    59   32   33 ar
    60   32   58 1
    61   33   59 1
@<TRIPOS>MOLECULE
ZINC40422668
   45    48     0     0     0
SMALL
USER_CHARGES

@<TRIPOS>ATOM
      1 C1         -0.0187    1.5258    0.0104 C.3       1 <0>        -0.1525
      2 C2          0.0021   -0.0041    0.0020 C.3       1 <0>         0.0553
      3 O1          0.6709   -0.4649   -1.1737 O.3       1 <0>        -0.3407
      4 C3          0.7759   -1.7995   -1.3349 C.2       1 <0>         0.5477
      5 O2          0.3119   -2.5511   -0.4993 O.2       1 <0>        -0.4936
      6 C4          1.4504   -2.3449   -2.5190 C.2       1 <0>        -0.1918
      7 C5          2.8831   -2.6685   -2.6494 C.ar      1 <0>        -0.0549
      8 C6          3.9782   -2.5747   -1.7756 C.ar      1 <0>        -0.0971
      9 C7          5.2214   -2.9558   -2.1758 C.ar      1 <0>         0.1057
     10 C8          5.4249   -3.4528   -3.4837 C.ar      1 <0>        -0.0561
     11 C9          6.7003   -3.8507   -3.9132 C.ar      1 <0>        -0.0904
     12 C10         6.8698   -4.3265   -5.1785 C.ar      1 <0>        -0.1176
     13 C11         5.7935   -4.4250   -6.0561 C.ar      1 <0>        -0.1051
     14 C12         4.5419   -4.0473   -5.6723 C.ar      1 <0>        -0.1167
     15 C13         4.3314   -3.5534   -4.3763 C.ar      1 <0>        -0.0154
     16 C14         3.0459   -3.1544   -3.9467 C.ar      1 <0>         0.0856
     17 N1          1.8138   -3.1301   -4.5605 N.pl3     1 <0>        -0.5461
     18 H1          1.6447   -3.4166   -5.4716 H         1 <0>         0.4218
     19 C15         0.8746   -2.6591   -3.7171 C.2       1 <0>         0.1390
     20 C16        -0.5873   -2.4999   -4.0464 C.3       1 <0>        -0.0274
     21 C17        -0.8480   -1.0886   -4.5059 C.ar      1 <0>        -0.0770
     22 C18        -1.1811   -0.1123   -3.5852 C.ar      1 <0>        -0.0923
     23 C19        -1.4203    1.1824   -4.0059 C.ar      1 <0>        -0.0993
     24 C20        -1.3271    1.5018   -5.3476 C.ar      1 <0>        -0.1059
     25 C21        -0.9939    0.5255   -6.2693 C.ar      1 <0>        -0.0332
     26 C22        -0.7485   -0.7691   -5.8467 C.ar      1 <0>        -0.1029
     27 Cl1        -0.8766    0.9260   -7.9544 Cl        1 <0>        -0.0670
     28 O3          6.2700   -2.8581   -1.3167 O.3       1 <0>        -0.4892
     29 H2          1.0039    1.9031    0.0027 H         1 <0>         0.0681
     30 H3         -0.5459    1.8868   -0.8726 H         1 <0>         0.0664
     31 H4         -0.5289    1.8773    0.9072 H         1 <0>         0.0806
     32 H5          0.5293   -0.3651    0.8851 H         1 <0>         0.0693
     33 H6         -1.0205   -0.3814    0.0098 H         1 <0>         0.0684
     34 H7          3.8321   -2.1954   -0.7749 H         1 <0>         0.1306
     35 H8          7.5445   -3.7796   -3.2434 H         1 <0>         0.1353
     36 H9          7.8529   -4.6314   -5.5055 H         1 <0>         0.1273
     37 H10         5.9528   -4.8053   -7.0543 H         1 <0>         0.1266
     38 H11         3.7154   -4.1279   -6.3628 H         1 <0>         0.1215
     39 H12        -0.8589   -3.1963   -4.8398 H         1 <0>         0.0987
     40 H13        -1.1846   -2.7093   -3.1590 H         1 <0>         0.1072
     41 H14        -1.2547   -0.3616   -2.5370 H         1 <0>         0.1263
     42 H15        -1.6805    1.9445   -3.2863 H         1 <0>         0.1347
     43 H16        -1.5148    2.5133   -5.6763 H         1 <0>         0.1352
     44 H17        -0.4840   -1.5308   -6.5653 H         1 <0>         0.1306
     45 H18         6.4146   -3.6499   -0.7808 H         1 <0>         0.3904
@<TRIPOS>BOND
     1    1    2 1
     2    1   29 1
     3    1   30 1
     4    1   31 1
     5    2    3 1
     6    2   32 1
     7    2   33 1
     8    3    4 1
     9    4    5 2
    10    4    6 1
    11    6   19 2
    12    6    7 1
    13    7   16 ar
    14    7    8 ar
    15    8    9 ar
    16    8   34 1
    17    9   10 ar
    18    9   28 1
    19   10   15 ar
    20   10   11 ar
    21   11   12 ar
    22   11   35 1
    23   12   13 ar
    24   12   36 1
    25   13   14 ar
    26   13   37 1
    27   14   15 ar
    28   14   38 1
    29   15   16 ar
    30   16   17 1
    31   17   18 1
    32   17   19 1
    33   19   20 1
    34   20   21 1
    35   20   39 1
    36   20   40 1
    37   21   26 ar
    38   21   22 ar
    39   22   23 ar
    40   22   41 1
    41   23   24 ar
    42   23   42 1
    43   24   25 ar
    44   24   43 1
    45   25   26 ar
    46   25   27 1
    47   26   44 1
    48   28   45 1
@<TRIPOS>MOLECULE
ZINC40865720
   52    53     0     0     0
SMALL
USER_CHARGES

@<TRIPOS>ATOM
      1 C1          0.1146    1.5744    0.0087 C.3       1 <0>        -0.1523
      2 C2          0.1044    0.0445    0.0013 C.3       1 <0>        -0.1258
      3 C3          0.8091   -0.4641   -1.2579 C.3       1 <0>        -0.1199
      4 C4          0.7989   -1.9941   -1.2653 C.3       1 <0>        -0.1191
      5 C5          1.5035   -2.5027   -2.5246 C.3       1 <0>        -0.1231
      6 C6          1.4934   -4.0326   -2.5320 C.3       1 <0>        -0.0847
      7 C7          2.1980   -4.5412   -3.7913 C.3       1 <0>        -0.1417
      8 H1          3.1989   -4.1130   -3.8456 H         1 <0>         0.0913
      9 C8          2.2968   -6.0441   -3.7393 C.2       1 <0>         0.5144
     10 O1          1.4511   -6.7299   -4.2879 O.co2     1 <0>        -0.6791
     11 O2          3.2225   -6.5741   -3.1488 O.co2     1 <0>        -0.6828
     12 S1          1.2488   -4.0479   -5.2563 S.3       1 <0>         0.0344
     13 C9          2.2506   -4.5694   -6.6087 C.ar      1 <0>         0.3712
     14 N1          1.8325   -4.3461   -7.8462 N.ar      1 <0>        -0.5482
     15 C10         2.5652   -4.7268   -8.8881 C.ar      1 <0>         0.4467
     16 C11         3.7847   -5.3670   -8.6614 C.ar      1 <0>        -0.2933
     17 C12         4.1846   -5.5810   -7.3547 C.ar      1 <0>         0.2727
     18 N2          3.4060   -5.1703   -6.3629 N.ar      1 <0>        -0.5270
     19 Cl1         5.6922   -6.3726   -7.0167 Cl        1 <0>        -0.0174
     20 N3          2.1241   -4.4917  -10.1814 N.pl3     1 <0>        -0.6453
     21 C13         0.8454   -3.9708  -10.4000 C.ar      1 <0>         0.1679
     22 C14        -0.1526   -4.1542   -9.4511 C.ar      1 <0>        -0.1251
     23 C15        -1.4146   -3.6383   -9.6702 C.ar      1 <0>        -0.0963
     24 C16        -1.6857   -2.9401  -10.8329 C.ar      1 <0>        -0.1429
     25 C17        -0.6949   -2.7562  -11.7795 C.ar      1 <0>        -0.0714
     26 C18         0.5715   -3.2639  -11.5637 C.ar      1 <0>        -0.1290
     27 C19         1.6526   -3.0572  -12.5929 C.3       1 <0>        -0.1128
     28 C20        -0.9951   -1.9956  -13.0454 C.3       1 <0>        -0.1115
     29 H2          1.1446    1.9310   -0.0004 H         1 <0>         0.0521
     30 H3         -0.4062    1.9455   -0.8740 H         1 <0>         0.0525
     31 H4         -0.3874    1.9367    0.9059 H         1 <0>         0.0501
     32 H5          0.6252   -0.3266    0.8841 H         1 <0>         0.0596
     33 H6         -0.9256   -0.3121    0.0104 H         1 <0>         0.0600
     34 H7          0.2883   -0.0931   -2.1406 H         1 <0>         0.0607
     35 H8          1.8390   -0.1076   -1.2670 H         1 <0>         0.0597
     36 H9          1.3197   -2.3652   -0.3826 H         1 <0>         0.0609
     37 H10        -0.2311   -2.3506   -1.2562 H         1 <0>         0.0611
     38 H11         0.9828   -2.1316   -3.4073 H         1 <0>         0.0661
     39 H12         2.5335   -2.1461   -2.5337 H         1 <0>         0.0615
     40 H13         2.0141   -4.4037   -1.6493 H         1 <0>         0.0803
     41 H14         0.4634   -4.3892   -2.5229 H         1 <0>         0.0676
     42 H15         4.4018   -5.6882   -9.4875 H         1 <0>         0.1484
     43 H16         2.7028   -4.6888  -10.9345 H         1 <0>         0.4189
     44 H17         0.0583   -4.6999   -8.5433 H         1 <0>         0.1528
     45 H18        -2.1909   -3.7805   -8.9329 H         1 <0>         0.1244
     46 H19        -2.6737   -2.5380  -11.0019 H         1 <0>         0.1180
     47 H20         1.6371   -3.8808  -13.3067 H         1 <0>         0.0669
     48 H21         1.4795   -2.1179  -13.1182 H         1 <0>         0.0708
     49 H22         2.6234   -3.0233  -12.0984 H         1 <0>         0.0602
     50 H23        -0.7902   -0.9364  -12.8901 H         1 <0>         0.0676
     51 H24        -0.3678   -2.3725  -13.8532 H         1 <0>         0.0652
     52 H25        -2.0446   -2.1279  -13.3085 H         1 <0>         0.0645
@<TRIPOS>BOND
     1    1    2 1
     2    1   29 1
     3    1   30 1
     4    1   31 1
     5    2    3 1
     6    2   32 1
     7    2   33 1
     8    3    4 1
     9    3   34 1
    10    3   35 1
    11    4    5 1
    12    4   36 1
    13    4   37 1
    14    5    6 1
    15    5   38 1
    16    5   39 1
    17    6    7 1
    18    6   40 1
    19    6   41 1
    20    7    8 1
    21    7    9 1
    22    7   12 1
    23    9   10 2
    24    9   11 1
    25   12   13 1
    26   13   18 ar
    27   13   14 ar
    28   14   15 ar
    29   15   16 ar
    30   15   20 1
    31   16   17 ar
    32   16   42 1
    33   17   18 ar
    34   17   19 1
    35   20   21 1
    36   20   43 1
    37   21   26 ar
    38   21   22 ar
    39   22   23 ar
    40   22   44 1
    41   23   24 ar
    42   23   45 1
    43   24   25 ar
    44   24   46 1
    45   25   26 ar
    46   25   28 1
    47   26   27 1
    48   27   47 1
    49   27   48 1
    50   27   49 1
    51   28   50 1
    52   28   51 1
    53   28   52 1
@<TRIPOS>MOLECULE
ZINC02059087
   51    55     0     0     0
SMALL
USER_CHARGES
4-[3-[[5-(4-bromophenyl)-2-furyl]methylene]-2-oxo-5-phenyl-pyrrol-1-yl]benzoic acid
@<TRIPOS>ATOM
      1 C1          0.0010    1.0811   -0.2004 C.ar      1 <0>        -0.1060
      2 C2         -0.7593    1.7980   -1.1076 C.ar      1 <0>        -0.1161
      3 C3         -0.7898    3.1758   -1.0501 C.ar      1 <0>        -0.0829
      4 C4         -0.0429    3.8477   -0.0797 C.ar      1 <0>        -0.0514
      5 C5          0.7264    3.1179    0.8294 C.ar      1 <0>        -0.0902
      6 C6          0.7438    1.7403    0.7633 C.ar      1 <0>        -0.1237
      7 C7         -0.0669    5.3227   -0.0150 C.2       1 <0>         0.1749
      8 C8          1.0297    6.1080    0.0959 C.2       1 <0>        -0.2024
      9 C9          0.5551    7.4981    0.1223 C.2       1 <0>        -0.1485
     10 C10         1.3241    8.6525    0.2224 C.2       1 <0>         0.0183
     11 C11         0.7024    9.9106    0.2387 C.2       1 <0>        -0.0152
     12 C12         1.3465   11.1360    0.3396 C.2       1 <0>        -0.1603
     13 C13         0.3547   12.1155    0.3154 C.2       1 <0>        -0.1989
     14 C14        -0.8555   11.4628    0.2096 C.2       1 <0>         0.0425
     15 O1         -0.6266   10.1385    0.1648 O.3       1 <0>        -0.0966
     16 C15        -2.1801   12.1096    0.1552 C.ar      1 <0>        -0.0077
     17 C16        -2.2846   13.5019    0.2173 C.ar      1 <0>        -0.0928
     18 C17        -3.5256   14.1000    0.1619 C.ar      1 <0>        -0.0926
     19 C18        -4.6677   13.3240    0.0544 C.ar      1 <0>        -0.0839
     20 C19        -4.5717   11.9435   -0.0028 C.ar      1 <0>        -0.0872
     21 C20        -3.3367   11.3325    0.0471 C.ar      1 <0>        -0.0835
     22 Br1        -6.3659   14.1530   -0.0141 Br        1 <0>        -0.0487
     23 C21        -0.9091    7.4048    0.0251 C.2       1 <0>         0.5345
     24 O2         -1.6959    8.3351    0.0173 O.2       1 <0>        -0.4594
     25 N1         -1.2152    6.0961   -0.0532 N.am      1 <0>        -0.4974
     26 C22        -2.5113    5.5887   -0.1579 C.ar      1 <0>         0.1118
     27 C23        -3.0538    4.8496    0.8886 C.ar      1 <0>        -0.1218
     28 C24        -4.3334    4.3517    0.7908 C.ar      1 <0>        -0.0668
     29 C25        -5.0841    4.5804   -0.3662 C.ar      1 <0>        -0.0995
     30 C26        -4.5337    5.3190   -1.4179 C.ar      1 <0>        -0.0765
     31 C27        -3.2554    5.8183   -1.3108 C.ar      1 <0>        -0.1217
     32 C28        -6.4534    4.0442   -0.4768 C.2       1 <0>         0.4879
     33 O3         -7.1047    4.2442   -1.4829 O.co2     1 <0>        -0.6280
     34 H1          0.0183    0.0023   -0.2476 H         1 <0>         0.1240
     35 H2         -1.3331    1.2773   -1.8599 H         1 <0>         0.1273
     36 H3         -1.3868    3.7339   -1.7562 H         1 <0>         0.1246
     37 H4          1.3066    3.6311    1.5820 H         1 <0>         0.1275
     38 H5          1.3382    1.1747    1.4656 H         1 <0>         0.1259
     39 H6          2.0561    5.7767    0.1522 H         1 <0>         0.1599
     40 H7          2.3997    8.5808    0.2876 H         1 <0>         0.1676
     41 H8          2.4111   11.2994    0.4191 H         1 <0>         0.1578
     42 H9          0.5053   13.1834    0.3731 H         1 <0>         0.1538
     43 H10        -1.3950   14.1080    0.3053 H         1 <0>         0.1368
     44 H11        -3.6076   15.1760    0.2068 H         1 <0>         0.1379
     45 H12        -5.4663   11.3443   -0.0863 H         1 <0>         0.1400
     46 H13        -3.2633   10.2559    0.0032 H         1 <0>         0.1505
     47 H14        -2.4718    4.6698    1.7804 H         1 <0>         0.1178
     48 H15        -4.7554    3.7815    1.6053 H         1 <0>         0.1374
     49 H16        -5.1106    5.4973   -2.3133 H         1 <0>         0.1342
     50 H17        -2.8294    6.3886   -2.1230 H         1 <0>         0.1176
     51 O4         -6.9823    3.3325    0.5378 O.co2     1 <0>        -0.7505
@<TRIPOS>BOND
     1    1    6 ar
     2    1    2 ar
     3    1   34 1
     4    2    3 ar
     5    2   35 1
     6    3    4 ar
     7    3   36 1
     8    4    5 ar
     9    4    7 1
    10    5    6 ar
    11    5   37 1
    12    6   38 1
    13    7   25 1
    14    7    8 2
    15    8    9 1
    16    8   39 1
    17    9   10 2
    18    9   23 1
    19   10   11 1
    20   10   40 1
    21   11   15 1
    22   11   12 2
    23   12   13 1
    24   12   41 1
    25   13   14 2
    26   13   42 1
    27   14   15 1
    28   14   16 1
    29   16   21 ar
    30   16   17 ar
    31   17   18 ar
    32   17   43 1
    33   18   19 ar
    34   18   44 1
    35   19   20 ar
    36   19   22 1
    37   20   21 ar
    38   20   45 1
    39   21   46 1
    40   23   24 2
    41   23   25 am
    42   25   26 1
    43   26   31 ar
    44   26   27 ar
    45   27   28 ar
    46   27   47 1
    47   28   29 ar
    48   28   48 1
    49   29   30 ar
    50   29   32 1
    51   30   31 ar
    52   30   49 1
    53   31   50 1
    54   32   33 2
    55   32   51 1
