@<TRIPOS>MOLECULE
ZINC01713558
   26    28     0     0     0
SMALL
USER_CHARGES

@<TRIPOS>ATOM
      1 C1         -0.0167    1.3783    0.0096 C.ar      1 <0>        -0.0786
      2 C2          1.1645    2.1013    0.0022 C.ar      1 <0>        -0.1302
      3 C3          2.3819    1.4487   -0.0130 C.ar      1 <0>        -0.0507
      4 C4          2.4175    0.0556   -0.0203 C.ar      1 <0>        -0.1674
      5 C5          1.2174   -0.6824   -0.0137 C.ar      1 <0>         0.0124
      6 C6          0.0021   -0.0041    0.0020 C.ar      1 <0>        -0.1216
      7 C7          1.2459   -2.1606   -0.0242 C.ar      1 <0>        -0.0753
      8 C8          0.0834   -2.8820   -0.2829 C.ar      1 <0>        -0.0550
      9 C9          0.1128   -4.2626   -0.2908 C.ar      1 <0>        -0.1675
     10 C10         1.2976   -4.9471   -0.0415 C.ar      1 <0>         0.2208
     11 C11         2.4685   -4.2441    0.2176 C.ar      1 <0>        -0.1356
     12 C12         2.4472   -2.8527    0.2265 C.ar      1 <0>        -0.1018
     13 C13         3.6794   -2.0792    0.4971 C.2       1 <0>         0.3713
     14 O1          4.6135   -2.5524    1.1107 O.2       1 <0>        -0.3900
     15 C14         3.7063   -0.6685   -0.0347 C.2       1 <0>         0.3744
     16 O2          4.7259   -0.1578   -0.4505 O.2       1 <0>        -0.3935
     17 N1          1.3109   -6.3422   -0.0511 N.pl3     1 <0>        -0.8695
     18 H1         -0.9623    1.8998    0.0260 H         1 <0>         0.1336
     19 H2          1.1336    3.1809    0.0080 H         1 <0>         0.1347
     20 H3          3.3014    2.0153   -0.0195 H         1 <0>         0.1377
     21 H4         -0.9255   -0.5572    0.0086 H         1 <0>         0.1365
     22 H5         -0.8426   -2.3612   -0.4772 H         1 <0>         0.1380
     23 H6         -0.7926   -4.8160   -0.4921 H         1 <0>         0.1329
     24 H7          3.3891   -4.7746    0.4115 H         1 <0>         0.1376
     25 H8          0.4943   -6.8338   -0.2315 H         1 <0>         0.4035
     26 H9          2.1366   -6.8206    0.1226 H         1 <0>         0.4033
@<TRIPOS>BOND
     1    1    6 ar
     2    1    2 ar
     3    1   18 1
     4    2    3 ar
     5    2   19 1
     6    3    4 ar
     7    3   20 1
     8    4   15 1
     9    4    5 ar
    10    5    6 ar
    11    5    7 1
    12    6   21 1
    13    7   12 ar
    14    7    8 ar
    15    8    9 ar
    16    8   22 1
    17    9   10 ar
    18    9   23 1
    19   10   11 ar
    20   10   17 1
    21   11   12 ar
    22   11   24 1
    23   12   13 1
    24   13   14 2
    25   13   15 1
    26   15   16 2
    27   17   25 1
    28   17   26 1
@<TRIPOS>MOLECULE
ZINC13862833
   40    42     0     0     0
SMALL
USER_CHARGES
N-(9,10-dioxo-2-phenanthryl)-2,2-dimethyl-propanamide
@<TRIPOS>ATOM
      1 C1         -6.2951    7.3351   -1.3946 C.3       1 <0>        -0.1316
      2 C2         -6.3821    6.0947   -0.5032 C.3       1 <0>        -0.0831
      3 C3         -7.5592    5.2261   -0.9514 C.3       1 <0>        -0.1437
      4 C4         -6.5899    6.5247    0.9503 C.3       1 <0>        -0.1438
      5 C5         -5.1035    5.3048   -0.6155 C.2       1 <0>         0.5209
      6 O1         -4.2107    5.6956   -1.3374 O.2       1 <0>        -0.5070
      7 N1         -4.9523    4.1642    0.0863 N.am      1 <0>        -0.6735
      8 C6         -3.7277    3.4899    0.0689 C.ar      1 <0>         0.1494
      9 C7         -3.6990    2.1019    0.1464 C.ar      1 <0>        -0.1121
     10 C8         -2.4972    1.4214    0.1308 C.ar      1 <0>        -0.0865
     11 C9         -1.2991    2.1234    0.0421 C.ar      1 <0>        -0.0268
     12 C10        -1.3269    3.5303   -0.0417 C.ar      1 <0>        -0.1331
     13 C11        -2.5422    4.2083   -0.0253 C.ar      1 <0>        -0.0591
     14 C12        -0.0493    4.2701   -0.1412 C.2       1 <0>         0.3700
     15 O2          0.0130    5.3834   -0.6203 O.2       1 <0>        -0.3824
     16 C13         1.1708    3.5592    0.3882 C.2       1 <0>         0.3740
     17 O3          2.0731    4.1552    0.9394 O.2       1 <0>        -0.3904
     18 C14         1.2028    2.0936    0.1967 C.ar      1 <0>        -0.1589
     19 C15        -0.0103    1.3987    0.0227 C.ar      1 <0>        -0.0018
     20 C16         0.0164    0.0196   -0.1623 C.ar      1 <0>        -0.1137
     21 C17         1.2247   -0.6524   -0.1709 C.ar      1 <0>        -0.0810
     22 C18         2.4156    0.0326    0.0029 C.ar      1 <0>        -0.1230
     23 C19         2.4125    1.4018    0.1864 C.ar      1 <0>        -0.0526
     24 H1         -6.1471    7.0287   -2.4302 H         1 <0>         0.0645
     25 H2         -7.2199    7.9064   -1.3134 H         1 <0>         0.0668
     26 H3         -5.4565    7.9539   -1.0754 H         1 <0>         0.0647
     27 H4         -7.6211    4.3423   -0.3163 H         1 <0>         0.0597
     28 H5         -8.4839    5.7974   -0.8702 H         1 <0>         0.0744
     29 H6         -7.4111    4.9197   -1.9869 H         1 <0>         0.0639
     30 H7         -5.7513    7.1435    1.2696 H         1 <0>         0.0637
     31 H8         -7.5146    7.0960    1.0315 H         1 <0>         0.0745
     32 H9         -6.6518    5.6410    1.5854 H         1 <0>         0.0605
     33 H10        -5.6930    3.8111    0.6035 H         1 <0>         0.4143
     34 H11        -4.6250    1.5508    0.2190 H         1 <0>         0.1391
     35 H12        -2.4871    0.3431    0.1909 H         1 <0>         0.1435
     36 H13        -2.5636    5.2864   -0.0859 H         1 <0>         0.1505
     37 H14        -0.9060   -0.5253   -0.2993 H         1 <0>         0.1381
     38 H15         1.2399   -1.7227   -0.3151 H         1 <0>         0.1354
     39 H16         3.3515   -0.5063   -0.0054 H         1 <0>         0.1365
     40 H17         3.3429    1.9335    0.3209 H         1 <0>         0.1396
@<TRIPOS>BOND
     1    1    2 1
     2    1   24 1
     3    1   25 1
     4    1   26 1
     5    2    3 1
     6    2    4 1
     7    2    5 1
     8    3   27 1
     9    3   28 1
    10    3   29 1
    11    4   30 1
    12    4   31 1
    13    4   32 1
    14    5    6 2
    15    5    7 am
    16    7    8 1
    17    7   33 1
    18    8   13 ar
    19    8    9 ar
    20    9   10 ar
    21    9   34 1
    22   10   11 ar
    23   10   35 1
    24   11   19 1
    25   11   12 ar
    26   12   13 ar
    27   12   14 1
    28   13   36 1
    29   14   15 2
    30   14   16 1
    31   16   17 2
    32   16   18 1
    33   18   23 ar
    34   18   19 ar
    35   19   20 ar
    36   20   21 ar
    37   20   37 1
    38   21   22 ar
    39   21   38 1
    40   22   23 ar
    41   22   39 1
    42   23   40 1
