@<TRIPOS>MOLECULE
ZINC03938713
   63    66     0     0     0
SMALL
USER_CHARGES
[3-[bis(2-chloroethyl)carbamoyloxy]-13-methyl-6,7,8,9,11,12,14,15,16,17-decahydrocyclopenta[a]phenanthren-17-yl]oxyphosphonic acid
@<TRIPOS>ATOM
      1 C1         -0.1036    3.7038    0.4897 C.3       1 <0>        -0.1245
      2 C2         -1.2644    2.7266    0.6858 C.3       1 <0>        -0.0698
      3 C3         -2.2820    3.3151    1.6432 C.3       1 <0>        -0.1034
      4 C4         -1.5531    3.6285    2.9636 C.3       1 <0>        -0.1098
      5 C5         -0.8992    2.3758    3.5277 C.3       1 <0>        -0.0473
      6 H1         -1.6872    1.6558    3.7486 H         1 <0>         0.0808
      7 C6         -0.1584    2.6554    4.8029 C.ar      1 <0>        -0.0440
      8 C7         -0.6676    3.6204    5.6616 C.ar      1 <0>        -0.1033
      9 C8         -0.0319    3.9089    6.8502 C.ar      1 <0>        -0.1151
     10 C9          1.1274    3.2272    7.1919 C.ar      1 <0>         0.0812
     11 C10         1.6370    2.2682    6.3343 C.ar      1 <0>        -0.1194
     12 C11         0.9993    1.9823    5.1344 C.ar      1 <0>        -0.0594
     13 C12         1.6266    0.9455    4.2402 C.3       1 <0>        -0.0785
     14 C13         0.6531    0.4836    3.1567 C.3       1 <0>        -0.1134
     15 C14         0.0553    1.7341    2.5119 C.3       1 <0>        -0.0689
     16 H2          0.8441    2.4398    2.2512 H         1 <0>         0.0822
     17 C15        -0.7392    1.3887    1.2807 C.3       1 <0>        -0.0896
     18 H3         -1.5797    0.7585    1.5713 H         1 <0>         0.0665
     19 C16         0.0011    0.7551    0.1078 C.3       1 <0>        -0.1011
     20 C17        -0.7176    1.2746   -1.1624 C.3       1 <0>        -0.1399
     21 C18        -1.8036    2.2722   -0.6743 C.3       1 <0>         0.1720
     22 H4         -2.7654    1.7714   -0.5632 H         1 <0>         0.0464
     23 O1         -1.9126    3.3796   -1.5707 O.3       1 <0>        -0.7438
     24 P1         -3.2820    3.7667   -2.3238 P.3       1 <0>         2.1332
     25 O2         -3.7824    2.5921   -3.0723 O.2       1 <0>        -1.1697
     26 O3          1.7594    3.4999    8.3642 O.3       1 <0>        -0.2965
     27 C19         2.9461    4.1319    8.2863 C.2       1 <0>         0.6406
     28 O4          3.3543    4.5280    7.2125 O.2       1 <0>        -0.5341
     29 N1          3.6810    4.3250    9.3995 N.am      1 <0>        -0.5948
     30 C20         4.9719    5.0125    9.3149 C.3       1 <0>         0.1213
     31 C21         4.7620    6.5165    9.5013 C.3       1 <0>        -0.0534
     32 Cl1         6.3507    7.3626    9.3971 Cl        1 <0>        -0.1681
     33 C22         3.1889    3.8475   10.6941 C.3       1 <0>         0.1028
     34 C23         3.6769    2.4165   10.9289 C.3       1 <0>        -0.0532
     35 Cl2         3.0713    1.8288   12.5222 Cl        1 <0>        -0.1689
     36 H5         -0.4574    4.5858   -0.0442 H         1 <0>         0.0673
     37 H6          0.2894    4.0010    1.4620 H         1 <0>         0.0416
     38 H7          0.6842    3.2208   -0.0884 H         1 <0>         0.0467
     39 H8         -2.6977    4.2313    1.2238 H         1 <0>         0.0864
     40 H9         -3.0800    2.5947    1.8233 H         1 <0>         0.0596
     41 H10        -0.7871    4.3820    2.7807 H         1 <0>         0.0668
     42 H11        -2.2711    4.0147    3.6871 H         1 <0>         0.0585
     43 H12        -1.5702    4.1503    5.3955 H         1 <0>         0.1380
     44 H13        -0.4342    4.6614    7.5123 H         1 <0>         0.1277
     45 H14         2.5388    1.7371    6.6008 H         1 <0>         0.1192
     46 H15         2.5116    1.3708    3.7670 H         1 <0>         0.0767
     47 H16         1.9233    0.0870    4.8429 H         1 <0>         0.0693
     48 H17         1.1874   -0.0999    2.4069 H         1 <0>         0.0719
     49 H18        -0.1333   -0.1244    3.6038 H         1 <0>         0.0645
     50 H19        -0.0658   -0.3315    0.1617 H         1 <0>         0.0536
     51 H20         1.0449    1.0690    0.1061 H         1 <0>         0.0579
     52 H21        -0.0065    1.7843   -1.8126 H         1 <0>         0.0689
     53 H22        -1.1827    0.4450   -1.6949 H         1 <0>         0.0584
     54 H23         5.6345    4.6386   10.0954 H         1 <0>         0.0981
     55 H24         5.4194    4.8264    8.3385 H         1 <0>         0.1044
     56 H25         4.0993    6.8904    8.7207 H         1 <0>         0.1009
     57 H26         4.3145    6.7026   10.4776 H         1 <0>         0.0965
     58 H27         3.5649    4.4943   11.4868 H         1 <0>         0.0962
     59 H28         2.0990    3.8648   10.6974 H         1 <0>         0.1027
     60 H29         3.3009    1.7697   10.1362 H         1 <0>         0.0991
     61 H30         4.7668    2.3992   10.9256 H         1 <0>         0.0967
     62 O5         -4.3816    4.2198   -1.2386 O.3       1 <0>        -1.1989
     63 O6         -3.0074    4.9784   -3.3477 O.3       1 <0>        -1.1858
@<TRIPOS>BOND
     1    1    2 1
     2    1   36 1
     3    1   37 1
     4    1   38 1
     5    2   17 1
     6    2   21 1
     7    2    3 1
     8    3    4 1
     9    3   39 1
    10    3   40 1
    11    4    5 1
    12    4   41 1
    13    4   42 1
    14    5    6 1
    15    5   15 1
    16    5    7 1
    17    7   12 ar
    18    7    8 ar
    19    8    9 ar
    20    8   43 1
    21    9   10 ar
    22    9   44 1
    23   10   11 ar
    24   10   26 1
    25   11   12 ar
    26   11   45 1
    27   12   13 1
    28   13   14 1
    29   13   46 1
    30   13   47 1
    31   14   15 1
    32   14   48 1
    33   14   49 1
    34   15   16 1
    35   15   17 1
    36   17   18 1
    37   17   19 1
    38   19   20 1
    39   19   50 1
    40   19   51 1
    41   20   21 1
    42   20   52 1
    43   20   53 1
    44   21   22 1
    45   21   23 1
    46   23   24 1
    47   24   25 2
    48   24   62 1
    49   24   63 1
    50   26   27 1
    51   27   28 2
    52   27   29 am
    53   29   30 1
    54   29   33 1
    55   30   31 1
    56   30   54 1
    57   30   55 1
    58   31   32 1
    59   31   56 1
    60   31   57 1
    61   33   34 1
    62   33   58 1
    63   33   59 1
    64   34   35 1
    65   34   60 1
    66   34   61 1
@<TRIPOS>MOLECULE
ZINC09659749
   47    50     0     0     0
SMALL
USER_CHARGES
4-[3-(4-nitrophenyl)-5-oxo-1-phenyl-pyrazol-4-ylidene]aminoaminobenzenesulfonic acid
@<TRIPOS>ATOM
      1 C1          5.4817   -4.4545   -0.0741 C.ar      1 <0>        -0.1345
      2 C2          4.1162   -4.2362   -0.0599 C.ar      1 <0>        -0.0981
      3 C3          3.6217   -2.9468   -0.0483 C.ar      1 <0>        -0.1286
      4 C4          4.4974   -1.8687   -0.0509 C.ar      1 <0>         0.1667
      5 C5          5.8682   -2.0914   -0.0709 C.ar      1 <0>        -0.1468
      6 C6          6.3563   -3.3833   -0.0762 C.ar      1 <0>        -0.0935
      7 N1          3.9994   -0.5604   -0.0391 N.am      1 <0>        -0.3916
      8 C7          4.7596    0.5527   -0.0404 C.2       1 <0>         0.5205
      9 O1          5.9770    0.6075   -0.0523 O.2       1 <0>        -0.5044
     10 C8          3.8236    1.6886   -0.0254 C.2       1 <0>        -0.1340
     11 N2          4.1188    2.9742   -0.0213 N.2       1 <0>        -0.0539
     12 N3          5.3520    3.3528   -0.0310 N.pl3     1 <0>        -0.4347
     13 C9          5.6642    4.7123   -0.0267 C.ar      1 <0>         0.1502
     14 C10         4.6479    5.6606   -0.0177 C.ar      1 <0>        -0.1489
     15 C11         4.9610    7.0054   -0.0087 C.ar      1 <0>        -0.0057
     16 C12         6.2837    7.4094   -0.0187 C.ar      1 <0>        -0.6615
     17 C13         7.2976    6.4688   -0.0333 C.ar      1 <0>        -0.0025
     18 C14         6.9924    5.1222   -0.0372 C.ar      1 <0>        -0.1587
     19 S1          6.6781    9.1267   -0.0132 S.o2      1 <0>         2.6952
     20 O2          5.5606    9.7983    0.5519 O.2       1 <0>        -1.0511
     21 O3          7.9879    9.2408    0.5258 O.2       1 <0>        -1.0526
     22 C15         2.4801    1.0723   -0.0158 C.2       1 <0>         0.2123
     23 N4          2.6465   -0.2236   -0.0187 N.2       1 <0>        -0.2148
     24 C16         1.1848    1.7909    0.0004 C.ar      1 <0>         0.0230
     25 C17        -0.0126    1.0758    0.0080 C.ar      1 <0>        -0.0803
     26 C18        -1.2160    1.7508    0.0173 C.ar      1 <0>        -0.0576
     27 C19        -1.2363    3.1341    0.0293 C.ar      1 <0>        -0.0297
     28 C20        -0.0519    3.8490    0.0223 C.ar      1 <0>        -0.0526
     29 C21         1.1577    3.1853    0.0076 C.ar      1 <0>        -0.0805
     30 N5         -2.5307    3.8522    0.0450 N.pl3     1 <0>         0.0251
     31 O4         -2.5515    5.0700    0.0517 O.2       1 <0>        -0.1505
     32 O5         -3.5749    3.2253    0.0512 O.3       1 <0>        -0.1588
     33 H1          5.8659   -5.4638   -0.0831 H         1 <0>         0.1264
     34 H2          3.4358   -5.0749   -0.0583 H         1 <0>         0.1305
     35 H3          2.5552   -2.7769   -0.0376 H         1 <0>         0.1365
     36 H4          6.5517   -1.2552   -0.0778 H         1 <0>         0.1526
     37 H5          7.4222   -3.5572   -0.0873 H         1 <0>         0.1309
     38 H6          6.0621    2.6921   -0.0413 H         1 <0>         0.4148
     39 H7          3.6148    5.3459   -0.0141 H         1 <0>         0.1365
     40 H8          4.1719    7.7427    0.0025 H         1 <0>         0.1478
     41 H9          8.3293    6.7880   -0.0415 H         1 <0>         0.1479
     42 H10         7.7847    4.3883   -0.0487 H         1 <0>         0.1325
     43 H11         0.0021   -0.0041    0.0020 H         1 <0>         0.1583
     44 H12        -2.1439    1.1982    0.0187 H         1 <0>         0.1605
     45 H13        -0.0741    4.9288    0.0279 H         1 <0>         0.1646
     46 H14         2.0817    3.7444    0.0014 H         1 <0>         0.1642
     47 O6          6.7650    9.5730   -1.4657 O.3       1 <0>        -1.0714
@<TRIPOS>BOND
     1    1    6 ar
     2    1    2 ar
     3    1   33 1
     4    2    3 ar
     5    2   34 1
     6    3    4 ar
     7    3   35 1
     8    4    5 ar
     9    4    7 1
    10    5    6 ar
    11    5   36 1
    12    6   37 1
    13    7   23 1
    14    7    8 am
    15    8    9 2
    16    8   10 1
    17   10   11 2
    18   10   22 1
    19   11   12 1
    20   12   13 1
    21   12   38 1
    22   13   18 ar
    23   13   14 ar
    24   14   15 ar
    25   14   39 1
    26   15   16 ar
    27   15   40 1
    28   16   17 ar
    29   16   19 1
    30   17   18 ar
    31   17   41 1
    32   18   42 1
    33   19   20 2
    34   19   21 2
    35   19   47 1
    36   22   23 2
    37   22   24 1
    38   24   29 ar
    39   24   25 ar
    40   25   26 ar
    41   25   43 1
    42   26   27 ar
    43   26   44 1
    44   27   28 ar
    45   27   30 1
    46   28   29 ar
    47   28   45 1
    48   29   46 1
    49   30   31 2
    50   30   32 1
@<TRIPOS>MOLECULE
ZINC04016142
   31    32     0     0     0
SMALL
USER_CHARGES
1-(2-methyl-4,5-disulfo-phenyl)-5-oxo-4H-pyrazole-3-carboxylic acid
@<TRIPOS>ATOM
      1 C1          3.9638    0.1889    5.2645 C.3       1 <0>        -0.0986
      2 C2          3.3314    0.5469    3.9443 C.ar      1 <0>        -0.0781
      3 C3          2.6599    1.7455    3.8017 C.ar      1 <0>        -0.0530
      4 C4          2.0839    2.0770    2.5892 C.ar      1 <0>        -0.5703
      5 C5          2.1682    1.2052    1.5188 C.ar      1 <0>        -0.5794
      6 C6          2.8381    0.0053    1.6547 C.ar      1 <0>        -0.0426
      7 C7          3.4228   -0.3281    2.8698 C.ar      1 <0>         0.1439
      8 N1          4.1030   -1.5436    3.0109 N.am      1 <0>        -0.4211
      9 C8          3.5652   -2.7516    2.7464 C.2       1 <0>         0.4891
     10 O1          2.4416   -2.9859    2.3559 O.2       1 <0>        -0.4969
     11 C9          4.6640   -3.7546    3.0385 C.3       1 <0>        -0.1537
     12 C10         5.8236   -2.8935    3.4940 C.2       1 <0>         0.0581
     13 N2          5.4192   -1.6607    3.4476 N.2       1 <0>        -0.1806
     14 C11         7.1488   -3.3622    3.9079 C.2       1 <0>         0.5337
     15 O2          7.4011   -4.5517    3.9056 O.co2     1 <0>        -0.6223
     16 S1          1.4262    1.6291   -0.0221 S.o2      1 <0>         2.6764
     17 O3          2.0028    0.7738   -0.9995 O.2       1 <0>        -1.0715
     18 O4          1.4796    3.0456   -0.1225 O.2       1 <0>        -1.0284
     19 S2          1.2344    3.6102    2.4095 S.o2      1 <0>         2.7037
     20 O5          2.1593    4.5217    1.8324 O.2       1 <0>        -1.0397
     21 O6         -0.0180    3.3124    1.8078 O.2       1 <0>        -1.0181
     22 H1          4.9898    0.5564    5.2874 H         1 <0>         0.0765
     23 H2          3.3960    0.6457    6.0751 H         1 <0>         0.0625
     24 H3          3.9631   -0.8943    5.3859 H         1 <0>         0.0555
     25 H4          2.5889    2.4266    4.6368 H         1 <0>         0.1405
     26 H5          2.9076   -0.6729    0.8171 H         1 <0>         0.1335
     27 H6          4.9294   -4.3101    2.1390 H         1 <0>         0.1321
     28 H7          4.3580   -4.4362    3.8321 H         1 <0>         0.1300
     29 O7          8.0887   -2.4742    4.2916 O.co2     1 <0>        -0.7232
     30 O8         -0.0462    1.2548    0.0694 O.3       1 <0>        -1.0445
     31 O9          0.9329    4.1245    3.8098 O.3       1 <0>        -1.1133
@<TRIPOS>BOND
     1    1    2 1
     2    1   22 1
     3    1   23 1
     4    1   24 1
     5    2    7 ar
     6    2    3 ar
     7    3    4 ar
     8    3   25 1
     9    4    5 ar
    10    4   19 1
    11    5    6 ar
    12    5   16 1
    13    6    7 ar
    14    6   26 1
    15    7    8 1
    16    8   13 1
    17    8    9 am
    18    9   10 2
    19    9   11 1
    20   11   12 1
    21   11   27 1
    22   11   28 1
    23   12   13 2
    24   12   14 1
    25   14   15 2
    26   14   29 1
    27   16   17 2
    28   16   18 2
    29   16   30 1
    30   19   20 2
    31   19   21 2
    32   19   31 1
@<TRIPOS>MOLECULE
ZINC19203131
   79    83     0     0     0
SMALL
USER_CHARGES

@<TRIPOS>ATOM
      1 C1          0.4728    1.2638   -2.5373 C.3       1 <0>        -0.1453
      2 C2          0.5659   -0.2603   -2.5689 C.3       1 <0>        -0.0436
      3 C3         -0.7274   -0.8397   -3.1412 C.3       1 <0>        -0.1021
      4 C4         -1.9076   -0.5242   -2.2273 C.3       1 <0>        -0.0883
      5 C5         -1.6737   -1.0494   -0.8135 C.3       1 <0>        -0.1254
      6 C6         -0.3635   -0.5044   -0.2441 C.3       1 <0>        -0.0766
      7 C7          0.8019   -0.8177   -1.1676 C.3       1 <0>        -0.0495
      8 H1          0.9219   -1.9079   -1.2407 H         1 <0>         0.0798
      9 C8          2.0968   -0.2452   -0.6259 C.2       1 <0>        -0.0068
     10 C9          2.0888    0.2608    0.6067 C.2       1 <0>        -0.2597
     11 C10         3.3159    0.8078    1.2119 C.2       1 <0>         0.3996
     12 O1          3.2472    1.4848    2.2154 O.2       1 <0>        -0.4514
     13 C11         4.6120    0.4416    0.5262 C.3       1 <0>        -0.1125
     14 H2          4.7766   -0.6430    0.7099 H         1 <0>         0.0950
     15 C12         5.8177    1.1540    1.1304 C.3       1 <0>        -0.0230
     16 C13         6.0278    0.6085    2.5540 C.3       1 <0>        -0.1166
     17 C14         7.2812    1.2327    3.1599 C.3       1 <0>        -0.1468
     18 C15         8.5107    0.8346    2.3542 C.3       1 <0>         0.1188
     19 H3          8.6616   -0.2474    2.4399 H         1 <0>         0.0474
     20 C16         8.3805    1.1993    0.8761 C.3       1 <0>        -0.0368
     21 C17         7.0445    0.7997    0.2951 C.3       1 <0>        -0.0597
     22 H4          7.0507   -0.3175    0.2270 H         1 <0>         0.0593
     23 C18         6.8452    1.2956   -1.1367 C.3       1 <0>        -0.1137
     24 C19         5.7031    0.4800   -1.7608 C.3       1 <0>        -0.1071
     25 C20         4.4163    0.6494   -0.9686 C.3       1 <0>        -0.0216
     26 C21         3.3288   -0.2993   -1.4852 C.3       1 <0>        -0.0139
     27 C22         3.0390   -0.0304   -2.9542 C.3       1 <0>        -0.1046
     28 C23         1.7502   -0.6848   -3.4418 C.3       1 <0>        -0.1101
     29 C24         3.8613   -1.7371   -1.3874 C.3       1 <0>        -0.1491
     30 C25         3.8884    2.0744   -1.2110 C.3       1 <0>        -0.1707
     31 C26         9.4833    0.4010    0.1348 C.3       1 <0>        -0.1463
     32 C27         8.6956    2.6818    0.6756 C.3       1 <0>        -0.1327
     33 O2          9.6631    1.4926    2.8961 O.3       1 <0>        -0.5663
     34 C28         5.6034    2.6605    1.2285 C.3       1 <0>        -0.1601
     35 C29        -1.6538   -2.5782   -0.8159 C.3       1 <0>        -0.1185
     36 C30        -2.8131   -0.5861    0.0688 C.2       1 <0>         0.4997
     37 O3         -3.9583   -0.9123   -0.1929 O.co2     1 <0>        -0.7001
     38 O4         -2.5855    0.1133    1.0412 O.co2     1 <0>        -0.6966
     39 H5          1.4030    1.6767   -2.1470 H         1 <0>         0.0565
     40 H6          0.3044    1.6385   -3.5470 H         1 <0>         0.0486
     41 H7         -0.3555    1.5640   -1.8956 H         1 <0>         0.0641
     42 H8         -0.9070   -0.3913   -4.1254 H         1 <0>         0.0521
     43 H9         -0.6208   -1.9161   -3.2703 H         1 <0>         0.0580
     44 H10        -2.0885    0.5497   -2.1934 H         1 <0>         0.0539
     45 H11        -2.8078   -1.0027   -2.6337 H         1 <0>         0.0579
     46 H12        -0.4517    0.5698   -0.0832 H         1 <0>         0.0694
     47 H13        -0.1860   -0.9801    0.7303 H         1 <0>         0.0545
     48 H14         1.1756    0.2770    1.1841 H         1 <0>         0.1443
     49 H15         5.1612    0.8568    3.1640 H         1 <0>         0.0820
     50 H16         6.1422   -0.4741    2.5041 H         1 <0>         0.0567
     51 H17         7.1963    2.3129    3.2228 H         1 <0>         0.0774
     52 H18         7.3962    0.8516    4.1861 H         1 <0>         0.0560
     53 H19         6.6122    2.3509   -1.1698 H         1 <0>         0.0709
     54 H20         7.7484    1.1145   -1.7252 H         1 <0>         0.0629
     55 H21         5.5508    0.8257   -2.7879 H         1 <0>         0.0676
     56 H22         6.0226   -0.5618   -1.7899 H         1 <0>         0.0668
     57 H23         3.0207    1.0230   -3.2073 H         1 <0>         0.0738
     58 H24         3.8698   -0.4674   -3.5442 H         1 <0>         0.0569
     59 H25         1.8467   -1.7704   -3.4156 H         1 <0>         0.0606
     60 H26         1.5557   -0.3753   -4.4732 H         1 <0>         0.0615
     61 H27         3.1022   -2.4310   -1.7484 H         1 <0>         0.0616
     62 H28         4.7605   -1.8337   -1.9958 H         1 <0>         0.0639
     63 H29         4.0989   -1.9667   -0.3487 H         1 <0>         0.0560
     64 H30         4.6488    2.7983   -0.9179 H         1 <0>         0.0676
     65 H31         3.6551    2.2005   -2.2683 H         1 <0>         0.0645
     66 H32         2.9874    2.2339   -0.6186 H         1 <0>         0.0600
     67 H33         9.3261   -0.6663    0.2905 H         1 <0>         0.0486
     68 H34         9.4381    0.6231   -0.9314 H         1 <0>         0.0555
     69 H35        10.4611    0.6848    0.5239 H         1 <0>         0.0593
     70 H36         9.7493    2.8614    0.8889 H         1 <0>         0.0584
     71 H37         8.4806    2.9627   -0.3554 H         1 <0>         0.0517
     72 H38         8.0815    3.2782    1.3503 H         1 <0>         0.0569
     73 H39         9.8421    1.2742    3.8210 H         1 <0>         0.3732
     74 H40         4.6128    2.8608    1.6367 H         1 <0>         0.0742
     75 H41         6.3602    3.0933    1.8827 H         1 <0>         0.0601
     76 H42         5.6841    3.1044    0.2362 H         1 <0>         0.0592
     77 H43        -0.8518   -2.9301   -1.4649 H         1 <0>         0.0380
     78 H44        -1.4862   -2.9410    0.1982 H         1 <0>         0.0413
     79 H45        -2.6091   -2.9534   -1.1829 H         1 <0>         0.0539
@<TRIPOS>BOND
     1    1    2 1
     2    1   39 1
     3    1   40 1
     4    1   41 1
     5    2    7 1
     6    2   28 1
     7    2    3 1
     8    3    4 1
     9    3   42 1
    10    3   43 1
    11    4    5 1
    12    4   44 1
    13    4   45 1
    14    5    6 1
    15    5   35 1
    16    5   36 1
    17    6    7 1
    18    6   46 1
    19    6   47 1
    20    7    8 1
    21    7    9 1
    22    9   26 1
    23    9   10 2
    24   10   11 1
    25   10   48 1
    26   11   12 2
    27   11   13 1
    28   13   14 1
    29   13   25 1
    30   13   15 1
    31   15   21 1
    32   15   16 1
    33   15   34 1
    34   16   17 1
    35   16   49 1
    36   16   50 1
    37   17   18 1
    38   17   51 1
    39   17   52 1
    40   18   19 1
    41   18   20 1
    42   18   33 1
    43   20   21 1
    44   20   31 1
    45   20   32 1
    46   21   22 1
    47   21   23 1
    48   23   24 1
    49   23   53 1
    50   23   54 1
    51   24   25 1
    52   24   55 1
    53   24   56 1
    54   25   26 1
    55   25   30 1
    56   26   27 1
    57   26   29 1
    58   27   28 1
    59   27   57 1
    60   27   58 1
    61   28   59 1
    62   28   60 1
    63   29   61 1
    64   29   62 1
    65   29   63 1
    66   30   64 1
    67   30   65 1
    68   30   66 1
    69   31   67 1
    70   31   68 1
    71   31   69 1
    72   32   70 1
    73   32   71 1
    74   32   72 1
    75   33   73 1
    76   34   74 1
    77   34   75 1
    78   34   76 1
    79   35   77 1
    80   35   78 1
    81   35   79 1
    82   36   37 2
    83   36   38 1
@<TRIPOS>MOLECULE
ZINC19203131
   79    83     0     0     0
SMALL
USER_CHARGES

@<TRIPOS>ATOM
      1 C1          0.6456    1.7280   -2.5152 C.3       1 <0>        -0.1468
      2 C2          0.6518    0.1970   -2.6000 C.3       1 <0>        -0.0447
      3 C3         -0.6848   -0.2429   -3.1979 C.3       1 <0>        -0.1006
      4 C4         -0.7983   -1.7627   -3.2148 C.3       1 <0>        -0.0867
      5 C5         -0.6469   -2.3346   -1.8057 C.3       1 <0>        -0.1308
      6 C6          0.6905   -1.8984   -1.2096 C.3       1 <0>        -0.0666
      7 C7          0.8269   -0.3802   -1.1995 C.3       1 <0>        -0.0489
      8 H1          0.0653    0.0529   -0.5359 H         1 <0>         0.1118
      9 C8          2.1956   -0.0004   -0.6658 C.2       1 <0>         0.0093
     10 C9          2.2431    0.3732    0.6187 C.2       1 <0>        -0.2654
     11 C10         3.5050    0.7729    1.2574 C.2       1 <0>         0.4015
     12 O1          3.4908    1.2728    2.3648 O.2       1 <0>        -0.4605
     13 C11         4.7755    0.5041    0.4842 C.3       1 <0>        -0.1130
     14 H2          4.9710   -0.5882    0.5585 H         1 <0>         0.0967
     15 C12         5.9968    1.1756    1.1081 C.3       1 <0>        -0.0223
     16 C13         6.2668    0.5019    2.4653 C.3       1 <0>        -0.1186
     17 C14         7.5457    1.0708    3.0731 C.3       1 <0>        -0.1465
     18 C15         8.7380    0.7505    2.1811 C.3       1 <0>         0.1179
     19 H3          8.8771   -0.3354    2.1410 H         1 <0>         0.0474
     20 C16         8.5467    1.2746    0.7575 C.3       1 <0>        -0.0367
     21 C17         7.1909    0.9192    0.1935 C.3       1 <0>        -0.0601
     22 H4          7.2045   -0.1851    0.0186 H         1 <0>         0.0594
     23 C18         6.9293    1.5468   -1.1745 C.3       1 <0>        -0.1134
     24 C19         5.7696    0.7824   -1.8319 C.3       1 <0>        -0.1067
     25 C20         4.5187    0.8570   -0.9725 C.3       1 <0>        -0.0239
     26 C21         3.4148   -0.0527   -1.5342 C.3       1 <0>        -0.0148
     27 C22         3.1328    0.2991   -2.9871 C.3       1 <0>        -0.1033
     28 C23         1.8055   -0.2685   -3.4816 C.3       1 <0>        -0.1081
     29 C24         3.9437   -1.4937   -1.5089 C.3       1 <0>        -0.1536
     30 C25         3.9623    2.2877   -1.0594 C.3       1 <0>        -0.1702
     31 C26         9.6271    0.5811   -0.1099 C.3       1 <0>        -0.1461
     32 C27         8.8355    2.7751    0.7129 C.3       1 <0>        -0.1331
     33 O2          9.9195    1.3359    2.7401 O.3       1 <0>        -0.5661
     34 C28         5.7635    2.6614    1.3574 C.3       1 <0>        -0.1571
     35 C29        -0.6693   -3.8687   -1.8928 C.3       1 <0>        -0.1216
     36 C30        -1.7831   -1.8866   -0.9274 C.2       1 <0>         0.5075
     37 O3         -2.9311   -2.1716   -1.2230 O.co2     1 <0>        -0.7014
     38 O4         -1.5560   -1.2384    0.0799 O.co2     1 <0>        -0.6930
     39 H5          1.5894    2.0723   -2.0923 H         1 <0>         0.0573
     40 H6          0.5207    2.1467   -3.5138 H         1 <0>         0.0482
     41 H7         -0.1776    2.0534   -1.8792 H         1 <0>         0.0546
     42 H8         -1.5018    0.1991   -2.6316 H         1 <0>         0.0653
     43 H9         -0.7422    0.1284   -4.2285 H         1 <0>         0.0478
     44 H10        -1.7739   -2.0497   -3.6162 H         1 <0>         0.0592
     45 H11        -0.0202   -2.1807   -3.8586 H         1 <0>         0.0444
     46 H12         0.7656   -2.2770   -0.1853 H         1 <0>         0.0555
     47 H13         1.4905   -2.3449   -1.8038 H         1 <0>         0.0434
     48 H14         1.3291    0.3819    1.1968 H         1 <0>         0.1347
     49 H15         5.4279    0.6968    3.1338 H         1 <0>         0.0852
     50 H16         6.3728   -0.5717    2.3148 H         1 <0>         0.0565
     51 H17         7.4651    2.1408    3.2332 H         1 <0>         0.0764
     52 H18         7.7039    0.5997    4.0543 H         1 <0>         0.0559
     53 H19         6.6826    2.5986   -1.0936 H         1 <0>         0.0701
     54 H20         7.8089    1.4405   -1.8139 H         1 <0>         0.0628
     55 H21         5.5698    1.2324   -2.8096 H         1 <0>         0.0677
     56 H22         6.0904   -0.2480   -1.9838 H         1 <0>         0.0670
     57 H23         3.1728    1.3627   -3.1865 H         1 <0>         0.0715
     58 H24         3.9326   -0.1572   -3.6049 H         1 <0>         0.0561
     59 H25         1.8481   -1.3584   -3.4851 H         1 <0>         0.0668
     60 H26         1.6326    0.0715   -4.5080 H         1 <0>         0.0575
     61 H27         3.1774   -2.1687   -1.8900 H         1 <0>         0.0693
     62 H28         4.8340   -1.5650   -2.1336 H         1 <0>         0.0628
     63 H29         4.1952   -1.7705   -0.4850 H         1 <0>         0.0558
     64 H30         4.7333    2.9963   -0.7568 H         1 <0>         0.0655
     65 H31         3.6583    2.4976   -2.0849 H         1 <0>         0.0648
     66 H32         3.1011    2.3834   -0.3983 H         1 <0>         0.0605
     67 H33         9.4879   -0.4992   -0.0686 H         1 <0>         0.0487
     68 H34         9.5371    0.9199   -1.1420 H         1 <0>         0.0555
     69 H35        10.6165    0.8347    0.2707 H         1 <0>         0.0594
     70 H36         9.8913    2.9483    0.9212 H         1 <0>         0.0585
     71 H37         8.5919    3.1627   -0.2763 H         1 <0>         0.0516
     72 H38         8.2291    3.2842    1.4620 H         1 <0>         0.0568
     73 H39        10.1330    1.0190    3.6284 H         1 <0>         0.3731
     74 H40         4.7879    2.8030    1.8225 H         1 <0>         0.0701
     75 H41         6.5404    3.0452    2.0186 H         1 <0>         0.0597
     76 H42         5.7954    3.1983    0.4094 H         1 <0>         0.0596
     77 H43         0.1537   -4.2090   -2.5213 H         1 <0>         0.0357
     78 H44        -0.5621   -4.2909   -0.8937 H         1 <0>         0.0427
     79 H45        -1.6154   -4.1942   -2.3252 H         1 <0>         0.0551
@<TRIPOS>BOND
     1    1    2 1
     2    1   39 1
     3    1   40 1
     4    1   41 1
     5    2    7 1
     6    2   28 1
     7    2    3 1
     8    3    4 1
     9    3   42 1
    10    3   43 1
    11    4    5 1
    12    4   44 1
    13    4   45 1
    14    5    6 1
    15    5   35 1
    16    5   36 1
    17    6    7 1
    18    6   46 1
    19    6   47 1
    20    7    8 1
    21    7    9 1
    22    9   26 1
    23    9   10 2
    24   10   11 1
    25   10   48 1
    26   11   12 2
    27   11   13 1
    28   13   14 1
    29   13   25 1
    30   13   15 1
    31   15   21 1
    32   15   16 1
    33   15   34 1
    34   16   17 1
    35   16   49 1
    36   16   50 1
    37   17   18 1
    38   17   51 1
    39   17   52 1
    40   18   19 1
    41   18   20 1
    42   18   33 1
    43   20   21 1
    44   20   31 1
    45   20   32 1
    46   21   22 1
    47   21   23 1
    48   23   24 1
    49   23   53 1
    50   23   54 1
    51   24   25 1
    52   24   55 1
    53   24   56 1
    54   25   26 1
    55   25   30 1
    56   26   27 1
    57   26   29 1
    58   27   28 1
    59   27   57 1
    60   27   58 1
    61   28   59 1
    62   28   60 1
    63   29   61 1
    64   29   62 1
    65   29   63 1
    66   30   64 1
    67   30   65 1
    68   30   66 1
    69   31   67 1
    70   31   68 1
    71   31   69 1
    72   32   70 1
    73   32   71 1
    74   32   72 1
    75   33   73 1
    76   34   74 1
    77   34   75 1
    78   34   76 1
    79   35   77 1
    80   35   78 1
    81   35   79 1
    82   36   37 2
    83   36   38 1
@<TRIPOS>MOLECULE
ZINC19795938
   70    74     0     0     0
SMALL
USER_CHARGES

@<TRIPOS>ATOM
      1 C1        -12.4049    2.0278   -1.3259 C.3       1 <0>        -0.1088
      2 C2        -11.2432    1.0883   -1.5171 C.2       1 <0>        -0.0614
      3 C3        -11.3743    0.0410   -2.3725 C.2       1 <0>         0.0009
      4 C4        -10.2845   -0.8306   -2.5916 C.2       1 <0>         0.3824
      5 O1        -10.4174   -1.8053   -3.3180 O.2       1 <0>        -0.4987
      6 C5         -9.0435   -0.5717   -1.9793 C.2       1 <0>        -0.2558
      7 C6         -8.9124    0.4583   -1.1031 C.2       1 <0>         0.0326
      8 C7        -10.0350    1.2666   -0.8004 C.2       1 <0>        -0.1225
      9 C8         -9.9415    2.2203    0.2157 C.2       1 <0>         0.0273
     10 C9         -8.7707    2.3245    0.9779 C.2       1 <0>        -0.2062
     11 C10        -7.6609    1.6271    0.7055 C.2       1 <0>         0.0258
     12 C11        -7.5604    0.7314   -0.4931 C.3       1 <0>        -0.0014
     13 C12        -6.8770   -0.5893   -0.1596 C.3       1 <0>        -0.0977
     14 C13        -5.6736   -0.4130    0.7612 C.3       1 <0>        -0.1173
     15 C14        -6.0604    0.3382    2.0406 C.3       1 <0>        -0.0201
     16 C15        -6.4828    1.7587    1.6492 C.3       1 <0>        -0.0218
     17 C16        -6.8890    2.5162    2.9124 C.3       1 <0>        -0.1075
     18 C17        -5.6835    2.6488    3.8346 C.3       1 <0>        -0.1050
     19 C18        -5.0880    1.2946    4.2117 C.3       1 <0>        -0.0395
     20 C19        -4.9108    0.3649    3.0296 C.3       1 <0>        -0.0371
     21 H1         -4.0361    0.7925    2.4575 H         1 <0>         0.0426
     22 C20        -4.4489   -1.0242    3.4190 C.3       1 <0>        -0.0956
     23 C21        -4.8581   -1.5886    4.7588 C.3       1 <0>        -0.1169
     24 C22        -5.2365   -0.5960    5.8400 C.3       1 <0>        -0.0949
     25 C23        -5.9152    0.6562    5.3186 C.3       1 <0>        -0.0984
     26 C24        -3.6448   -2.3985    5.2939 C.3       1 <0>        -0.1274
     27 C25        -5.9768   -2.5991    4.5823 C.2       1 <0>         0.5064
     28 O2         -6.6860   -2.8949    5.5289 O.co2     1 <0>        -0.6987
     29 O3         -6.1663   -3.1149    3.4940 O.co2     1 <0>        -0.6900
     30 C26        -3.6836    1.5948    4.7871 C.3       1 <0>        -0.1442
     31 C27        -5.3389    2.5220    0.9798 C.3       1 <0>        -0.1477
     32 C28        -7.2810   -0.3781    2.6374 C.3       1 <0>        -0.1633
     33 C29        -6.7499    1.4270   -1.5938 C.3       1 <0>        -0.1367
     34 O4        -12.5602   -0.1646   -3.0110 O.3       1 <0>        -0.4690
     35 H2        -12.3257    2.8524   -2.0343 H         1 <0>         0.0720
     36 H3        -13.3381    1.4909   -1.4960 H         1 <0>         0.0757
     37 H4        -12.3915    2.4199   -0.3089 H         1 <0>         0.0658
     38 H5         -8.1912   -1.1918   -2.2233 H         1 <0>         0.1409
     39 H6        -10.7573    2.8893    0.4364 H         1 <0>         0.1359
     40 H7         -8.7763    3.0047    1.8178 H         1 <0>         0.1353
     41 H8         -7.5909   -1.2970    0.2548 H         1 <0>         0.0798
     42 H9         -6.5118   -1.0292   -1.1054 H         1 <0>         0.0656
     43 H10        -5.3126   -1.4097    1.0483 H         1 <0>         0.0839
     44 H11        -4.8605    0.0892    0.2484 H         1 <0>         0.0603
     45 H12        -7.2256    3.5215    2.6221 H         1 <0>         0.0565
     46 H13        -7.7078    2.0245    3.4236 H         1 <0>         0.0721
     47 H14        -4.9232    3.2907    3.3971 H         1 <0>         0.0620
     48 H15        -6.0169    3.1378    4.7667 H         1 <0>         0.0538
     49 H16        -4.7822   -1.7341    2.6379 H         1 <0>         0.0861
     50 H17        -3.3426   -1.0520    3.3465 H         1 <0>         0.0301
     51 H18        -5.9404   -1.0980    6.5343 H         1 <0>         0.0703
     52 H19        -4.3561   -0.3356    6.4406 H         1 <0>         0.0401
     53 H20        -5.9808    1.3833    6.1492 H         1 <0>         0.0405
     54 H21        -6.9309    0.4562    4.9983 H         1 <0>         0.0696
     55 H22        -2.7845   -1.7375    5.3988 H         1 <0>         0.0366
     56 H23        -3.8940   -2.8275    6.2645 H         1 <0>         0.0463
     57 H24        -3.4049   -3.1988    4.5938 H         1 <0>         0.0445
     58 H25        -3.7791    2.2408    5.6599 H         1 <0>         0.0470
     59 H26        -3.2026    0.6608    5.0773 H         1 <0>         0.0614
     60 H27        -3.0798    2.0945    4.0296 H         1 <0>         0.0447
     61 H28        -5.6342    3.5603    0.8289 H         1 <0>         0.0537
     62 H29        -4.4552    2.4845    1.6168 H         1 <0>         0.0701
     63 H30        -5.1120    2.0652    0.0165 H         1 <0>         0.0656
     64 H31        -7.1809   -1.4531    2.4869 H         1 <0>         0.0918
     65 H32        -7.3416   -0.1648    3.7046 H         1 <0>         0.0660
     66 H33        -8.1866   -0.0250    2.1442 H         1 <0>         0.0360
     67 H34        -7.1355    2.4349   -1.7470 H         1 <0>         0.0595
     68 H35        -5.7028    1.4799   -1.2956 H         1 <0>         0.0779
     69 H36        -6.8354    0.8604   -2.5211 H         1 <0>         0.0692
     70 H37       -12.5622   -0.9319   -3.5995 H         1 <0>         0.3991
@<TRIPOS>BOND
     1    1    2 1
     2    1   35 1
     3    1   36 1
     4    1   37 1
     5    2    8 1
     6    2    3 2
     7    3    4 1
     8    3   34 1
     9    4    5 2
    10    4    6 1
    11    6    7 2
    12    6   38 1
    13    7   12 1
    14    7    8 1
    15    8    9 2
    16    9   10 1
    17    9   39 1
    18   10   11 2
    19   10   40 1
    20   11   16 1
    21   11   12 1
    22   12   13 1
    23   12   33 1
    24   13   14 1
    25   13   41 1
    26   13   42 1
    27   14   15 1
    28   14   43 1
    29   14   44 1
    30   15   20 1
    31   15   16 1
    32   15   32 1
    33   16   17 1
    34   16   31 1
    35   17   18 1
    36   17   45 1
    37   17   46 1
    38   18   19 1
    39   18   47 1
    40   18   48 1
    41   19   25 1
    42   19   20 1
    43   19   30 1
    44   20   21 1
    45   20   22 1
    46   22   23 1
    47   22   49 1
    48   22   50 1
    49   23   24 1
    50   23   26 1
    51   23   27 1
    52   24   25 1
    53   24   51 1
    54   24   52 1
    55   25   53 1
    56   25   54 1
    57   26   55 1
    58   26   56 1
    59   26   57 1
    60   27   28 2
    61   27   29 1
    62   30   58 1
    63   30   59 1
    64   30   60 1
    65   31   61 1
    66   31   62 1
    67   31   63 1
    68   32   64 1
    69   32   65 1
    70   32   66 1
    71   33   67 1
    72   33   68 1
    73   33   69 1
    74   34   70 1
@<TRIPOS>MOLECULE
ZINC22445353
   58    62     0     0     0
SMALL
USER_CHARGES
3-[[4-[(4-phenylphenyl)methyl]piperazin-1-yl]methyl]pyrimido[5,6-e][1,2,4]triazine-5,7-diamine
@<TRIPOS>ATOM
      1 C1         -7.8620   -2.9643    1.4573 C.ar      1 <0>        -0.1112
      2 C2         -7.0069   -2.7288    2.5188 C.ar      1 <0>        -0.1165
      3 C3         -5.7331   -2.2498    2.2890 C.ar      1 <0>        -0.1071
      4 C4         -5.3090   -2.0033    0.9848 C.ar      1 <0>        -0.0595
      5 C5         -6.1763   -2.2372   -0.0803 C.ar      1 <0>        -0.1084
      6 C6         -7.4461   -2.7213    0.1606 C.ar      1 <0>        -0.1173
      7 C7         -3.9407   -1.4877    0.7316 C.ar      1 <0>        -0.0267
      8 C8         -3.5166   -1.2413   -0.5725 C.ar      1 <0>        -0.1117
      9 C9         -2.2428   -0.7622   -0.8023 C.ar      1 <0>        -0.1137
     10 C10        -1.3878   -0.5267    0.2592 C.ar      1 <0>        -0.0976
     11 C11        -1.8018   -0.7746    1.5555 C.ar      1 <0>        -0.0883
     12 C12        -3.0753   -1.2487    1.7972 C.ar      1 <0>        -0.1100
     13 C13         0.0021   -0.0041    0.0020 C.3       1 <0>         0.0973
     14 N1         -0.0178    1.4648    0.0101 N.3       1 <0>        -0.5322
     15 C14        -0.7990    1.9871   -1.1198 C.3       1 <0>         0.0236
     16 C15        -0.8618    3.5137   -1.0307 C.3       1 <0>         0.0035
     17 N2          0.5028    4.0590   -1.0408 N.4       1 <0>        -0.3987
     18 C16         1.2840    3.5367    0.0891 C.3       1 <0>         0.0027
     19 C17         1.3468    2.0100   -0.0000 C.3       1 <0>         0.0253
     20 C18         0.4829    5.5278   -1.0327 C.3       1 <0>         0.0913
     21 C19        -0.5170    6.0222   -2.0461 C.ar      1 <0>         0.1085
     22 N3         -0.1197    6.2536   -3.2804 N.ar      1 <0>        -0.3807
     23 C20        -1.0082    6.6844   -4.1699 C.ar      1 <0>        -0.0222
     24 C21        -0.6659    6.9639   -5.5653 C.ar      1 <0>         0.5514
     25 N4         -1.6357    7.3945   -6.3600 N.ar      1 <0>        -0.6191
     26 C22        -2.8744    7.5667   -5.9076 C.ar      1 <0>         0.6609
     27 N5         -3.2352    7.3300   -4.6619 N.ar      1 <0>        -0.5941
     28 C23        -2.3503    6.8917   -3.7603 C.ar      1 <0>         0.3309
     29 N6         -2.6772    6.6403   -2.4899 N.ar      1 <0>        -0.1570
     30 N7         -1.7733    6.2186   -1.6719 N.ar      1 <0>        -0.1816
     31 N8         -3.8356    8.0187   -6.7913 N.pl3     1 <0>        -0.8084
     32 N9          0.6165    6.7861   -6.0353 N.pl3     1 <0>        -0.8008
     33 H1         -8.8580   -3.3388    1.6416 H         1 <0>         0.1265
     34 H2         -7.3369   -2.9199    3.5293 H         1 <0>         0.1275
     35 H3         -5.0664   -2.0659    3.1186 H         1 <0>         0.1256
     36 H4         -5.8540   -2.0440   -1.0928 H         1 <0>         0.1238
     37 H5         -8.1178   -2.9069   -0.6645 H         1 <0>         0.1267
     38 H6         -4.1835   -1.4244   -1.4020 H         1 <0>         0.1273
     39 H7         -1.9129   -0.5711   -1.8128 H         1 <0>         0.1185
     40 H8         -1.1287   -0.5929    2.3804 H         1 <0>         0.1267
     41 H9         -3.3988   -1.4384    2.8100 H         1 <0>         0.1294
     42 H10         0.6812   -0.3660    0.7881 H         1 <0>         0.0986
     43 H11         0.3524   -0.3607   -0.9779 H         1 <0>         0.0552
     44 H12        -0.3184    1.6934   -2.0647 H         1 <0>         0.0575
     45 H13        -1.8180    1.5744   -1.0830 H         1 <0>         0.1273
     46 H14        -1.4218    3.9085   -1.8912 H         1 <0>         0.1178
     47 H15        -1.3676    3.8061   -0.0987 H         1 <0>         0.1463
     48 H16         2.3030    3.9494    0.0522 H         1 <0>         0.1410
     49 H17         0.8035    3.8304    1.0340 H         1 <0>         0.1411
     50 H18         1.9061    1.6142    0.8605 H         1 <0>         0.1273
     51 H19         1.8520    1.7166   -0.9320 H         1 <0>         0.0612
     52 H20         0.1981    5.8851   -0.0321 H         1 <0>         0.1564
     53 H21         1.4826    5.9095   -1.2875 H         1 <0>         0.1565
     54 H22        -4.8696    8.1714   -6.4485 H         1 <0>         0.4545
     55 H23        -3.5668    8.2258   -7.8377 H         1 <0>         0.4509
     56 H24         0.8514    7.0024   -7.0879 H         1 <0>         0.4536
     57 H25         1.4058    6.4278   -5.3580 H         1 <0>         0.4517
     58 H26         0.9916    3.7339   -1.9711 H         1 <0>         0.4382
@<TRIPOS>BOND
     1    1    6 ar
     2    1    2 ar
     3    1   33 1
     4    2    3 ar
     5    2   34 1
     6    3    4 ar
     7    3   35 1
     8    4    5 ar
     9    4    7 1
    10    5    6 ar
    11    5   36 1
    12    6   37 1
    13    7   12 ar
    14    7    8 ar
    15    8    9 ar
    16    8   38 1
    17    9   10 ar
    18    9   39 1
    19   10   11 ar
    20   10   13 1
    21   11   12 ar
    22   11   40 1
    23   12   41 1
    24   13   14 1
    25   13   42 1
    26   13   43 1
    27   14   19 1
    28   14   15 1
    29   15   16 1
    30   15   44 1
    31   15   45 1
    32   16   17 1
    33   16   46 1
    34   16   47 1
    35   17   18 1
    36   17   20 1
    37   17   58 1
    38   18   19 1
    39   18   48 1
    40   18   49 1
    41   19   50 1
    42   19   51 1
    43   20   21 1
    44   20   52 1
    45   20   53 1
    46   21   30 ar
    47   21   22 ar
    48   22   23 ar
    49   23   28 ar
    50   23   24 ar
    51   24   25 ar
    52   24   32 1
    53   25   26 ar
    54   26   27 ar
    55   26   31 1
    56   27   28 ar
    57   28   29 ar
    58   29   30 ar
    59   31   54 1
    60   31   55 1
    61   32   56 1
    62   32   57 1
@<TRIPOS>MOLECULE
ZINC22445353
   58    62     0     0     0
SMALL
USER_CHARGES
3-[[4-[(4-phenylphenyl)methyl]piperazin-1-yl]methyl]pyrimido[5,6-e][1,2,4]triazine-5,7-diamine
@<TRIPOS>ATOM
      1 C1         -7.8620   -2.9643    1.4573 C.ar      1 <0>        -0.1013
      2 C2         -7.0069   -2.7288    2.5188 C.ar      1 <0>        -0.1174
      3 C3         -5.7331   -2.2498    2.2890 C.ar      1 <0>        -0.1005
      4 C4         -5.3090   -2.0033    0.9848 C.ar      1 <0>        -0.0764
      5 C5         -6.1763   -2.2372   -0.0803 C.ar      1 <0>        -0.1009
      6 C6         -7.4461   -2.7213    0.1606 C.ar      1 <0>        -0.1174
      7 C7         -3.9407   -1.4877    0.7316 C.ar      1 <0>         0.0059
      8 C8         -3.5166   -1.2413   -0.5725 C.ar      1 <0>        -0.1129
      9 C9         -2.2428   -0.7622   -0.8023 C.ar      1 <0>        -0.0891
     10 C10        -1.3878   -0.5267    0.2592 C.ar      1 <0>        -0.1677
     11 C11        -1.8018   -0.7746    1.5555 C.ar      1 <0>        -0.0855
     12 C12        -3.0753   -1.2487    1.7972 C.ar      1 <0>        -0.1125
     13 C13         0.0021   -0.0041    0.0020 C.3       1 <0>         0.0491
     14 N1         -0.0178    1.4648    0.0101 N.4       1 <0>        -0.3999
     15 C14        -0.7990    1.9871   -1.1198 C.3       1 <0>        -0.0010
     16 C15        -0.8618    3.5137   -1.0307 C.3       1 <0>         0.0259
     17 N2          0.5028    4.0590   -1.0408 N.3       1 <0>        -0.5317
     18 C16         1.2840    3.5367    0.0891 C.3       1 <0>         0.0260
     19 C17         1.3468    2.0100   -0.0000 C.3       1 <0>         0.0015
     20 C18         0.4829    5.5278   -1.0327 C.3       1 <0>         0.1368
     21 C19        -0.5170    6.0222   -2.0461 C.ar      1 <0>         0.1699
     22 N3         -0.1197    6.2536   -3.2804 N.ar      1 <0>        -0.3790
     23 C20        -1.0082    6.6844   -4.1699 C.ar      1 <0>        -0.0245
     24 C21        -0.6659    6.9639   -5.5653 C.ar      1 <0>         0.5488
     25 N4         -1.6357    7.3945   -6.3600 N.ar      1 <0>        -0.6240
     26 C22        -2.8744    7.5667   -5.9076 C.ar      1 <0>         0.6543
     27 N5         -3.2352    7.3300   -4.6619 N.ar      1 <0>        -0.6015
     28 C23        -2.3503    6.8917   -3.7603 C.ar      1 <0>         0.3144
     29 N6         -2.6772    6.6403   -2.4899 N.ar      1 <0>        -0.1697
     30 N7         -1.7733    6.2186   -1.6719 N.ar      1 <0>        -0.2062
     31 N8         -3.8356    8.0187   -6.7913 N.pl3     1 <0>        -0.8181
     32 N9          0.6165    6.7861   -6.0353 N.pl3     1 <0>        -0.8043
     33 H1         -8.8580   -3.3388    1.6416 H         1 <0>         0.1297
     34 H2         -7.3369   -2.9199    3.5293 H         1 <0>         0.1304
     35 H3         -5.0664   -2.0659    3.1186 H         1 <0>         0.1265
     36 H4         -5.8540   -2.0440   -1.0928 H         1 <0>         0.1259
     37 H5         -8.1178   -2.9069   -0.6645 H         1 <0>         0.1301
     38 H6         -4.1835   -1.4244   -1.4020 H         1 <0>         0.1370
     39 H7         -1.9129   -0.5711   -1.8128 H         1 <0>         0.1310
     40 H8         -1.1287   -0.5929    2.3804 H         1 <0>         0.1336
     41 H9         -3.3988   -1.4384    2.8100 H         1 <0>         0.1379
     42 H10         0.6812   -0.3660    0.7881 H         1 <0>         0.1385
     43 H11         0.3524   -0.3607   -0.9779 H         1 <0>         0.1328
     44 H12        -0.3184    1.6934   -2.0647 H         1 <0>         0.1322
     45 H13        -1.8180    1.5744   -1.0830 H         1 <0>         0.1355
     46 H14        -1.4218    3.9085   -1.8912 H         1 <0>         0.1086
     47 H15        -1.3676    3.8061   -0.0987 H         1 <0>         0.0731
     48 H16         2.3030    3.9494    0.0522 H         1 <0>         0.1286
     49 H17         0.8035    3.8304    1.0340 H         1 <0>         0.0670
     50 H18         1.9061    1.6142    0.8605 H         1 <0>         0.1389
     51 H19         1.8520    1.7166   -0.9320 H         1 <0>         0.1359
     52 H20         0.1981    5.8851   -0.0321 H         1 <0>         0.0805
     53 H21         1.4826    5.9095   -1.2875 H         1 <0>         0.1186
     54 H22        -4.8696    8.1714   -6.4485 H         1 <0>         0.4498
     55 H23        -3.5668    8.2258   -7.8377 H         1 <0>         0.4464
     56 H24         0.8514    7.0024   -7.0879 H         1 <0>         0.4485
     57 H25         1.4058    6.4278   -5.3580 H         1 <0>         0.4533
     58 H26        -0.5066    1.7900    0.9403 H         1 <0>         0.4387
@<TRIPOS>BOND
     1    1    6 ar
     2    1    2 ar
     3    1   33 1
     4    2    3 ar
     5    2   34 1
     6    3    4 ar
     7    3   35 1
     8    4    5 ar
     9    4    7 1
    10    5    6 ar
    11    5   36 1
    12    6   37 1
    13    7   12 ar
    14    7    8 ar
    15    8    9 ar
    16    8   38 1
    17    9   10 ar
    18    9   39 1
    19   10   11 ar
    20   10   13 1
    21   11   12 ar
    22   11   40 1
    23   12   41 1
    24   13   14 1
    25   13   42 1
    26   13   43 1
    27   14   19 1
    28   14   15 1
    29   14   58 1
    30   15   16 1
    31   15   44 1
    32   15   45 1
    33   16   17 1
    34   16   46 1
    35   16   47 1
    36   17   18 1
    37   17   20 1
    38   18   19 1
    39   18   48 1
    40   18   49 1
    41   19   50 1
    42   19   51 1
    43   20   21 1
    44   20   52 1
    45   20   53 1
    46   21   30 ar
    47   21   22 ar
    48   22   23 ar
    49   23   28 ar
    50   23   24 ar
    51   24   25 ar
    52   24   32 1
    53   25   26 ar
    54   26   27 ar
    55   26   31 1
    56   27   28 ar
    57   28   29 ar
    58   29   30 ar
    59   31   54 1
    60   31   55 1
    61   32   56 1
    62   32   57 1
@<TRIPOS>MOLECULE
ZINC22445353
   57    61     0     0     0
SMALL
USER_CHARGES
3-[[4-[(4-phenylphenyl)methyl]piperazin-1-yl]methyl]pyrimido[5,6-e][1,2,4]triazine-5,7-diamine
@<TRIPOS>ATOM
      1 C1         -7.8620   -2.9643    1.4573 C.ar      1 <0>        -0.1192
      2 C2         -7.0069   -2.7288    2.5188 C.ar      1 <0>        -0.1173
      3 C3         -5.7331   -2.2498    2.2890 C.ar      1 <0>        -0.1110
      4 C4         -5.3090   -2.0033    0.9848 C.ar      1 <0>        -0.0458
      5 C5         -6.1763   -2.2372   -0.0803 C.ar      1 <0>        -0.1116
      6 C6         -7.4461   -2.7213    0.1606 C.ar      1 <0>        -0.1175
      7 C7         -3.9407   -1.4877    0.7316 C.ar      1 <0>        -0.0444
      8 C8         -3.5166   -1.2413   -0.5725 C.ar      1 <0>        -0.1100
      9 C9         -2.2428   -0.7622   -0.8023 C.ar      1 <0>        -0.1115
     10 C10        -1.3878   -0.5267    0.2592 C.ar      1 <0>        -0.0760
     11 C11        -1.8018   -0.7746    1.5555 C.ar      1 <0>        -0.0938
     12 C12        -3.0753   -1.2487    1.7972 C.ar      1 <0>        -0.1097
     13 C13         0.0021   -0.0041    0.0020 C.3       1 <0>         0.0926
     14 N1         -0.0178    1.4648    0.0101 N.3       1 <0>        -0.5319
     15 C14        -0.7990    1.9871   -1.1198 C.3       1 <0>         0.0555
     16 C15        -0.8618    3.5137   -1.0307 C.3       1 <0>         0.0594
     17 N2          0.5028    4.0590   -1.0408 N.3       1 <0>        -0.5312
     18 C16         1.2840    3.5367    0.0891 C.3       1 <0>         0.0573
     19 C17         1.3468    2.0100   -0.0000 C.3       1 <0>         0.0569
     20 C18         0.4829    5.5278   -1.0327 C.3       1 <0>         0.1312
     21 C19        -0.5170    6.0222   -2.0461 C.ar      1 <0>         0.1980
     22 N3         -0.1197    6.2536   -3.2804 N.ar      1 <0>        -0.3846
     23 C20        -1.0082    6.6844   -4.1699 C.ar      1 <0>        -0.0247
     24 C21        -0.6659    6.9639   -5.5653 C.ar      1 <0>         0.5484
     25 N4         -1.6357    7.3945   -6.3600 N.ar      1 <0>        -0.6277
     26 C22        -2.8744    7.5667   -5.9076 C.ar      1 <0>         0.6481
     27 N5         -3.2352    7.3300   -4.6619 N.ar      1 <0>        -0.6021
     28 C23        -2.3503    6.8917   -3.7603 C.ar      1 <0>         0.3046
     29 N6         -2.6772    6.6403   -2.4899 N.ar      1 <0>        -0.1710
     30 N7         -1.7733    6.2186   -1.6719 N.ar      1 <0>        -0.2009
     31 N8         -3.8356    8.0187   -6.7913 N.pl3     1 <0>        -0.8254
     32 N9          0.6165    6.7861   -6.0353 N.pl3     1 <0>        -0.8070
     33 H1         -8.8580   -3.3388    1.6416 H         1 <0>         0.1230
     34 H2         -7.3369   -2.9199    3.5293 H         1 <0>         0.1246
     35 H3         -5.0664   -2.0659    3.1186 H         1 <0>         0.1254
     36 H4         -5.8540   -2.0440   -1.0928 H         1 <0>         0.1243
     37 H5         -8.1178   -2.9069   -0.6645 H         1 <0>         0.1242
     38 H6         -4.1835   -1.4244   -1.4020 H         1 <0>         0.1242
     39 H7         -1.9129   -0.5711   -1.8128 H         1 <0>         0.1196
     40 H8         -1.1287   -0.5929    2.3804 H         1 <0>         0.1253
     41 H9         -3.3988   -1.4384    2.8100 H         1 <0>         0.1255
     42 H10         0.6812   -0.3660    0.7881 H         1 <0>         0.0867
     43 H11         0.3524   -0.3607   -0.9779 H         1 <0>         0.0447
     44 H12        -0.3184    1.6934   -2.0647 H         1 <0>         0.0394
     45 H13        -1.8180    1.5744   -1.0830 H         1 <0>         0.0851
     46 H14        -1.4218    3.9085   -1.8912 H         1 <0>         0.0655
     47 H15        -1.3676    3.8061   -0.0987 H         1 <0>         0.0557
     48 H16         2.3030    3.9494    0.0522 H         1 <0>         0.0862
     49 H17         0.8035    3.8304    1.0340 H         1 <0>         0.0505
     50 H18         1.9061    1.6142    0.8605 H         1 <0>         0.0846
     51 H19         1.8520    1.7166   -0.9320 H         1 <0>         0.0444
     52 H20         0.1981    5.8851   -0.0321 H         1 <0>         0.0710
     53 H21         1.4826    5.9095   -1.2875 H         1 <0>         0.1069
     54 H22        -4.8696    8.1714   -6.4485 H         1 <0>         0.4460
     55 H23        -3.5668    8.2258   -7.8377 H         1 <0>         0.4414
     56 H24         0.8514    7.0024   -7.0879 H         1 <0>         0.4438
     57 H25         1.4058    6.4278   -5.3580 H         1 <0>         0.4544
@<TRIPOS>BOND
     1    1    6 ar
     2    1    2 ar
     3    1   33 1
     4    2    3 ar
     5    2   34 1
     6    3    4 ar
     7    3   35 1
     8    4    5 ar
     9    4    7 1
    10    5    6 ar
    11    5   36 1
    12    6   37 1
    13    7   12 ar
    14    7    8 ar
    15    8    9 ar
    16    8   38 1
    17    9   10 ar
    18    9   39 1
    19   10   11 ar
    20   10   13 1
    21   11   12 ar
    22   11   40 1
    23   12   41 1
    24   13   14 1
    25   13   42 1
    26   13   43 1
    27   14   19 1
    28   14   15 1
    29   15   16 1
    30   15   44 1
    31   15   45 1
    32   16   17 1
    33   16   46 1
    34   16   47 1
    35   17   18 1
    36   17   20 1
    37   18   19 1
    38   18   48 1
    39   18   49 1
    40   19   50 1
    41   19   51 1
    42   20   21 1
    43   20   52 1
    44   20   53 1
    45   21   30 ar
    46   21   22 ar
    47   22   23 ar
    48   23   28 ar
    49   23   24 ar
    50   24   25 ar
    51   24   32 1
    52   25   26 ar
    53   26   27 ar
    54   26   31 1
    55   27   28 ar
    56   28   29 ar
    57   29   30 ar
    58   31   54 1
    59   31   55 1
    60   32   56 1
    61   32   57 1
@<TRIPOS>MOLECULE
ZINC03954176
   42    45     0     0     0
SMALL
USER_CHARGES
8-hydroxy-7-[(6-sulfo-2-naphthyl)azo]quinoline-5-sulfonic acid
@<TRIPOS>ATOM
      1 C1          3.2379    2.2545    3.5500 C.ar      1 <0>        -0.1679
      2 C2          3.8630    2.5995    2.3846 C.ar      1 <0>        -0.0708
      3 C3          3.1880    2.3642    1.1730 C.ar      1 <0>        -0.0019
      4 C4          3.7693    2.7089   -0.0615 C.ar      1 <0>        -0.6515
      5 C5          3.1016    2.4746   -1.2187 C.ar      1 <0>        -0.0011
      6 C6          1.8229    1.8854   -1.2067 C.ar      1 <0>         0.0161
      7 C7          1.2201    1.5316   -0.0014 C.ar      1 <0>         0.2276
      8 C8          1.9005    1.7744    1.2096 C.ar      1 <0>         0.0766
      9 N1          1.3483    1.4522    2.3829 N.ar      1 <0>        -0.4616
     10 C9          1.9722    1.6741    3.5143 C.ar      1 <0>         0.1152
     11 O1         -0.0117    0.9642    0.0074 O.3       1 <0>        -0.4665
     12 N2          1.1705    1.6592   -2.3820 N.2       1 <0>        -0.2040
     13 N3          1.7246    1.9851   -3.5003 N.2       1 <0>        -0.2051
     14 C10         1.0709    1.7585   -4.6781 C.ar      1 <0>         0.0502
     15 C11        -0.2078    1.1688   -4.6658 C.ar      1 <0>        -0.1180
     16 C12        -0.8764    0.9341   -5.8226 C.ar      1 <0>        -0.0969
     17 C13        -0.2938    1.2804   -7.0562 C.ar      1 <0>        -0.0540
     18 C14        -0.9679    1.0471   -8.2661 C.ar      1 <0>        -0.0161
     19 C15        -0.3796    1.3930   -9.4444 C.ar      1 <0>        -0.6480
     20 C16         0.8855    1.9767   -9.4712 C.ar      1 <0>        -0.0390
     21 C17         1.5696    2.2178   -8.3196 C.ar      1 <0>        -0.1252
     22 C18         0.9935    1.8749   -7.0829 C.ar      1 <0>        -0.0369
     23 C19         1.6687    2.1160   -5.8775 C.ar      1 <0>        -0.0325
     24 S1         -1.2309    1.0975  -10.9586 S.o2      1 <0>         2.6980
     25 O2         -0.2387    1.0114  -11.9722 O.2       1 <0>        -1.0546
     26 O3         -2.1555    0.0483  -10.7066 O.2       1 <0>        -1.0561
     27 S2          5.3685    3.4474   -0.1039 S.o2      1 <0>         2.6954
     28 O4          5.5199    4.0143   -1.3981 O.2       1 <0>        -1.0437
     29 O5          5.4919    4.2172    1.0842 O.2       1 <0>        -1.0491
     30 H1          3.7281    2.4247    4.4972 H         1 <0>         0.1398
     31 H2          4.8444    3.0502    2.3941 H         1 <0>         0.1870
     32 H3          3.5565    2.7428   -2.1608 H         1 <0>         0.1605
     33 H4          1.4928    1.3996    4.4423 H         1 <0>         0.1583
     34 H5         -0.0002   -0.0015   -0.0409 H         1 <0>         0.3953
     35 H6         -0.6620    0.9004   -3.7235 H         1 <0>         0.1367
     36 H7         -1.8563    0.4807   -5.7970 H         1 <0>         0.1319
     37 H8         -1.9490    0.5955   -8.2619 H         1 <0>         0.1416
     38 H9          1.3297    2.2412  -10.4194 H         1 <0>         0.1370
     39 H10         2.5497    2.6702   -8.3551 H         1 <0>         0.1320
     40 H11         2.6475    2.5724   -5.8833 H         1 <0>         0.1444
     41 O6         -2.0553    2.3405  -11.2613 O.3       1 <0>        -1.0756
     42 O7          6.3871    2.3213   -0.0003 O.3       1 <0>        -1.0674
@<TRIPOS>BOND
     1    1   10 ar
     2    1    2 ar
     3    1   30 1
     4    2    3 ar
     5    2   31 1
     6    3    8 ar
     7    3    4 ar
     8    4    5 ar
     9    4   27 1
    10    5    6 ar
    11    5   32 1
    12    6    7 ar
    13    6   12 1
    14    7    8 ar
    15    7   11 1
    16    8    9 ar
    17    9   10 ar
    18   10   33 1
    19   11   34 1
    20   12   13 2
    21   13   14 1
    22   14   23 ar
    23   14   15 ar
    24   15   16 ar
    25   15   35 1
    26   16   17 ar
    27   16   36 1
    28   17   22 ar
    29   17   18 ar
    30   18   19 ar
    31   18   37 1
    32   19   20 ar
    33   19   24 1
    34   20   21 ar
    35   20   38 1
    36   21   22 ar
    37   21   39 1
    38   22   23 ar
    39   23   40 1
    40   24   25 2
    41   24   26 2
    42   24   41 1
    43   27   28 2
    44   27   29 2
    45   27   42 1
@<TRIPOS>MOLECULE
ZINC04259675
   71    76     0     0     0
SMALL
USER_CHARGES

@<TRIPOS>ATOM
      1 C1         -0.3422    1.1708   -0.9905 C.ar      1 <0>        -0.1016
      2 C2          0.7781    1.9824   -0.9652 C.ar      1 <0>        -0.0626
      3 C3          2.0239    1.4432   -0.6994 C.ar      1 <0>        -0.1500
      4 C4          2.1564    0.0909   -0.4582 C.ar      1 <0>        -0.0399
      5 C5          1.0310   -0.7323   -0.4822 C.ar      1 <0>        -0.0362
      6 C6         -0.2227   -0.1825   -0.7505 C.ar      1 <0>        -0.0731
      7 C7          1.1663   -2.1837   -0.2247 C.2       1 <0>         0.2938
      8 N1          2.2085   -2.9353   -0.5103 N.2       1 <0>        -0.3046
      9 N2          1.9970   -4.1509   -0.1547 N.2       1 <0>        -0.0099
     10 N3          0.8275   -4.2672    0.3745 N.2       1 <0>        -0.0716
     11 N4          0.2423   -2.9891    0.3552 N.pl3     1 <0>        -0.3816
     12 C8         -1.0826   -2.6095    0.8520 C.3       1 <0>         0.1149
     13 H1         -1.2163   -1.5293    0.7931 H         1 <0>         0.1564
     14 C9         -2.1830   -3.3325    0.0583 C.3       1 <0>         0.0492
     15 O1         -2.6748   -4.4081    0.8572 O.3       1 <0>        -0.3380
     16 C10        -1.9976   -4.4662    2.1154 C.3       1 <0>         0.0432
     17 H2         -1.3096   -5.3095    2.1747 H         1 <0>         0.1290
     18 C11        -1.2768   -3.0993    2.3003 C.3       1 <0>         0.0418
     19 H3         -0.3368   -3.1838    2.8455 H         1 <0>         0.1251
     20 O2         -2.2446   -2.2624    2.9641 O.3       1 <0>        -0.3258
     21 C12        -2.8598   -3.1121    3.9574 C.3       1 <0>         0.0421
     22 C13        -3.0542   -4.4902    3.2445 C.3       1 <0>        -0.0256
     23 H4         -4.0576   -4.5708    2.8263 H         1 <0>         0.1749
     24 N5         -2.7914   -5.5996    4.1709 N.4       1 <0>        -0.5009
     25 C14        -3.8720   -5.6755    5.1631 C.3       1 <0>        -0.0097
     26 C15        -3.5982   -6.8310    6.1279 C.3       1 <0>        -0.1130
     27 C16        -3.6550   -8.1563    5.3656 C.3       1 <0>        -0.1303
     28 C17        -3.3812   -9.3118    6.3304 C.3       1 <0>        -0.1210
     29 C18        -4.4384   -9.3140    7.4364 C.3       1 <0>        -0.1280
     30 C19        -4.3816   -7.9886    8.1988 C.3       1 <0>        -0.1228
     31 C20        -4.6553   -6.8332    7.2340 C.3       1 <0>        -0.1113
     32 C21         3.2390    2.3343   -0.6738 C.3       1 <0>         0.0451
     33 N6          3.4416    2.8469    0.6878 N.4       1 <0>        -0.3938
     34 C22         3.8489    1.7437    1.5951 C.3       1 <0>        -0.0085
     35 C23         4.5471    2.4846    2.7631 C.3       1 <0>        -0.1448
     36 C24         5.2938    3.6331    2.0466 C.3       1 <0>        -0.1457
     37 C25         4.5577    3.8172    0.7066 C.3       1 <0>        -0.0093
     38 H5         -1.3128    1.5983   -1.1942 H         1 <0>         0.1519
     39 H6          0.6796    3.0411   -1.1541 H         1 <0>         0.1460
     40 H7          3.1297   -0.3290   -0.2515 H         1 <0>         0.1479
     41 H8         -1.0980   -0.8149   -0.7701 H         1 <0>         0.1358
     42 H9         -2.9935   -2.6382   -0.1634 H         1 <0>         0.1148
     43 H10        -1.7696   -3.7237   -0.8713 H         1 <0>         0.0999
     44 H11        -2.2041   -3.2222    4.8212 H         1 <0>         0.0916
     45 H12        -3.8237   -2.7039    4.2613 H         1 <0>         0.1396
     46 H13        -2.7473   -6.4655    3.6547 H         1 <0>         0.4352
     47 H14        -3.9196   -4.7401    5.7207 H         1 <0>         0.1348
     48 H15        -4.8212   -5.8440    4.6545 H         1 <0>         0.1391
     49 H16        -2.6096   -6.7084    6.5704 H         1 <0>         0.0955
     50 H17        -4.6436   -8.2789    4.9231 H         1 <0>         0.0809
     51 H18        -2.9019   -8.1547    4.5776 H         1 <0>         0.0555
     52 H19        -3.4217  -10.2559    5.7872 H         1 <0>         0.0748
     53 H20        -2.3927   -9.1892    6.7728 H         1 <0>         0.0674
     54 H21        -5.4269   -9.4365    6.9939 H         1 <0>         0.0676
     55 H22        -4.2434  -10.1371    8.1238 H         1 <0>         0.0732
     56 H23        -5.1347   -7.9902    8.9868 H         1 <0>         0.0762
     57 H24        -3.3930   -7.8661    8.6413 H         1 <0>         0.0670
     58 H25        -4.6149   -5.8890    7.7771 H         1 <0>         0.0743
     59 H26        -5.6439   -6.9557    6.7915 H         1 <0>         0.0761
     60 H27         4.1150    1.7630   -0.9811 H         1 <0>         0.1420
     61 H28         3.0914    3.1696   -1.3583 H         1 <0>         0.1444
     62 H29         2.9759    1.1977    1.9529 H         1 <0>         0.1286
     63 H30         4.5458    1.0714    1.0946 H         1 <0>         0.1348
     64 H31         3.8115    2.8804    3.4633 H         1 <0>         0.0972
     65 H32         5.2504    1.8257    3.2723 H         1 <0>         0.1170
     66 H33         5.2380    4.5473    2.6376 H         1 <0>         0.1071
     67 H34         6.3338    3.3574    1.8722 H         1 <0>         0.1061
     68 H35         5.2379    3.6169   -0.1212 H         1 <0>         0.1342
     69 H36         4.1682    4.8326    0.6333 H         1 <0>         0.1352
     70 H37         2.5963    3.2823    1.0255 H         1 <0>         0.4261
     71 H38        -1.9127   -5.4437    4.6417 H         1 <0>         0.4264
@<TRIPOS>BOND
     1    1    6 ar
     2    1    2 ar
     3    1   38 1
     4    2    3 ar
     5    2   39 1
     6    3    4 ar
     7    3   32 1
     8    4    5 ar
     9    4   40 1
    10    5    6 ar
    11    5    7 1
    12    6   41 1
    13    7   11 1
    14    7    8 2
    15    8    9 1
    16    9   10 2
    17   10   11 1
    18   11   12 1
    19   12   13 1
    20   12   18 1
    21   12   14 1
    22   14   15 1
    23   14   42 1
    24   14   43 1
    25   15   16 1
    26   16   17 1
    27   16   22 1
    28   16   18 1
    29   18   19 1
    30   18   20 1
    31   20   21 1
    32   21   22 1
    33   21   44 1
    34   21   45 1
    35   22   23 1
    36   22   24 1
    37   24   25 1
    38   24   46 1
    39   24   71 1
    40   25   26 1
    41   25   47 1
    42   25   48 1
    43   26   31 1
    44   26   27 1
    45   26   49 1
    46   27   28 1
    47   27   50 1
    48   27   51 1
    49   28   29 1
    50   28   52 1
    51   28   53 1
    52   29   30 1
    53   29   54 1
    54   29   55 1
    55   30   31 1
    56   30   56 1
    57   30   57 1
    58   31   58 1
    59   31   59 1
    60   32   33 1
    61   32   60 1
    62   32   61 1
    63   33   37 1
    64   33   34 1
    65   33   70 1
    66   34   35 1
    67   34   62 1
    68   34   63 1
    69   35   36 1
    70   35   64 1
    71   35   65 1
    72   36   37 1
    73   36   66 1
    74   36   67 1
    75   37   68 1
    76   37   69 1
