@<TRIPOS>MOLECULE
ZINC14954265
   47    49     0     0     0
SMALL
USER_CHARGES
4-amino-5-[3-[(E)-3-(3-hydroxy-2-methoxycarbonyl-phenoxy)prop-1-enyl]phenyl]isoxazole-3-carboxylic acid
@<TRIPOS>ATOM
      1 C1         -0.2089    1.9796   -0.0569 C.3       1 <0>         0.0348
      2 O1         -0.1767    0.5369   -0.2181 O.3       1 <0>        -0.3460
      3 C2          0.4877   -0.1688    0.7186 C.2       1 <0>         0.5357
      4 O2          1.0254    0.4060    1.6448 O.2       1 <0>        -0.4983
      5 C3          0.5620   -1.6344    0.6200 C.ar      1 <0>        -0.1767
      6 C4          1.6131   -2.2432   -0.0829 C.ar      1 <0>         0.1880
      7 C5          1.6760   -3.6245   -0.1649 C.ar      1 <0>        -0.1841
      8 C6          0.7020   -4.4027    0.4332 C.ar      1 <0>        -0.0373
      9 C7         -0.3408   -3.8136    1.1232 C.ar      1 <0>        -0.2195
     10 C8         -0.4206   -2.4340    1.2230 C.ar      1 <0>         0.1914
     11 O3         -1.4450   -1.8585    1.9006 O.3       1 <0>        -0.3039
     12 C9         -2.4080   -2.7356    2.4884 C.3       1 <0>         0.0926
     13 C10        -3.4630   -1.9230    3.1939 C.2       1 <0>        -0.1645
     14 C11        -4.7446   -2.2251    3.0411 C.2       1 <0>        -0.0777
     15 C12        -5.7795   -1.4280    3.7332 C.ar      1 <0>        -0.0628
     16 C13        -5.4085   -0.3564    4.5484 C.ar      1 <0>        -0.1123
     17 C14        -6.3735    0.3899    5.1954 C.ar      1 <0>        -0.1144
     18 C15        -7.7107    0.0826    5.0422 C.ar      1 <0>        -0.0958
     19 C16        -8.0961   -0.9868    4.2298 C.ar      1 <0>         0.0270
     20 C17        -7.1265   -1.7405    3.5692 C.ar      1 <0>        -0.0909
     21 C18        -9.5267   -1.3142    4.0663 C.2       1 <0>        -0.1506
     22 C19       -10.1011   -2.5593    4.1443 C.2       1 <0>         0.1622
     23 C20       -11.4838   -2.3073    3.9138 C.2       1 <0>        -0.0498
     24 N1        -11.5960   -1.0127    3.7310 N.2       1 <0>        -0.3031
     25 O4        -10.5295   -0.4509    3.8167 O.3       1 <0>         0.1178
     26 C21       -12.5760   -3.3060    3.8864 C.2       1 <0>         0.5319
     27 O5        -12.3298   -4.4804    4.0732 O.co2     1 <0>        -0.6226
     28 N2         -9.4760   -3.7849    4.3920 N.pl3     1 <0>        -0.8352
     29 O6          2.5670   -1.4819   -0.6750 O.3       1 <0>        -0.4903
     30 H1          0.8092    2.3688   -0.0644 H         1 <0>         0.0634
     31 H2         -0.7738    2.4242   -0.8763 H         1 <0>         0.1038
     32 H3         -0.6862    2.2287    0.8908 H         1 <0>         0.0652
     33 H4          2.4862   -4.0953   -0.7019 H         1 <0>         0.1412
     34 H5          0.7568   -5.4789    0.3611 H         1 <0>         0.1394
     35 H6         -1.0961   -4.4311    1.5866 H         1 <0>         0.1424
     36 H7         -2.8743   -3.3380    1.7087 H         1 <0>         0.0758
     37 H8         -1.9132   -3.3900    3.2060 H         1 <0>         0.0798
     38 H9         -3.1749   -1.0945    3.8240 H         1 <0>         0.1265
     39 H10        -5.0327   -3.0536    2.4110 H         1 <0>         0.1238
     40 H11        -4.3642   -0.1109    4.6732 H         1 <0>         0.1245
     41 H12        -6.0808    1.2175    5.8245 H         1 <0>         0.1269
     42 H13        -8.4604    0.6698    5.5517 H         1 <0>         0.1296
     43 H14        -7.4188   -2.5655    2.9364 H         1 <0>         0.1291
     44 H15        -8.5332   -3.8114    4.6184 H         1 <0>         0.3942
     45 H16        -9.9851   -4.6087    4.3375 H         1 <0>         0.4184
     46 H17         3.3240   -1.2870   -0.1059 H         1 <0>         0.4008
     47 O7        -13.8428   -2.9123    3.6542 O.co2     1 <0>        -0.7305
@<TRIPOS>BOND
     1    1    2 1
     2    1   30 1
     3    1   31 1
     4    1   32 1
     5    2    3 1
     6    3    4 2
     7    3    5 1
     8    5   10 ar
     9    5    6 ar
    10    6    7 ar
    11    6   29 1
    12    7    8 ar
    13    7   33 1
    14    8    9 ar
    15    8   34 1
    16    9   10 ar
    17    9   35 1
    18   10   11 1
    19   11   12 1
    20   12   13 1
    21   12   36 1
    22   12   37 1
    23   13   14 2
    24   13   38 1
    25   14   15 1
    26   14   39 1
    27   15   20 ar
    28   15   16 ar
    29   16   17 ar
    30   16   40 1
    31   17   18 ar
    32   17   41 1
    33   18   19 ar
    34   18   42 1
    35   19   20 ar
    36   19   21 1
    37   20   43 1
    38   21   25 1
    39   21   22 2
    40   22   23 1
    41   22   28 1
    42   23   24 2
    43   23   26 1
    44   24   25 1
    45   26   27 2
    46   26   47 1
    47   28   44 1
    48   28   45 1
    49   29   46 1
