@<TRIPOS>MOLECULE
ZINC01009756
   37    39     0     0     0
SMALL
USER_CHARGES
4-(5-cinnamylidene-4-oxo-2-thioxo-thiazolidin-3-yl)benzoic acid
@<TRIPOS>ATOM
      1 C1          3.3141    0.0288   -4.8935 C.ar      1 <0>        -0.1060
      2 C2          3.3517    1.4018   -4.7213 C.ar      1 <0>        -0.1267
      3 C3          2.3917    2.0311   -3.9579 C.ar      1 <0>        -0.0964
      4 C4          1.3772    1.2780   -3.3563 C.ar      1 <0>        -0.0823
      5 C5          1.3498   -0.1102   -3.5306 C.ar      1 <0>        -0.0944
      6 C6          2.3138   -0.7234   -4.3021 C.ar      1 <0>        -0.1210
      7 C7          0.3493    1.9409   -2.5406 C.2       1 <0>        -0.0311
      8 C8         -0.6306    1.2086   -1.9601 C.2       1 <0>        -0.1710
      9 C9         -1.6190    1.8446   -1.1831 C.2       1 <0>         0.0760
     10 C10        -2.6097    1.1073   -0.6028 C.2       1 <0>        -0.2419
     11 C11        -2.8515   -0.3463   -0.6525 C.2       1 <0>         0.5365
     12 O1         -2.1203   -1.0948   -1.2748 O.2       1 <0>        -0.4450
     13 N1         -3.8992   -0.7972    0.0166 N.am      1 <0>        -0.4680
     14 C12        -4.7109    0.0362    0.6989 C.2       1 <0>         0.2815
     15 S1         -6.1077   -0.3494    1.6106 S.2       1 <0>        -0.3094
     16 S2         -3.9758    1.6394    0.4202 S.3       1 <0>         0.0511
     17 C13        -4.1753   -2.1662    0.0109 C.ar      1 <0>         0.0731
     18 C14        -3.6255   -2.9889    0.9886 C.ar      1 <0>        -0.0997
     19 C15        -3.9000   -4.3380    0.9896 C.ar      1 <0>        -0.0674
     20 C16        -4.7227   -4.8828   -0.0006 C.ar      1 <0>        -0.0842
     21 C17        -5.2688   -4.0538   -0.9848 C.ar      1 <0>        -0.0766
     22 C18        -4.9948   -2.7047   -0.9758 C.ar      1 <0>        -0.0988
     23 C19        -5.0143   -6.3285   -0.0066 C.2       1 <0>         0.4877
     24 O2         -5.7299   -6.8004   -0.8677 O.co2     1 <0>        -0.6250
     25 H1          4.0692   -0.4582   -5.4927 H         1 <0>         0.1243
     26 H2          4.1351    1.9816   -5.1866 H         1 <0>         0.1252
     27 H3          2.4222    3.1025   -3.8248 H         1 <0>         0.1268
     28 H4          0.5729   -0.6991   -3.0656 H         1 <0>         0.1332
     29 H5          2.2911   -1.7941   -4.4419 H         1 <0>         0.1280
     30 H6          0.3758    3.0119   -2.4043 H         1 <0>         0.1306
     31 H7         -0.6571    0.1376   -2.0963 H         1 <0>         0.1491
     32 H8         -1.5925    2.9156   -1.0469 H         1 <0>         0.1496
     33 H9         -2.9861   -2.5681    1.7505 H         1 <0>         0.1192
     34 H10        -3.4764   -4.9754    1.7516 H         1 <0>         0.1427
     35 H11        -5.9052   -4.4711   -1.7512 H         1 <0>         0.1389
     36 H12        -5.4164   -2.0636   -1.7358 H         1 <0>         0.1189
     37 O3         -4.4870   -7.1261    0.9429 O.co2     1 <0>        -0.7474
@<TRIPOS>BOND
     1    1    6 ar
     2    1    2 ar
     3    1   25 1
     4    2    3 ar
     5    2   26 1
     6    3    4 ar
     7    3   27 1
     8    4    5 ar
     9    4    7 1
    10    5    6 ar
    11    5   28 1
    12    6   29 1
    13    7    8 2
    14    7   30 1
    15    8    9 1
    16    8   31 1
    17    9   10 2
    18    9   32 1
    19   10   16 1
    20   10   11 1
    21   11   12 2
    22   11   13 am
    23   13   14 1
    24   13   17 1
    25   14   15 2
    26   14   16 1
    27   17   22 ar
    28   17   18 ar
    29   18   19 ar
    30   18   33 1
    31   19   20 ar
    32   19   34 1
    33   20   21 ar
    34   20   23 1
    35   21   22 ar
    36   21   35 1
    37   22   36 1
    38   23   24 2
    39   23   37 1
@<TRIPOS>MOLECULE
ZINC00000922
   17    17     0     0     0
SMALL
USER_CHARGES

@<TRIPOS>ATOM
      1 C1         -0.0168    1.3901    0.0097 C.ar      1 <0>        -0.2235
      2 C2          1.1505    2.0957    0.0023 C.ar      1 <0>        -0.0256
      3 C3          2.3784    1.4219   -0.0130 C.ar      1 <0>        -0.2166
      4 C4          2.4022    0.0160   -0.0208 C.ar      1 <0>         0.1823
      5 C5          1.2119   -0.6882   -0.0133 C.ar      1 <0>        -0.2473
      6 C6          0.0021   -0.0041    0.0020 C.ar      1 <0>         0.2176
      7 N1         -1.1932   -0.7123    0.0101 N.pl3     1 <0>        -0.8808
      8 O1          3.5859   -0.6457   -0.0362 O.3       1 <0>        -0.4763
      9 C7          3.6351    2.1803   -0.0214 C.2       1 <0>         0.5228
     10 O2          3.6114    3.4040   -0.0150 O.co2     1 <0>        -0.7001
     11 O3          4.7066    1.5889   -0.0349 O.co2     1 <0>        -0.6797
     12 H1         -0.9610    1.9143    0.0260 H         1 <0>         0.1124
     13 H2          1.1280    3.1755    0.0080 H         1 <0>         0.1280
     14 H3          1.2224   -1.7682   -0.0195 H         1 <0>         0.1164
     15 H4         -2.0386   -0.2368    0.0211 H         1 <0>         0.3935
     16 H5         -1.1823   -1.6822    0.0048 H         1 <0>         0.3925
     17 H6          3.9379   -0.8424    0.8427 H         1 <0>         0.3843
@<TRIPOS>BOND
     1    1    6 ar
     2    1    2 ar
     3    1   12 1
     4    2    3 ar
     5    2   13 1
     6    3    4 ar
     7    3    9 1
     8    4    5 ar
     9    4    8 1
    10    5    6 ar
    11    5   14 1
    12    6    7 1
    13    7   15 1
    14    7   16 1
    15    8   17 1
    16    9   10 2
    17    9   11 1
@<TRIPOS>MOLECULE
ZINC02007908
   27    28     0     0     0
SMALL
USER_CHARGES
2-(oxaloamino)-4,5,6,7-tetrahydrobenzothiophene-3-carboxylic acid
@<TRIPOS>ATOM
      1 C1         -6.0112    7.4985   -0.3842 C.3       1 <0>        -0.1130
      2 C2         -6.8851    6.5592    0.4520 C.3       1 <0>        -0.1113
      3 C3         -6.5643    5.1085    0.0638 C.3       1 <0>        -0.0181
      4 C4         -5.0760    4.9408    0.0544 C.2       1 <0>        -0.2574
      5 C5         -4.1457    5.9208    0.0549 C.2       1 <0>        -0.0513
      6 C6         -2.7665    5.4647    0.0506 C.2       1 <0>        -0.2026
      7 C7         -2.5445    4.0931    0.0364 C.2       1 <0>         0.0680
      8 S1         -4.1468    3.4339    0.0410 S.3       1 <0>         0.1549
      9 N1         -1.3372    3.4177    0.0270 N.am      1 <0>        -0.6008
     10 C8         -1.3189    2.0701    0.0196 C.2       1 <0>         0.4691
     11 O1         -2.3618    1.4490    0.0211 O.2       1 <0>        -0.5108
     12 C9         -0.0162    1.3414    0.0094 C.2       1 <0>         0.4722
     13 O2          1.0257    1.9620    0.0028 O.co2     1 <0>        -0.6029
     14 C10        -1.6518    6.4150    0.0569 C.2       1 <0>         0.5164
     15 O3         -1.1922    6.8203   -0.9938 O.co2     1 <0>        -0.6361
     16 C11        -4.5528    7.3891    0.0644 C.3       1 <0>        -0.0570
     17 H1         -6.0879    7.2237   -1.4363 H         1 <0>         0.0614
     18 H2         -6.3534    8.5249   -0.2522 H         1 <0>         0.0585
     19 H3         -7.9368    6.7662    0.2544 H         1 <0>         0.0604
     20 H4         -6.6760    6.7087    1.5112 H         1 <0>         0.0642
     21 H5         -6.9639    4.8968   -0.9279 H         1 <0>         0.0675
     22 H6         -7.0060    4.4270    0.7908 H         1 <0>         0.0678
     23 H7         -0.5038    3.9141    0.0257 H         1 <0>         0.4284
     24 H8         -3.9167    7.9492   -0.6209 H         1 <0>         0.0737
     25 H9         -4.4491    7.7927    1.0716 H         1 <0>         0.0718
     26 O4          0.0021   -0.0041    0.0020 O.co2     1 <0>        -0.7132
     27 O5         -1.1351    6.8406    1.2278 O.co2     1 <0>        -0.7599
@<TRIPOS>BOND
     1    1   16 1
     2    1    2 1
     3    1   17 1
     4    1   18 1
     5    2    3 1
     6    2   19 1
     7    2   20 1
     8    3    4 1
     9    3   21 1
    10    3   22 1
    11    4    8 1
    12    4    5 2
    13    5    6 1
    14    5   16 1
    15    6    7 2
    16    6   14 1
    17    7    8 1
    18    7    9 1
    19    9   10 am
    20    9   23 1
    21   10   11 2
    22   10   12 1
    23   12   13 2
    24   12   26 1
    25   14   15 2
    26   14   27 1
    27   16   24 1
    28   16   25 1
@<TRIPOS>MOLECULE
ZINC01551920
   27    28     0     0     0
SMALL
USER_CHARGES
2-(oxaloamino)-4,5,6,7-tetrahydrothieno[5,4-c]pyridine-3-carboxylic acid
@<TRIPOS>ATOM
      1 C1         -1.1174    3.0060   -0.9004 C.3       1 <0>        -0.0860
      2 C2         -0.7889    1.5272   -1.1250 C.3       1 <0>         0.0073
      3 C3          1.3582    1.5522   -0.0026 C.3       1 <0>         0.1260
      4 C4          1.2672    3.0369   -0.1686 C.2       1 <0>        -0.3786
      5 C5          0.1788    3.7352   -0.5666 C.2       1 <0>        -0.0268
      6 C6          0.3582    5.1723   -0.6429 C.2       1 <0>        -0.2154
      7 C7          1.6084    5.6801   -0.3071 C.2       1 <0>         0.1056
      8 S1          2.5156    4.2606    0.1002 S.3       1 <0>         0.2529
      9 N1          2.0266    6.9987   -0.2995 N.am      1 <0>        -0.5994
     10 C8          3.2898    7.3031    0.0587 C.2       1 <0>         0.4748
     11 O1          4.0604    6.4201    0.3748 O.2       1 <0>        -0.5038
     12 C9          3.7410    8.7259    0.0669 C.2       1 <0>         0.4700
     13 O2          2.9710    9.6081   -0.2489 O.co2     1 <0>        -0.5937
     14 C10        -0.7353    6.0546   -1.0570 C.2       1 <0>         0.5066
     15 O3         -1.4956    6.5124   -0.2252 O.co2     1 <0>        -0.6244
     16 H1         -1.8191    3.1053   -0.0722 H         1 <0>         0.0993
     17 H2         -1.5544    3.4281   -1.8053 H         1 <0>         0.1247
     18 H3         -0.2084    1.4211   -2.0414 H         1 <0>         0.1293
     19 H4         -1.7157    0.9613   -1.2189 H         1 <0>         0.1297
     20 H5          1.8551    1.3172    0.9387 H         1 <0>         0.1314
     21 H6          1.9198    1.1225   -0.8321 H         1 <0>         0.1300
     22 H7          1.4108    7.7043   -0.5521 H         1 <0>         0.4364
     23 N2         -0.0147    0.9992    0.0136 N.4       1 <0>        -0.5128
     24 H8          0.0310   -0.0244   -0.0527 H         1 <0>         0.4294
     25 H9         -0.4773    1.2650    0.8909 H         1 <0>         0.4333
     26 O4          5.0021    9.0298    0.4246 O.co2     1 <0>        -0.6993
     27 O5         -0.8990    6.3594   -2.3606 O.co2     1 <0>        -0.7466
@<TRIPOS>BOND
     1    1    5 1
     2    1    2 1
     3    1   16 1
     4    1   17 1
     5    2   18 1
     6    2   19 1
     7    2   23 1
     8    3    4 1
     9    3   20 1
    10    3   21 1
    11    3   23 1
    12    4    8 1
    13    4    5 2
    14    5    6 1
    15    6    7 2
    16    6   14 1
    17    7    8 1
    18    7    9 1
    19    9   10 am
    20    9   22 1
    21   10   11 2
    22   10   12 1
    23   12   13 2
    24   12   26 1
    25   14   15 2
    26   14   27 1
    27   23   24 1
    28   23   25 1
@<TRIPOS>MOLECULE
ZINC00058172
   20    20     0     0     0
SMALL
USER_CHARGES

@<TRIPOS>ATOM
      1 C1         -0.0169    1.3957    0.0097 C.ar      1 <0>        -0.1140
      2 C2          1.1668    2.1000    0.0022 C.ar      1 <0>        -0.1250
      3 C3          2.3804    1.4254   -0.0135 C.ar      1 <0>         0.0593
      4 C4          2.4079    0.0305   -0.0212 C.ar      1 <0>         0.0806
      5 C5          1.2269   -0.6836   -0.0138 C.ar      1 <0>        -0.1286
      6 C6          0.0021   -0.0041    0.0020 C.ar      1 <0>        -0.0222
      7 C7         -1.2582   -0.7578    0.0105 C.2       1 <0>        -0.1234
      8 C8         -2.4405   -0.0992    0.0258 C.2       1 <0>        -0.1542
      9 C9         -3.6536   -0.8247    0.0339 C.2       1 <0>         0.4982
     10 O1         -3.6348   -2.0498    0.0272 O.co2     1 <0>        -0.6929
     11 O2         -4.7239   -0.2284    0.0477 O.co2     1 <0>        -0.6968
     12 O3          3.5989   -0.6258   -0.0366 O.3       1 <0>        -0.4900
     13 O4          3.5440    2.1254   -0.0217 O.3       1 <0>        -0.4895
     14 H1         -0.9592    1.9231    0.0260 H         1 <0>         0.1353
     15 H2          1.1511    3.1799    0.0081 H         1 <0>         0.1310
     16 H3          1.2470   -1.7634   -0.0205 H         1 <0>         0.1354
     17 H4         -1.2417   -1.8376    0.0045 H         1 <0>         0.1311
     18 H5         -2.4570    0.9807    0.0317 H         1 <0>         0.1021
     19 H6          3.9522   -0.8203    0.8423 H         1 <0>         0.3831
     20 H7          3.8899    2.3237    0.8592 H         1 <0>         0.3804
@<TRIPOS>BOND
     1    1    6 ar
     2    1    2 ar
     3    1   14 1
     4    2    3 ar
     5    2   15 1
     6    3    4 ar
     7    3   13 1
     8    4    5 ar
     9    4   12 1
    10    5    6 ar
    11    5   16 1
    12    6    7 1
    13    7    8 2
    14    7   17 1
    15    8    9 1
    16    8   18 1
    17    9   10 2
    18    9   11 1
    19   12   19 1
    20   13   20 1
@<TRIPOS>MOLECULE
ZINC38140516
   80    84     0     0     0
SMALL
USER_CHARGES

@<TRIPOS>ATOM
      1 C1          1.0496    1.4744   -0.2424 C.3       1 <0>        -0.1544
      2 C2          0.9776   -0.0468   -0.1716 C.3       1 <0>        -0.0344
      3 C3         -0.4414   -0.4320    0.2852 C.3       1 <0>        -0.1100
      4 C4         -0.6897    0.1067    1.6909 C.3       1 <0>        -0.1479
      5 C5          0.2812   -0.5259    2.6789 C.3       1 <0>         0.1192
      6 H1          0.0837   -1.6021    2.7373 H         1 <0>         0.0462
      7 C6          1.7401   -0.3149    2.2727 C.3       1 <0>        -0.0370
      8 C7          1.9789   -0.6323    0.8152 C.3       1 <0>        -0.0576
      9 H2          1.8838   -1.7444    0.7165 H         1 <0>         0.0567
     10 C8          3.3983   -0.3014    0.3539 C.3       1 <0>        -0.1127
     11 C9          3.6415   -1.0889   -0.9453 C.3       1 <0>        -0.1111
     12 C10         2.6563   -0.6599   -2.0262 C.3       1 <0>        -0.0258
     13 C11         1.2136   -0.6828   -1.5431 C.3       1 <0>        -0.0554
     14 H3          0.8926   -1.7402   -1.4417 H         1 <0>         0.0588
     15 C12         0.3116   -0.0483   -2.6021 C.3       1 <0>        -0.0723
     16 C13         0.6022   -0.6520   -3.9456 C.2       1 <0>        -0.1754
     17 C14         1.6958   -1.3013   -4.2436 C.2       1 <0>        -0.0465
     18 C15         2.7840   -1.5827   -3.2502 C.3       1 <0>         0.0076
     19 C16         4.1715   -1.4761   -3.8675 C.3       1 <0>        -0.0993
     20 C17         4.2334   -2.1439   -5.2427 C.3       1 <0>        -0.0860
     21 C18         3.2141   -1.5179   -6.1889 C.3       1 <0>        -0.1131
     22 C19         1.8056   -1.8053   -5.6737 C.3       1 <0>        -0.0179
     23 H4          1.0844   -1.2438   -6.2878 H         1 <0>         0.0687
     24 C20         1.4872   -3.2910   -5.7424 C.3       1 <0>        -0.0990
     25 C21         1.6418   -3.8241   -7.1678 C.3       1 <0>        -0.0627
     26 C22         3.0578   -3.5504   -7.6696 C.3       1 <0>        -0.1012
     27 C23         3.3860   -2.0656   -7.6041 C.3       1 <0>        -0.0919
     28 C24         0.6108   -3.1802   -8.0925 C.3       1 <0>        -0.1396
     29 C25         1.4091   -5.3427   -7.1506 C.3       1 <0>        -0.1397
     30 C26         3.4206   -0.0218   -6.2447 C.2       1 <0>         0.5073
     31 O1          4.4867    0.4328   -6.6234 O.co2     1 <0>        -0.7086
     32 O2          2.5212    0.7307   -5.9109 O.co2     1 <0>        -0.6827
     33 C27         2.6055   -3.0264   -2.7623 C.3       1 <0>        -0.1509
     34 C28         3.0344    0.7562   -2.4903 C.3       1 <0>        -0.1529
     35 C29         2.5744   -1.3054    3.1239 C.3       1 <0>        -0.1461
     36 C30         2.1912    1.0937    2.6572 C.3       1 <0>        -0.1324
     37 O3          0.0720    0.0412    3.9783 O.3       1 <0>        -0.5663
     38 H5          2.0840    1.7824   -0.3946 H         1 <0>         0.0654
     39 H6          0.4390    1.8287   -1.0729 H         1 <0>         0.0591
     40 H7          0.6772    1.8995    0.6896 H         1 <0>         0.0551
     41 H8         -1.1651   -0.0028   -0.4063 H         1 <0>         0.0681
     42 H9         -0.5304   -1.5174    0.2840 H         1 <0>         0.0591
     43 H10        -0.6146    1.1895    1.7190 H         1 <0>         0.0756
     44 H11        -1.7152   -0.1601    1.9877 H         1 <0>         0.0527
     45 H12         3.5355    0.7555    0.1833 H         1 <0>         0.0698
     46 H13         4.1252   -0.6437    1.0936 H         1 <0>         0.0562
     47 H14         4.6626   -0.8894   -1.2809 H         1 <0>         0.0598
     48 H15         3.5506   -2.1435   -0.6978 H         1 <0>         0.0615
     49 H16        -0.7358   -0.2597   -2.3499 H         1 <0>         0.0505
     50 H17         0.4350    1.0275   -2.6637 H         1 <0>         0.0736
     51 H18        -0.1434   -0.5441   -4.7229 H         1 <0>         0.0900
     52 H19         4.5381   -0.4615   -3.9450 H         1 <0>         0.0747
     53 H20         4.8786   -2.0149   -3.2085 H         1 <0>         0.0379
     54 H21         5.2371   -2.0027   -5.6578 H         1 <0>         0.0520
     55 H22         4.0472   -3.2116   -5.1475 H         1 <0>         0.0448
     56 H23         2.1681   -3.8584   -5.1047 H         1 <0>         0.0615
     57 H24         0.4628   -3.4656   -5.4046 H         1 <0>         0.0491
     58 H25         3.7720   -4.1106   -7.0604 H         1 <0>         0.0548
     59 H26         3.1439   -3.8952   -8.7049 H         1 <0>         0.0481
     60 H27         2.7473   -1.5053   -8.2880 H         1 <0>         0.0507
     61 H28         4.4266   -1.9146   -7.9138 H         1 <0>         0.0570
     62 H29         0.7544   -2.0997   -8.1004 H         1 <0>         0.0623
     63 H30         0.7347   -3.5705   -9.1026 H         1 <0>         0.0466
     64 H31        -0.3926   -3.4107   -7.7344 H         1 <0>         0.0478
     65 H32         0.4047   -5.5522   -6.7827 H         1 <0>         0.0490
     66 H33         1.5159   -5.7381   -8.1607 H         1 <0>         0.0486
     67 H34         2.1417   -5.8150   -6.4961 H         1 <0>         0.0496
     68 H35         1.5831   -3.1677   -2.4120 H         1 <0>         0.0497
     69 H36         2.8068   -3.7148   -3.5830 H         1 <0>         0.0574
     70 H37         3.2999   -3.2222   -1.9452 H         1 <0>         0.0536
     71 H38         4.0220    0.7360   -2.9511 H         1 <0>         0.0541
     72 H39         2.3017    1.1083   -3.2165 H         1 <0>         0.0769
     73 H40         3.0474    1.4284   -1.6323 H         1 <0>         0.0461
     74 H41         2.2528   -2.3255    2.9138 H         1 <0>         0.0476
     75 H42         3.6302   -1.1987    2.8748 H         1 <0>         0.0558
     76 H43         2.4271   -1.0887    4.1820 H         1 <0>         0.0574
     77 H44         2.2161    1.1834    3.7433 H         1 <0>         0.0562
     78 H45         3.1870    1.2789    2.2545 H         1 <0>         0.0526
     79 H46         1.4923    1.8233    2.2483 H         1 <0>         0.0566
     80 H47        -0.8199   -0.0929    4.3270 H         1 <0>         0.3711
@<TRIPOS>BOND
     1    1    2 1
     2    1   38 1
     3    1   39 1
     4    1   40 1
     5    2    8 1
     6    2   13 1
     7    2    3 1
     8    3    4 1
     9    3   41 1
    10    3   42 1
    11    4    5 1
    12    4   43 1
    13    4   44 1
    14    5    6 1
    15    5    7 1
    16    5   37 1
    17    7    8 1
    18    7   35 1
    19    7   36 1
    20    8    9 1
    21    8   10 1
    22   10   11 1
    23   10   45 1
    24   10   46 1
    25   11   12 1
    26   11   47 1
    27   11   48 1
    28   12   18 1
    29   12   13 1
    30   12   34 1
    31   13   14 1
    32   13   15 1
    33   15   16 1
    34   15   49 1
    35   15   50 1
    36   16   17 2
    37   16   51 1
    38   17   22 1
    39   17   18 1
    40   18   19 1
    41   18   33 1
    42   19   20 1
    43   19   52 1
    44   19   53 1
    45   20   21 1
    46   20   54 1
    47   20   55 1
    48   21   27 1
    49   21   22 1
    50   21   30 1
    51   22   23 1
    52   22   24 1
    53   24   25 1
    54   24   56 1
    55   24   57 1
    56   25   26 1
    57   25   28 1
    58   25   29 1
    59   26   27 1
    60   26   58 1
    61   26   59 1
    62   27   60 1
    63   27   61 1
    64   28   62 1
    65   28   63 1
    66   28   64 1
    67   29   65 1
    68   29   66 1
    69   29   67 1
    70   30   31 2
    71   30   32 1
    72   33   68 1
    73   33   69 1
    74   33   70 1
    75   34   71 1
    76   34   72 1
    77   34   73 1
    78   35   74 1
    79   35   75 1
    80   35   76 1
    81   36   77 1
    82   36   78 1
    83   36   79 1
    84   37   80 1
@<TRIPOS>MOLECULE
ZINC03978827
   80    84     0     0     0
SMALL
USER_CHARGES

@<TRIPOS>ATOM
      1 C1         -2.2499    1.7395    1.5965 C.3       1 <0>        -0.1448
      2 C2         -2.3630    0.2147    1.6179 C.3       1 <0>        -0.0886
      3 H1         -2.1511   -0.1868    0.6297 H         1 <0>         0.0647
      4 C3         -3.7754   -0.1882    2.0495 C.3       1 <0>        -0.1142
      5 C4         -3.8831   -1.7109    2.0243 C.3       1 <0>        -0.0863
      6 C5         -2.8712   -2.3453    2.9771 C.3       1 <0>        -0.1168
      7 C6         -3.2034   -1.9924    4.4220 C.3       1 <0>        -0.0858
      8 C7         -2.2907   -2.7490    5.3888 C.3       1 <0>        -0.0975
      9 C8         -0.8207   -2.4481    5.1311 C.3       1 <0>         0.0200
     10 C9         -0.4927   -2.4623    3.6663 C.2       1 <0>        -0.0271
     11 C10         0.6115   -2.9748    3.1888 C.2       1 <0>        -0.1945
     12 C11         1.6871   -3.6146    4.0173 C.3       1 <0>        -0.0682
     13 C12         1.5217   -3.2085    5.4824 C.3       1 <0>        -0.0549
     14 H2          1.7443   -2.1224    5.5395 H         1 <0>         0.0556
     15 C13         0.0772   -3.4243    5.9096 C.3       1 <0>        -0.0252
     16 C14        -0.1263   -3.2338    7.4071 C.3       1 <0>        -0.1101
     17 C15         0.9033   -4.0493    8.2060 C.3       1 <0>        -0.1119
     18 C16         2.2898   -3.5411    7.8160 C.3       1 <0>        -0.0569
     19 H3          2.2178   -2.4232    7.8479 H         1 <0>         0.0555
     20 C17         2.5695   -3.8926    6.3613 C.3       1 <0>        -0.0335
     21 C18         3.9485   -3.3245    5.9787 C.3       1 <0>        -0.1101
     22 C19         5.0165   -3.9216    6.8907 C.3       1 <0>        -0.1478
     23 C20         4.7602   -3.5214    8.3374 C.3       1 <0>         0.1195
     24 H4          4.8674   -2.4352    8.4331 H         1 <0>         0.0460
     25 C21         3.3625   -3.9218    8.8099 C.3       1 <0>        -0.0368
     26 C22         3.3394   -5.4064    9.1716 C.3       1 <0>        -0.1352
     27 C23         3.1067   -3.1345   10.1199 C.3       1 <0>        -0.1462
     28 O1          5.7353   -4.1464    9.1809 O.3       1 <0>        -0.5663
     29 C24         2.6012   -5.3981    6.1216 C.3       1 <0>        -0.1547
     30 C25        -0.3721   -4.8467    5.5369 C.3       1 <0>        -0.1382
     31 C26        -1.4543   -1.8772    2.6495 C.3       1 <0>        -0.0155
     32 H5         -1.1832   -2.2584    1.6510 H         1 <0>         0.0546
     33 C27        -1.3629   -0.3562    2.6314 C.3       1 <0>        -0.0770
     34 H6         -1.6059    0.0562    3.6092 H         1 <0>         0.0715
     35 C28         0.0468    0.0829    2.2258 C.3       1 <0>        -0.1463
     36 C29        -0.5399   -1.0348    5.6568 C.3       1 <0>        -0.1536
     37 C30        -2.9445   -3.8442    2.7896 C.2       1 <0>         0.4993
     38 O2         -3.7239   -4.3202    1.9818 O.co2     1 <0>        -0.7070
     39 O3         -2.2243   -4.5767    3.4463 O.co2     1 <0>        -0.6696
     40 H7         -1.2399    2.0248    1.3019 H         1 <0>         0.0532
     41 H8         -2.9654    2.1470    0.8823 H         1 <0>         0.0474
     42 H9         -2.4636    2.1337    2.5900 H         1 <0>         0.0494
     43 H10        -3.9698    0.1803    3.0558 H         1 <0>         0.0549
     44 H11        -4.5022    0.2419    1.3592 H         1 <0>         0.0487
     45 H12        -4.8906   -2.0096    2.3196 H         1 <0>         0.0523
     46 H13        -3.6916   -2.0691    1.0098 H         1 <0>         0.0574
     47 H14        -3.1028   -0.9193    4.5760 H         1 <0>         0.0430
     48 H15        -4.2426   -2.2738    4.6258 H         1 <0>         0.0414
     49 H16        -2.5347   -2.4030    6.4107 H         1 <0>         0.0259
     50 H17        -2.5341   -3.8025    5.3536 H         1 <0>         0.0990
     51 H18         0.7546   -2.9368    2.1160 H         1 <0>         0.0852
     52 H19         1.6485   -4.6899    3.8782 H         1 <0>         0.0722
     53 H20         2.6596   -3.2560    3.6562 H         1 <0>         0.0490
     54 H21        -0.0128   -2.1972    7.7151 H         1 <0>         0.0590
     55 H22        -1.1267   -3.5776    7.6859 H         1 <0>         0.0595
     56 H23         0.7201   -3.8720    9.2680 H         1 <0>         0.0543
     57 H24         0.7855   -5.1037    8.0015 H         1 <0>         0.0688
     58 H25         4.1631   -3.5839    4.9433 H         1 <0>         0.0672
     59 H26         3.9302   -2.2417    6.0898 H         1 <0>         0.0588
     60 H27         5.0618   -5.0017    6.7929 H         1 <0>         0.0755
     61 H28         5.9952   -3.5229    6.5845 H         1 <0>         0.0520
     62 H29         3.6150   -5.9975    8.2982 H         1 <0>         0.0582
     63 H30         4.0494   -5.5953    9.9768 H         1 <0>         0.0579
     64 H31         2.3375   -5.6854    9.4977 H         1 <0>         0.0518
     65 H32         2.1229   -3.3919   10.5123 H         1 <0>         0.0557
     66 H33         3.8698   -3.3932   10.8541 H         1 <0>         0.0571
     67 H34         3.1476   -2.0648    9.9148 H         1 <0>         0.0475
     68 H35         6.6482   -3.9040    8.9733 H         1 <0>         0.3709
     69 H36         2.6560   -5.5945    5.0508 H         1 <0>         0.0577
     70 H37         3.4740   -5.8262    6.6146 H         1 <0>         0.0548
     71 H38         1.6963   -5.8499    6.5280 H         1 <0>         0.0675
     72 H39        -0.1640   -5.0289    4.4826 H         1 <0>         0.0772
     73 H40         0.1712   -5.5703    6.1448 H         1 <0>         0.0333
     74 H41        -1.4418   -4.9494    5.7192 H         1 <0>         0.0634
     75 H42         0.1016    1.1715    2.2228 H         1 <0>         0.0481
     76 H43         0.7702   -0.3153    2.9372 H         1 <0>         0.0561
     77 H44         0.2722   -0.2949    1.2285 H         1 <0>         0.0471
     78 H45        -0.6486   -1.0223    6.7413 H         1 <0>         0.0530
     79 H46         0.4759   -0.7431    5.3901 H         1 <0>         0.0476
     80 H47        -1.2475   -0.3347    5.2127 H         1 <0>         0.0547
@<TRIPOS>BOND
     1    1    2 1
     2    1   40 1
     3    1   41 1
     4    1   42 1
     5    2    3 1
     6    2   33 1
     7    2    4 1
     8    4    5 1
     9    4   43 1
    10    4   44 1
    11    5    6 1
    12    5   45 1
    13    5   46 1
    14    6   31 1
    15    6    7 1
    16    6   37 1
    17    7    8 1
    18    7   47 1
    19    7   48 1
    20    8    9 1
    21    8   49 1
    22    8   50 1
    23    9   15 1
    24    9   10 1
    25    9   36 1
    26   10   11 2
    27   10   31 1
    28   11   12 1
    29   11   51 1
    30   12   13 1
    31   12   52 1
    32   12   53 1
    33   13   14 1
    34   13   20 1
    35   13   15 1
    36   15   16 1
    37   15   30 1
    38   16   17 1
    39   16   54 1
    40   16   55 1
    41   17   18 1
    42   17   56 1
    43   17   57 1
    44   18   19 1
    45   18   25 1
    46   18   20 1
    47   20   21 1
    48   20   29 1
    49   21   22 1
    50   21   58 1
    51   21   59 1
    52   22   23 1
    53   22   60 1
    54   22   61 1
    55   23   24 1
    56   23   25 1
    57   23   28 1
    58   25   26 1
    59   25   27 1
    60   26   62 1
    61   26   63 1
    62   26   64 1
    63   27   65 1
    64   27   66 1
    65   27   67 1
    66   28   68 1
    67   29   69 1
    68   29   70 1
    69   29   71 1
    70   30   72 1
    71   30   73 1
    72   30   74 1
    73   31   32 1
    74   31   33 1
    75   33   34 1
    76   33   35 1
    77   35   75 1
    78   35   76 1
    79   35   77 1
    80   36   78 1
    81   36   79 1
    82   36   80 1
    83   37   38 2
    84   37   39 1
@<TRIPOS>MOLECULE
ZINC28092924
   32    33     0     0     0
SMALL
USER_CHARGES
(3E)-3-[1-(3-carboxy-4-hydroxy-phenyl)ethylidene]-6-oxo-cyclohexa-1,4-diene-1-carboxylic acid
@<TRIPOS>ATOM
      1 C1         -4.9151   -0.2767    0.0212 C.3       1 <0>        -0.1345
      2 C2         -4.9222    1.2302    0.0299 C.2       1 <0>         0.0475
      3 C3         -3.7131    1.9359    0.0293 C.2       1 <0>        -0.1235
      4 C4         -3.7280    3.3506    0.0376 C.2       1 <0>        -0.0342
      5 C5         -2.5765    4.0600    0.0364 C.2       1 <0>        -0.2368
      6 C6         -1.3306    3.3958    0.0268 C.2       1 <0>         0.3962
      7 O1         -0.2903    4.0358    0.0257 O.2       1 <0>        -0.4422
      8 C7         -1.2982    1.9294    0.0187 C.2       1 <0>        -0.2090
      9 C8         -2.4946    1.2306    0.0148 C.2       1 <0>        -0.0447
     10 C9         -0.0144    1.2113    0.0087 C.2       1 <0>         0.4942
     11 O2          0.0021   -0.0041    0.0020 O.co2     1 <0>        -0.6454
     12 O3          1.1437    1.9011    0.0013 O.co2     1 <0>        -0.7363
     13 C10        -6.1494    1.9310    0.0387 C.ar      1 <0>        -0.1615
     14 C11        -6.5112    2.7349   -1.0601 C.ar      1 <0>        -0.0454
     15 C12        -7.6936    3.4128   -1.0564 C.ar      1 <0>        -0.1970
     16 C13        -8.5573    3.3194    0.0316 C.ar      1 <0>         0.2256
     17 C14        -8.2150    2.5222    1.1389 C.ar      1 <0>        -0.2368
     18 C15        -7.0129    1.8233    1.1394 C.ar      1 <0>         0.0029
     19 C16        -9.1298    2.4232    2.2915 C.2       1 <0>         0.5098
     20 O4        -10.1818    3.0310    2.2860 O.co2     1 <0>        -0.6295
     21 O5         -8.7990    1.6587    3.3505 O.co2     1 <0>        -0.7310
     22 O6         -9.7288    3.9967    0.0237 O.3       1 <0>        -0.5332
     23 H1         -5.9505   -0.6482    0.0231 H         1 <0>         0.0726
     24 H2         -4.3914   -0.6460    0.9152 H         1 <0>         0.0854
     25 H3         -4.3983   -0.6357   -0.8810 H         1 <0>         0.0849
     26 H4         -4.6959    3.8732    0.0451 H         1 <0>         0.1289
     27 H5         -2.6079    5.1595    0.0429 H         1 <0>         0.1298
     28 H6         -2.4891    0.1307    0.0004 H         1 <0>         0.1375
     29 H7         -5.8488    2.8141   -1.9095 H         1 <0>         0.1249
     30 H8         -7.9626    4.0263   -1.9035 H         1 <0>         0.1240
     31 H9         -6.7438    1.2049    1.9830 H         1 <0>         0.1350
     32 H10       -10.4121    3.9238    0.8827 H         1 <0>         0.4419
@<TRIPOS>BOND
     1    1    2 1
     2    1   23 1
     3    1   24 1
     4    1   25 1
     5    2    3 2
     6    2   13 1
     7    3    9 1
     8    3    4 1
     9    4    5 2
    10    4   26 1
    11    5    6 1
    12    5   27 1
    13    6    7 2
    14    6    8 1
    15    8    9 2
    16    8   10 1
    17    9   28 1
    18   10   11 2
    19   10   12 1
    20   13   18 ar
    21   13   14 ar
    22   14   15 ar
    23   14   29 1
    24   15   16 ar
    25   15   30 1
    26   16   17 ar
    27   16   22 1
    28   17   18 ar
    29   17   19 1
    30   18   31 1
    31   19   20 2
    32   19   21 1
    33   22   32 1
@<TRIPOS>MOLECULE
ZINC00244514
   29    30     0     0     0
SMALL
USER_CHARGES
2-(2,5-dimethylpyrrol-1-yl)-5-hydroxy-benzoic acid
@<TRIPOS>ATOM
      1 C1         -0.0184    1.5028    0.0103 C.3       1 <0>        -0.0790
      2 C2          0.0021   -0.0041    0.0020 C.2       1 <0>         0.0427
      3 C3         -0.0035   -0.7888   -1.0943 C.2       1 <0>        -0.2029
      4 C4          0.0248   -2.1285   -0.6563 C.2       1 <0>        -0.2015
      5 C5          0.0373   -2.1136    0.6919 C.2       1 <0>         0.0427
      6 N1          0.0235   -0.8111    1.1043 N.pl3     1 <0>        -0.3724
      7 C6          0.0306   -0.3766    2.4327 C.ar      1 <0>         0.1272
      8 C7         -1.1661   -0.1707    3.1039 C.ar      1 <0>        -0.1078
      9 C8         -1.1601    0.2542    4.4170 C.ar      1 <0>        -0.1424
     10 C9          0.0421    0.4883    5.0738 C.ar      1 <0>         0.0945
     11 C10         1.2432    0.2928    4.4170 C.ar      1 <0>        -0.0976
     12 C11         1.2471   -0.1418    3.0893 C.ar      1 <0>        -0.0848
     13 C12         2.5237   -0.3520    2.3821 C.2       1 <0>         0.4808
     14 O1          2.5234   -0.7297    1.2272 O.co2     1 <0>        -0.5938
     15 O2          0.0373    0.9113    6.3660 O.3       1 <0>        -0.4988
     16 C13         0.0623   -3.3243    1.5888 C.3       1 <0>        -0.0781
     17 H1          1.0042    1.8801    0.0026 H         1 <0>         0.0684
     18 H2         -0.5455    1.8639   -0.8728 H         1 <0>         0.0712
     19 H3         -0.5286    1.8543    0.9071 H         1 <0>         0.0536
     20 H4         -0.0233   -0.4526   -2.1204 H         1 <0>         0.1258
     21 H5          0.0308   -3.0063   -1.2854 H         1 <0>         0.1259
     22 H6         -2.1044   -0.3466    2.5988 H         1 <0>         0.1277
     23 H7         -2.0946    0.4092    4.9358 H         1 <0>         0.1297
     24 H8          2.1762    0.4761    4.9292 H         1 <0>         0.1439
     25 H9          0.0222    1.8731    6.4649 H         1 <0>         0.3863
     26 H10        -0.9592   -3.6302    1.8148 H         1 <0>         0.0600
     27 H11         0.5826   -4.1390    1.0851 H         1 <0>         0.0736
     28 H12         0.5817   -3.0794    2.5153 H         1 <0>         0.0582
     29 O3          3.6907   -0.1253    3.0165 O.co2     1 <0>        -0.7533
@<TRIPOS>BOND
     1    1    2 1
     2    1   17 1
     3    1   18 1
     4    1   19 1
     5    2    6 1
     6    2    3 2
     7    3    4 1
     8    3   20 1
     9    4    5 2
    10    4   21 1
    11    5    6 1
    12    5   16 1
    13    6    7 1
    14    7   12 ar
    15    7    8 ar
    16    8    9 ar
    17    8   22 1
    18    9   10 ar
    19    9   23 1
    20   10   11 ar
    21   10   15 1
    22   11   12 ar
    23   11   24 1
    24   12   13 1
    25   13   14 2
    26   13   29 1
    27   15   25 1
    28   16   26 1
    29   16   27 1
    30   16   28 1
@<TRIPOS>MOLECULE
ZINC28456616
   48    51     0     0     0
SMALL
USER_CHARGES
(7S)-7-[[(5-fluoro1H-indole-2-carbonyl)amino]methyl]-2-(oxaloamino)-4,5,6,7-tetrahydrothieno[5,4-c]pyridine-3-carboxylic acid
@<TRIPOS>ATOM
      1 C1         -7.4506   -3.2096   -0.6014 C.ar      1 <0>        -0.1167
      2 C2         -6.5722   -2.1519   -0.5248 C.ar      1 <0>        -0.1025
      3 C3         -5.2055   -2.3929   -0.4200 C.ar      1 <0>         0.0988
      4 C4         -4.7360   -3.7207   -0.3927 C.ar      1 <0>        -0.0986
      5 C5         -5.6482   -4.7809   -0.4715 C.ar      1 <0>        -0.0956
      6 C6         -6.9856   -4.5201   -0.5743 C.ar      1 <0>         0.0730
      7 F1         -7.8638   -5.5440   -0.6498 F         1 <0>        -0.1398
      8 C7         -3.3254   -3.6580   -0.2870 C.2       1 <0>        -0.0988
      9 C8         -2.9713   -2.3469   -0.2449 C.2       1 <0>         0.0301
     10 N1         -4.1086   -1.5674   -0.3283 N.pl3     1 <0>        -0.5899
     11 H1         -4.2404   -0.4753   -0.3308 H         1 <0>         0.4405
     12 C9         -1.5958   -1.8386   -0.1344 C.2       1 <0>         0.5908
     13 O1         -0.6633   -2.6169   -0.0669 O.2       1 <0>        -0.4932
     14 N2         -1.3682   -0.5104   -0.1080 N.am      1 <0>        -0.7541
     15 C10         0.0021   -0.0041    0.0020 C.3       1 <0>         0.0991
     16 C11        -0.0187    1.5258    0.0104 C.3       1 <0>         0.1615
     17 H2         -0.5519    1.8956    0.8986 H         1 <0>         0.1419
     18 C12         1.3833    2.0498   -0.0001 C.2       1 <0>        -0.3842
     19 C13         1.8602    3.0517   -0.7744 C.2       1 <0>        -0.0136
     20 C14         3.2642    3.3639   -0.5887 C.2       1 <0>        -0.2218
     21 C15         3.9673    2.6174    0.3505 C.2       1 <0>         0.1209
     22 S1          2.7696    1.5256    0.9649 S.3       1 <0>         0.2527
     23 N3          5.2998    2.7207    0.7076 N.am      1 <0>        -0.6139
     24 C16         5.8107    1.9024    1.6487 C.2       1 <0>         0.4762
     25 O2          5.1017    1.0746    2.1830 O.2       1 <0>        -0.5057
     26 C17         7.2485    2.0139    2.0340 C.2       1 <0>         0.4706
     27 O3          7.9569    2.8409    1.5002 O.co2     1 <0>        -0.5956
     28 O4          7.7586    1.1968    2.9737 O.co2     1 <0>        -0.6998
     29 C18         3.9165    4.4240   -1.3609 C.2       1 <0>         0.5072
     30 O5          3.9333    5.5636   -0.9359 O.co2     1 <0>        -0.6244
     31 O6          4.4986    4.1366   -2.5431 O.co2     1 <0>        -0.7468
     32 C19         0.9372    3.7662   -1.7546 C.3       1 <0>        -0.0894
     33 C20        -0.5098    3.4697   -1.3501 C.3       1 <0>         0.0104
     34 N4         -0.7048    2.0208   -1.1979 N.4       1 <0>        -0.5340
     35 H3         -8.5107   -3.0197   -0.6826 H         1 <0>         0.1419
     36 H4         -6.9429   -1.1377   -0.5468 H         1 <0>         0.1345
     37 H5         -5.2954   -5.8015   -0.4515 H         1 <0>         0.1402
     38 H6         -2.6518   -4.5011   -0.2456 H         1 <0>         0.1614
     39 H7         -2.2114    0.1934   -0.1690 H         1 <0>         0.4007
     40 H8          0.4543   -0.3698    0.9357 H         1 <0>         0.1183
     41 H9          0.5937   -0.3581   -0.8551 H         1 <0>         0.1062
     42 H10         5.9424    3.4708    0.2234 H         1 <0>         0.4678
     43 H11         1.1272    4.8489   -1.7144 H         1 <0>         0.1242
     44 H12         1.1285    3.3980   -2.7733 H         1 <0>         0.1035
     45 H13        -0.7324    3.9663   -0.3942 H         1 <0>         0.1281
     46 H14        -1.1921    3.8462   -2.1265 H         1 <0>         0.1327
     47 H15        -0.2981    1.5126   -2.0846 H         1 <0>         0.4526
     48 H16        -1.7822    1.8138   -1.1186 H         1 <0>         0.4326
@<TRIPOS>BOND
     1    1    6 ar
     2    1    2 ar
     3    1   35 1
     4    2    3 ar
     5    2   36 1
     6    3   10 1
     7    3    4 ar
     8    4    5 ar
     9    4    8 1
    10    5    6 ar
    11    5   37 1
    12    6    7 1
    13    8    9 2
    14    8   38 1
    15    9   10 1
    16    9   12 1
    17   10   11 1
    18   12   13 2
    19   12   14 am
    20   14   15 1
    21   14   39 1
    22   15   16 1
    23   15   40 1
    24   15   41 1
    25   16   17 1
    26   16   34 1
    27   16   18 1
    28   18   22 1
    29   18   19 2
    30   19   20 1
    31   19   32 1
    32   20   21 2
    33   20   29 1
    34   21   22 1
    35   21   23 1
    36   23   24 am
    37   23   42 1
    38   24   25 2
    39   24   26 1
    40   26   27 2
    41   26   28 1
    42   29   30 2
    43   29   31 1
    44   32   33 1
    45   32   43 1
    46   32   44 1
    47   33   34 1
    48   33   45 1
    49   33   46 1
    50   34   47 1
    51   34   48 1
@<TRIPOS>MOLECULE
ZINC28456616
   47    50     0     0     0
SMALL
USER_CHARGES
(7S)-7-[[(5-fluoro1H-indole-2-carbonyl)amino]methyl]-2-(oxaloamino)-4,5,6,7-tetrahydrothieno[5,4-c]pyridine-3-carboxylic acid
@<TRIPOS>ATOM
      1 C1         -7.4506   -3.2096   -0.6014 C.ar      1 <0>        -0.1286
      2 C2         -6.5722   -2.1519   -0.5248 C.ar      1 <0>        -0.0966
      3 C3         -5.2055   -2.3929   -0.4200 C.ar      1 <0>         0.0916
      4 C4         -4.7360   -3.7207   -0.3927 C.ar      1 <0>        -0.0943
      5 C5         -5.6482   -4.7809   -0.4715 C.ar      1 <0>        -0.0991
      6 C6         -6.9856   -4.5201   -0.5743 C.ar      1 <0>         0.0652
      7 F1         -7.8638   -5.5440   -0.6498 F         1 <0>        -0.1460
      8 C7         -3.3254   -3.6580   -0.2870 C.2       1 <0>        -0.1245
      9 C8         -2.9713   -2.3469   -0.2449 C.2       1 <0>         0.0578
     10 N1         -4.1086   -1.5674   -0.3283 N.pl3     1 <0>        -0.5827
     11 H1         -4.2404   -0.4753   -0.3308 H         1 <0>         0.4494
     12 C9         -1.5958   -1.8386   -0.1344 C.2       1 <0>         0.5744
     13 O1         -0.6633   -2.6169   -0.0669 O.2       1 <0>        -0.5222
     14 N2         -1.3682   -0.5104   -0.1080 N.am      1 <0>        -0.7186
     15 C10         0.0021   -0.0041    0.0020 C.3       1 <0>         0.1293
     16 C11        -0.0187    1.5258    0.0104 C.3       1 <0>         0.1713
     17 H2         -0.5519    1.8956    0.8986 H         1 <0>         0.0933
     18 C12         1.3833    2.0498   -0.0001 C.2       1 <0>        -0.3144
     19 C13         1.8602    3.0517   -0.7744 C.2       1 <0>        -0.0357
     20 C14         3.2642    3.3639   -0.5887 C.2       1 <0>        -0.2118
     21 C15         3.9673    2.6174    0.3505 C.2       1 <0>         0.0868
     22 S1          2.7696    1.5256    0.9649 S.3       1 <0>         0.1784
     23 N3          5.2998    2.7207    0.7076 N.am      1 <0>        -0.6151
     24 C16         5.8107    1.9024    1.6487 C.2       1 <0>         0.4711
     25 O2          5.1017    1.0746    2.1830 O.2       1 <0>        -0.5120
     26 C17         7.2485    2.0139    2.0340 C.2       1 <0>         0.4726
     27 O3          7.9569    2.8409    1.5002 O.co2     1 <0>        -0.6040
     28 O4          7.7586    1.1968    2.9737 O.co2     1 <0>        -0.7121
     29 C18         3.9165    4.4240   -1.3609 C.2       1 <0>         0.5163
     30 O5          3.9333    5.5636   -0.9359 O.co2     1 <0>        -0.6356
     31 O6          4.4986    4.1366   -2.5431 O.co2     1 <0>        -0.7584
     32 C19         0.9372    3.7662   -1.7546 C.3       1 <0>        -0.0945
     33 C20        -0.5098    3.4697   -1.3501 C.3       1 <0>         0.0547
     34 N4         -0.7048    2.0208   -1.1979 N.3       1 <0>        -0.6602
     35 H3         -8.5107   -3.0197   -0.6826 H         1 <0>         0.1368
     36 H4         -6.9429   -1.1377   -0.5468 H         1 <0>         0.1331
     37 H5         -5.2954   -5.8015   -0.4515 H         1 <0>         0.1356
     38 H6         -2.6518   -4.5011   -0.2456 H         1 <0>         0.1580
     39 H7         -2.2114    0.1934   -0.1690 H         1 <0>         0.4204
     40 H8          0.4543   -0.3698    0.9357 H         1 <0>         0.0812
     41 H9          0.5937   -0.3581   -0.8551 H         1 <0>         0.0787
     42 H10         5.9424    3.4708    0.2234 H         1 <0>         0.4580
     43 H11         1.1272    4.8489   -1.7144 H         1 <0>         0.0819
     44 H12         1.1285    3.3980   -2.7733 H         1 <0>         0.0769
     45 H13        -0.7324    3.9663   -0.3942 H         1 <0>         0.0718
     46 H14        -1.1921    3.8462   -2.1265 H         1 <0>         0.0785
     47 H15        -0.2981    1.5126   -2.0846 H         1 <0>         0.3433
@<TRIPOS>BOND
     1    1    6 ar
     2    1    2 ar
     3    1   35 1
     4    2    3 ar
     5    2   36 1
     6    3   10 1
     7    3    4 ar
     8    4    5 ar
     9    4    8 1
    10    5    6 ar
    11    5   37 1
    12    6    7 1
    13    8    9 2
    14    8   38 1
    15    9   10 1
    16    9   12 1
    17   10   11 1
    18   12   13 2
    19   12   14 am
    20   14   15 1
    21   14   39 1
    22   15   16 1
    23   15   40 1
    24   15   41 1
    25   16   17 1
    26   16   34 1
    27   16   18 1
    28   18   22 1
    29   18   19 2
    30   19   20 1
    31   19   32 1
    32   20   21 2
    33   20   29 1
    34   21   22 1
    35   21   23 1
    36   23   24 am
    37   23   42 1
    38   24   25 2
    39   24   26 1
    40   26   27 2
    41   26   28 1
    42   29   30 2
    43   29   31 1
    44   32   33 1
    45   32   43 1
    46   32   44 1
    47   33   34 1
    48   33   45 1
    49   33   46 1
    50   34   47 1
@<TRIPOS>MOLECULE
ZINC14954265
   47    49     0     0     0
SMALL
USER_CHARGES
4-amino-5-[3-[(E)-3-(3-hydroxy-2-methoxycarbonyl-phenoxy)prop-1-enyl]phenyl]isoxazole-3-carboxylic acid
@<TRIPOS>ATOM
      1 C1         -0.2089    1.9796   -0.0569 C.3       1 <0>         0.0348
      2 O1         -0.1767    0.5369   -0.2181 O.3       1 <0>        -0.3460
      3 C2          0.4877   -0.1688    0.7186 C.2       1 <0>         0.5357
      4 O2          1.0254    0.4060    1.6448 O.2       1 <0>        -0.4983
      5 C3          0.5620   -1.6344    0.6200 C.ar      1 <0>        -0.1767
      6 C4          1.6131   -2.2432   -0.0829 C.ar      1 <0>         0.1880
      7 C5          1.6760   -3.6245   -0.1649 C.ar      1 <0>        -0.1841
      8 C6          0.7020   -4.4027    0.4332 C.ar      1 <0>        -0.0373
      9 C7         -0.3408   -3.8136    1.1232 C.ar      1 <0>        -0.2195
     10 C8         -0.4206   -2.4340    1.2230 C.ar      1 <0>         0.1914
     11 O3         -1.4450   -1.8585    1.9006 O.3       1 <0>        -0.3039
     12 C9         -2.4080   -2.7356    2.4884 C.3       1 <0>         0.0926
     13 C10        -3.4630   -1.9230    3.1939 C.2       1 <0>        -0.1645
     14 C11        -4.7446   -2.2251    3.0411 C.2       1 <0>        -0.0777
     15 C12        -5.7795   -1.4280    3.7332 C.ar      1 <0>        -0.0628
     16 C13        -5.4085   -0.3564    4.5484 C.ar      1 <0>        -0.1123
     17 C14        -6.3735    0.3899    5.1954 C.ar      1 <0>        -0.1144
     18 C15        -7.7107    0.0826    5.0422 C.ar      1 <0>        -0.0958
     19 C16        -8.0961   -0.9868    4.2298 C.ar      1 <0>         0.0270
     20 C17        -7.1265   -1.7405    3.5692 C.ar      1 <0>        -0.0909
     21 C18        -9.5267   -1.3142    4.0663 C.2       1 <0>        -0.1506
     22 C19       -10.1011   -2.5593    4.1443 C.2       1 <0>         0.1622
     23 C20       -11.4838   -2.3073    3.9138 C.2       1 <0>        -0.0498
     24 N1        -11.5960   -1.0127    3.7310 N.2       1 <0>        -0.3031
     25 O4        -10.5295   -0.4509    3.8167 O.3       1 <0>         0.1178
     26 C21       -12.5760   -3.3060    3.8864 C.2       1 <0>         0.5319
     27 O5        -12.3298   -4.4804    4.0732 O.co2     1 <0>        -0.6226
     28 N2         -9.4760   -3.7849    4.3920 N.pl3     1 <0>        -0.8352
     29 O6          2.5670   -1.4819   -0.6750 O.3       1 <0>        -0.4903
     30 H1          0.8092    2.3688   -0.0644 H         1 <0>         0.0634
     31 H2         -0.7738    2.4242   -0.8763 H         1 <0>         0.1038
     32 H3         -0.6862    2.2287    0.8908 H         1 <0>         0.0652
     33 H4          2.4862   -4.0953   -0.7019 H         1 <0>         0.1412
     34 H5          0.7568   -5.4789    0.3611 H         1 <0>         0.1394
     35 H6         -1.0961   -4.4311    1.5866 H         1 <0>         0.1424
     36 H7         -2.8743   -3.3380    1.7087 H         1 <0>         0.0758
     37 H8         -1.9132   -3.3900    3.2060 H         1 <0>         0.0798
     38 H9         -3.1749   -1.0945    3.8240 H         1 <0>         0.1265
     39 H10        -5.0327   -3.0536    2.4110 H         1 <0>         0.1238
     40 H11        -4.3642   -0.1109    4.6732 H         1 <0>         0.1245
     41 H12        -6.0808    1.2175    5.8245 H         1 <0>         0.1269
     42 H13        -8.4604    0.6698    5.5517 H         1 <0>         0.1296
     43 H14        -7.4188   -2.5655    2.9364 H         1 <0>         0.1291
     44 H15        -8.5332   -3.8114    4.6184 H         1 <0>         0.3942
     45 H16        -9.9851   -4.6087    4.3375 H         1 <0>         0.4184
     46 H17         3.3240   -1.2870   -0.1059 H         1 <0>         0.4008
     47 O7        -13.8428   -2.9123    3.6542 O.co2     1 <0>        -0.7305
@<TRIPOS>BOND
     1    1    2 1
     2    1   30 1
     3    1   31 1
     4    1   32 1
     5    2    3 1
     6    3    4 2
     7    3    5 1
     8    5   10 ar
     9    5    6 ar
    10    6    7 ar
    11    6   29 1
    12    7    8 ar
    13    7   33 1
    14    8    9 ar
    15    8   34 1
    16    9   10 ar
    17    9   35 1
    18   10   11 1
    19   11   12 1
    20   12   13 1
    21   12   36 1
    22   12   37 1
    23   13   14 2
    24   13   38 1
    25   14   15 1
    26   14   39 1
    27   15   20 ar
    28   15   16 ar
    29   16   17 ar
    30   16   40 1
    31   17   18 ar
    32   17   41 1
    33   18   19 ar
    34   18   42 1
    35   19   20 ar
    36   19   21 1
    37   20   43 1
    38   21   25 1
    39   21   22 2
    40   22   23 1
    41   22   28 1
    42   23   24 2
    43   23   26 1
    44   24   25 1
    45   26   27 2
    46   26   47 1
    47   28   44 1
    48   28   45 1
    49   29   46 1
@<TRIPOS>MOLECULE
ZINC06475522
   22    23     0     0     0
SMALL
USER_CHARGES
1,1-dioxo-5-phenyl-1,2,5-thiadiazolidin-3-one
@<TRIPOS>ATOM
      1 C1         -0.0544    4.1592    0.0240 C.ar      1 <0>        -0.1380
      2 C2          1.1533    3.4858    0.0093 C.ar      1 <0>        -0.0843
      3 C3          1.1756    2.1049    0.0021 C.ar      1 <0>        -0.1451
      4 C4         -0.0169    1.3925    0.0097 C.ar      1 <0>         0.2048
      5 C5         -1.2283    2.0722    0.0191 C.ar      1 <0>        -0.1691
      6 C6         -1.2434    3.4532    0.0311 C.ar      1 <0>        -0.0767
      7 N1          0.0021   -0.0041    0.0020 N.pl3     1 <0>        -0.9354
      8 C7          1.0552   -0.8930   -0.5076 C.3       1 <0>         0.0392
      9 C8          0.6917   -2.3314   -0.3269 C.2       1 <0>         0.5167
     10 O1          1.4198   -3.2367   -0.6748 O.2       1 <0>        -0.4539
     11 N2         -0.5026   -2.5453    0.2446 N.am      1 <0>        -1.0406
     12 S1         -1.1698   -1.0525    0.5631 S.o2      1 <0>         2.7580
     13 O2         -1.2257   -0.9072    1.9756 O.2       1 <0>        -0.9332
     14 O3         -2.3047   -0.9082   -0.2798 O.2       1 <0>        -0.9356
     15 H1         -0.0690    5.2391    0.0295 H         1 <0>         0.1298
     16 H2          2.0801    4.0403    0.0038 H         1 <0>         0.1322
     17 H3          2.1192    1.5796   -0.0097 H         1 <0>         0.1305
     18 H4         -2.1573    1.5214    0.0209 H         1 <0>         0.1283
     19 H5         -2.1848    3.9822    0.0422 H         1 <0>         0.1346
     20 H6          1.2087   -0.6924   -1.5680 H         1 <0>         0.1434
     21 H7          1.9823   -0.6916    0.0291 H         1 <0>         0.1412
     22 H8         -0.9029   -3.4078    0.4365 H         1 <0>         0.4533
@<TRIPOS>BOND
     1    1    6 ar
     2    1    2 ar
     3    1   15 1
     4    2    3 ar
     5    2   16 1
     6    3    4 ar
     7    3   17 1
     8    4    5 ar
     9    4    7 1
    10    5    6 ar
    11    5   18 1
    12    6   19 1
    13    7   12 1
    14    7    8 1
    15    8    9 1
    16    8   20 1
    17    8   21 1
    18    9   10 2
    19    9   11 am
    20   11   12 1
    21   11   22 1
    22   12   13 2
    23   12   14 2
@<TRIPOS>MOLECULE
ZINC06406655
   36    38     0     0     0
SMALL
USER_CHARGES
5-(2-methoxy-5-phenyl-phenyl)-1,1-dioxo-1,2,5-thiadiazolidin-3-one
@<TRIPOS>ATOM
      1 C1         -0.0127    1.0858    0.0080 C.3       1 <0>         0.0230
      2 O1         -0.6816    1.5467    1.1837 O.3       1 <0>        -0.2990
      3 C2         -0.7874    2.8926    1.3463 C.ar      1 <0>         0.1446
      4 C3         -0.2531    3.7487    0.3961 C.ar      1 <0>        -0.2001
      5 C4         -0.3627    5.1155    0.5549 C.ar      1 <0>        -0.0511
      6 C5         -1.0020    5.6389    1.6772 C.ar      1 <0>        -0.0754
      7 C6         -1.5354    4.7805    2.6366 C.ar      1 <0>        -0.0547
      8 C7         -1.4282    3.4097    2.4712 C.ar      1 <0>         0.1277
      9 N1         -1.9624    2.5442    3.4329 N.pl3     1 <0>        -0.9342
     10 C8         -3.3427    2.0528    3.5425 C.3       1 <0>         0.0465
     11 C9         -3.5075    1.1418    4.7158 C.2       1 <0>         0.5170
     12 O2         -4.5674    0.6222    4.9943 O.2       1 <0>        -0.4609
     13 N2         -2.3949    0.9426    5.4378 N.am      1 <0>        -1.0426
     14 S1         -1.1777    1.8238    4.7186 S.o2      1 <0>         2.7542
     15 O3         -0.2443    0.8981    4.1791 O.2       1 <0>        -0.9320
     16 O4         -0.8150    2.8566    5.6247 O.2       1 <0>        -0.9431
     17 C10        -1.1150    7.1081    1.8500 C.ar      1 <0>        -0.0417
     18 C11        -1.7594    7.6331    2.9685 C.ar      1 <0>        -0.1128
     19 C12        -1.8570    9.0007    3.1268 C.ar      1 <0>        -0.1146
     20 C13        -1.3267    9.8496    2.1721 C.ar      1 <0>        -0.1185
     21 C14        -0.6906    9.3339    1.0573 C.ar      1 <0>        -0.1156
     22 C15        -0.5822    7.9680    0.8916 C.ar      1 <0>        -0.1124
     23 H1          0.0021   -0.0041    0.0020 H         1 <0>         0.1051
     24 H2          1.0099    1.4631    0.0003 H         1 <0>         0.0602
     25 H3         -0.5399    1.4469   -0.8751 H         1 <0>         0.0593
     26 H4          0.2467    3.3454   -0.4722 H         1 <0>         0.1422
     27 H5          0.0514    5.7800   -0.1890 H         1 <0>         0.1373
     28 H6         -2.0311    5.1834    3.5074 H         1 <0>         0.1442
     29 H7         -4.0159    2.9028    3.6539 H         1 <0>         0.1359
     30 H8         -3.6020    1.5121    2.6322 H         1 <0>         0.1363
     31 H9         -2.3132    0.3863    6.2282 H         1 <0>         0.4504
     32 H10        -2.1778    6.9712    3.7123 H         1 <0>         0.1255
     33 H11        -2.3520    9.4088    3.9956 H         1 <0>         0.1253
     34 H12        -1.4092   10.9191    2.2977 H         1 <0>         0.1234
     35 H13        -0.2783   10.0012    0.3150 H         1 <0>         0.1250
     36 H14        -0.0850    7.5664    0.0210 H         1 <0>         0.1255
@<TRIPOS>BOND
     1    1    2 1
     2    1   23 1
     3    1   24 1
     4    1   25 1
     5    2    3 1
     6    3    8 ar
     7    3    4 ar
     8    4    5 ar
     9    4   26 1
    10    5    6 ar
    11    5   27 1
    12    6    7 ar
    13    6   17 1
    14    7    8 ar
    15    7   28 1
    16    8    9 1
    17    9   14 1
    18    9   10 1
    19   10   11 1
    20   10   29 1
    21   10   30 1
    22   11   12 2
    23   11   13 am
    24   13   14 1
    25   13   31 1
    26   14   15 2
    27   14   16 2
    28   17   22 ar
    29   17   18 ar
    30   18   19 ar
    31   18   32 1
    32   19   20 ar
    33   19   33 1
    34   20   21 ar
    35   20   34 1
    36   21   22 ar
    37   21   35 1
    38   22   36 1
@<TRIPOS>MOLECULE
ZINC38349969
   81    85     0     0     0
SMALL
USER_CHARGES

@<TRIPOS>ATOM
      1 C1          0.4046    1.1828   -1.7434 C.3       1 <0>        -0.1552
      2 C2          0.4174   -0.3303   -1.4618 C.3       1 <0>        -0.0252
      3 C3          1.3516   -0.9928   -2.4662 C.3       1 <0>        -0.1113
      4 C4          2.8211   -0.6824   -2.1410 C.3       1 <0>        -0.1108
      5 C5          3.1040   -1.2193   -0.7392 C.3       1 <0>        -0.0621
      6 H1          2.6623   -2.2484   -0.7158 H         1 <0>         0.0606
      7 C6          2.3128   -0.4095    0.2806 C.3       1 <0>        -0.0306
      8 C7          0.8214   -0.5839   -0.0186 C.3       1 <0>        -0.0546
      9 H2          0.5955   -1.6428    0.2307 H         1 <0>         0.0601
     10 C8         -0.0308    0.2742    0.9144 C.3       1 <0>        -0.0731
     11 C9         -1.4783    0.1660    0.5384 C.2       1 <0>        -0.1739
     12 C10        -1.9245   -0.3152   -0.5936 C.2       1 <0>        -0.0489
     13 C11        -1.0204   -0.8350   -1.6699 C.3       1 <0>         0.0081
     14 C12        -1.5150   -0.4902   -3.0670 C.3       1 <0>        -0.0980
     15 C13        -3.0264   -0.6748   -3.2008 C.3       1 <0>        -0.0855
     16 C14        -3.7704    0.1711   -2.1735 C.3       1 <0>        -0.1135
     17 C15        -3.4325   -0.3199   -0.7691 C.3       1 <0>        -0.0159
     18 H3         -3.8663    0.3761   -0.0352 H         1 <0>         0.0695
     19 C16        -3.9817   -1.7200   -0.5304 C.3       1 <0>        -0.0992
     20 C17        -5.4944   -1.7676   -0.7552 C.3       1 <0>        -0.0625
     21 C18        -5.8186   -1.2967   -2.1712 C.3       1 <0>        -0.1016
     22 C19        -5.2772    0.1070   -2.4167 C.3       1 <0>        -0.0917
     23 C20        -6.2153   -0.9034    0.2769 C.3       1 <0>        -0.1395
     24 C21        -5.9667   -3.2214   -0.5995 C.3       1 <0>        -0.1398
     25 C22        -3.3464    1.6168   -2.3030 C.2       1 <0>         0.5074
     26 O1         -3.5207    2.2115   -3.3529 O.co2     1 <0>        -0.7084
     27 O2         -2.8302    2.1877   -1.3574 O.co2     1 <0>        -0.6829
     28 C23        -0.9990   -2.3657   -1.5554 C.3       1 <0>        -0.1507
     29 C24         2.5801   -0.9876    1.6810 C.3       1 <0>        -0.1038
     30 C25         4.0749   -0.9263    1.9852 C.3       1 <0>         0.0768
     31 H4          4.4383    0.0980    1.9524 H         1 <0>         0.0694
     32 C26         4.8447   -1.7927    0.9951 C.3       1 <0>         0.0883
     33 H5          4.5482   -2.8388    1.1284 H         1 <0>         0.0577
     34 C27         4.5788   -1.3850   -0.4542 C.3       1 <0>        -0.0354
     35 C28         5.3961   -0.1427   -0.8063 C.3       1 <0>        -0.1372
     36 C29         5.1134   -2.5417   -1.3354 C.3       1 <0>        -0.1454
     37 O3          6.2478   -1.6828    1.2615 O.3       1 <0>        -0.5613
     38 O4          4.2960   -1.4304    3.3122 O.3       1 <0>        -0.5702
     39 C30         2.7116    1.0610    0.2936 C.3       1 <0>        -0.1570
     40 H6          1.4040    1.5896   -1.5888 H         1 <0>         0.0470
     41 H7          0.0964    1.3580   -2.7741 H         1 <0>         0.0509
     42 H8         -0.2957    1.6725   -1.0666 H         1 <0>         0.0823
     43 H9          1.2467   -2.0747   -2.4781 H         1 <0>         0.0619
     44 H10         1.1361   -0.6099   -3.4700 H         1 <0>         0.0610
     45 H11         3.4429   -1.2007   -2.8750 H         1 <0>         0.0574
     46 H12         3.0038    0.3803   -2.2144 H         1 <0>         0.0698
     47 H13         0.0872   -0.0920    1.9428 H         1 <0>         0.0528
     48 H14         0.2611    1.3201    0.8951 H         1 <0>         0.0731
     49 H15        -2.2152    0.5099    1.2541 H         1 <0>         0.0910
     50 H16        -1.2442    0.5066   -3.3909 H         1 <0>         0.0733
     51 H17        -1.0341   -1.1896   -3.7787 H         1 <0>         0.0380
     52 H18        -3.3331   -0.3645   -4.2057 H         1 <0>         0.0523
     53 H19        -3.2855   -1.7259   -3.0730 H         1 <0>         0.0441
     54 H20        -3.5217   -2.4306   -1.2193 H         1 <0>         0.0608
     55 H21        -3.7626   -2.0319    0.4933 H         1 <0>         0.0491
     56 H22        -5.3812   -1.9895   -2.8936 H         1 <0>         0.0551
     57 H23        -6.9042   -1.2949   -2.3083 H         1 <0>         0.0480
     58 H24        -5.7797    0.8258   -1.7695 H         1 <0>         0.0509
     59 H25        -5.4765    0.3906   -3.4567 H         1 <0>         0.0570
     60 H26        -5.8762    0.1286    0.1872 H         1 <0>         0.0624
     61 H27        -7.2902   -0.9491    0.1018 H         1 <0>         0.0466
     62 H28        -5.9943   -1.2728    1.2782 H         1 <0>         0.0479
     63 H29        -5.7290   -3.5752    0.4037 H         1 <0>         0.0491
     64 H30        -7.0441   -3.2723   -0.7569 H         1 <0>         0.0485
     65 H31        -5.4621   -3.8482   -1.3348 H         1 <0>         0.0495
     66 H32        -0.7730   -2.6501   -0.5277 H         1 <0>         0.0500
     67 H33        -1.9734   -2.7648   -1.8369 H         1 <0>         0.0568
     68 H34        -0.2352   -2.7691   -2.2203 H         1 <0>         0.0534
     69 H35         2.0327   -0.4010    2.4174 H         1 <0>         0.0766
     70 H36         2.2405   -2.0221    1.7095 H         1 <0>         0.0674
     71 H37         5.1262    0.6722   -0.1346 H         1 <0>         0.0572
     72 H38         6.4580   -0.3643   -0.7003 H         1 <0>         0.0599
     73 H39         5.1870    0.1502   -1.8352 H         1 <0>         0.0554
     74 H40         4.9595   -2.2985   -2.3868 H         1 <0>         0.0580
     75 H41         6.1780   -2.6801   -1.1467 H         1 <0>         0.0586
     76 H42         4.5790   -3.4602   -1.0929 H         1 <0>         0.0492
     77 H43         6.5028   -1.9667    2.1500 H         1 <0>         0.3693
     78 H44         5.2236   -1.4261    3.5851 H         1 <0>         0.3693
     79 H45         2.7373    1.4395   -0.7282 H         1 <0>         0.0695
     80 H46         1.9846    1.6295    0.8735 H         1 <0>         0.0637
     81 H47         3.6983    1.1659    0.7449 H         1 <0>         0.0531
@<TRIPOS>BOND
     1    1    2 1
     2    1   40 1
     3    1   41 1
     4    1   42 1
     5    2    8 1
     6    2   13 1
     7    2    3 1
     8    3    4 1
     9    3   43 1
    10    3   44 1
    11    4    5 1
    12    4   45 1
    13    4   46 1
    14    5    6 1
    15    5   34 1
    16    5    7 1
    17    7    8 1
    18    7   29 1
    19    7   39 1
    20    8    9 1
    21    8   10 1
    22   10   11 1
    23   10   47 1
    24   10   48 1
    25   11   12 2
    26   11   49 1
    27   12   17 1
    28   12   13 1
    29   13   14 1
    30   13   28 1
    31   14   15 1
    32   14   50 1
    33   14   51 1
    34   15   16 1
    35   15   52 1
    36   15   53 1
    37   16   22 1
    38   16   17 1
    39   16   25 1
    40   17   18 1
    41   17   19 1
    42   19   20 1
    43   19   54 1
    44   19   55 1
    45   20   21 1
    46   20   23 1
    47   20   24 1
    48   21   22 1
    49   21   56 1
    50   21   57 1
    51   22   58 1
    52   22   59 1
    53   23   60 1
    54   23   61 1
    55   23   62 1
    56   24   63 1
    57   24   64 1
    58   24   65 1
    59   25   26 2
    60   25   27 1
    61   28   66 1
    62   28   67 1
    63   28   68 1
    64   29   30 1
    65   29   69 1
    66   29   70 1
    67   30   31 1
    68   30   32 1
    69   30   38 1
    70   32   33 1
    71   32   34 1
    72   32   37 1
    73   34   35 1
    74   34   36 1
    75   35   71 1
    76   35   72 1
    77   35   73 1
    78   36   74 1
    79   36   75 1
    80   36   76 1
    81   37   77 1
    82   38   78 1
    83   39   79 1
    84   39   80 1
    85   39   81 1
@<TRIPOS>MOLECULE
ZINC14952759
   56    58     0     0     0
SMALL
USER_CHARGES

@<TRIPOS>ATOM
      1 C1         -0.4758    1.4574   -1.6124 C.3       1 <0>         0.0993
      2 N1         -0.4488   -0.0074   -1.6164 N.am      1 <0>        -0.7322
      3 C2          0.5695   -0.6641   -1.0263 C.2       1 <0>         0.5424
      4 O1          1.4634   -0.0426   -0.4920 O.2       1 <0>        -0.5311
      5 C3          0.5974   -2.1709   -1.0303 C.3       1 <0>         0.1258
      6 H1         -0.4170   -2.5586   -0.9369 H         1 <0>         0.0965
      7 C4          1.4525   -2.6752    0.1310 C.3       1 <0>        -0.0719
      8 C5          1.7567   -4.1422   -0.0245 C.ar      1 <0>        -0.1031
      9 C6          2.1395   -4.8437    1.1135 C.ar      1 <0>        -0.0942
     10 C7          2.4424   -6.1858    1.0435 C.ar      1 <0>        -0.1531
     11 C8          2.3662   -6.8471   -0.1761 C.ar      1 <0>         0.1949
     12 C9          1.9808   -6.1485   -1.3098 C.ar      1 <0>        -0.1443
     13 C10         1.6719   -4.7984   -1.2326 C.ar      1 <0>        -0.0848
     14 C11         1.2346   -4.1048   -2.4985 C.3       1 <0>         0.1524
     15 N2          1.2021   -2.6545   -2.2825 N.am      1 <0>        -0.6044
     16 C12         1.7067   -1.7989   -3.1935 C.2       1 <0>         0.5157
     17 O2          1.7576   -0.6123   -2.9479 O.2       1 <0>        -0.5114
     18 C13         2.2076   -2.3166   -4.5172 C.3       1 <0>        -0.1339
     19 C14         2.7238   -1.1482   -5.3594 C.3       1 <0>        -0.0554
     20 C15         3.2247   -1.6659   -6.6831 C.ar      1 <0>        -0.0731
     21 C16         4.5457   -2.0526   -6.8184 C.ar      1 <0>        -0.1469
     22 C17         5.0095   -2.5278   -8.0312 C.ar      1 <0>        -0.0955
     23 C18         4.1541   -2.6181   -9.1120 C.ar      1 <0>        -0.1631
     24 C19         2.8269   -2.2311   -8.9795 C.ar      1 <0>         0.1920
     25 C20         2.3629   -1.7590   -7.7579 C.ar      1 <0>        -0.1469
     26 N3          1.9592   -2.3211  -10.0703 N.pl3     1 <0>        -1.0870
     27 S1          1.9521   -3.6830  -11.0124 S.o2      1 <0>         2.7741
     28 O3          1.0440   -3.4262  -12.1194 O.2       1 <0>        -1.0817
     29 O4          3.3184   -3.8892  -11.4672 O.2       1 <0>        -1.0777
     30 O5          1.4886   -4.7758  -10.1716 O.3       1 <0>        -1.0754
     31 N4          2.6762   -8.2064   -0.2594 N.pl3     1 <0>        -1.0858
     32 S2          2.0863   -9.2612    0.8727 S.o2      1 <0>         2.7750
     33 O6          2.6750  -10.5603    0.5870 O.2       1 <0>        -1.0795
     34 O7          2.4930   -8.7547    2.1743 O.2       1 <0>        -1.0784
     35 O8          0.6394   -9.2755    0.7232 O.3       1 <0>        -1.0775
     36 H2         -0.4910    1.8177   -0.5838 H         1 <0>         0.0516
     37 H3          0.4115    1.8385   -2.1179 H         1 <0>         0.0603
     38 H4         -1.3681    1.8057   -2.1326 H         1 <0>         0.0663
     39 H5         -1.1637   -0.5045   -2.0437 H         1 <0>         0.3954
     40 H6          2.3878   -2.1160    0.1567 H         1 <0>         0.0918
     41 H7          0.9156   -2.5176    1.0664 H         1 <0>         0.0828
     42 H8          2.2003   -4.3310    2.0620 H         1 <0>         0.1221
     43 H9          2.7376   -6.7220    1.9333 H         1 <0>         0.1589
     44 H10         1.9211   -6.6588   -2.2598 H         1 <0>         0.1266
     45 H11         1.9359   -4.3368   -3.3000 H         1 <0>         0.1019
     46 H12         0.2393   -4.4515   -2.7768 H         1 <0>         0.0871
     47 H13         3.0165   -3.0270   -4.3469 H         1 <0>         0.0992
     48 H14         1.3931   -2.8129   -5.0449 H         1 <0>         0.1007
     49 H15         1.9148   -0.4378   -5.5297 H         1 <0>         0.0754
     50 H16         3.5382   -0.6519   -4.8317 H         1 <0>         0.0769
     51 H17         5.2165   -1.9830   -5.9749 H         1 <0>         0.1161
     52 H18         6.0417   -2.8282   -8.1336 H         1 <0>         0.1207
     53 H19         4.5171   -2.9890  -10.0591 H         1 <0>         0.1564
     54 H20         1.3304   -1.4610   -7.6504 H         1 <0>         0.1195
     55 H21         1.3609   -1.5859  -10.2761 H         1 <0>         0.4038
     56 H22         3.2371   -8.5326   -0.9805 H         1 <0>         0.4065
@<TRIPOS>BOND
     1    1    2 1
     2    1   36 1
     3    1   37 1
     4    1   38 1
     5    2    3 am
     6    2   39 1
     7    3    4 2
     8    3    5 1
     9    5    6 1
    10    5   15 1
    11    5    7 1
    12    7    8 1
    13    7   40 1
    14    7   41 1
    15    8   13 ar
    16    8    9 ar
    17    9   10 ar
    18    9   42 1
    19   10   11 ar
    20   10   43 1
    21   11   12 ar
    22   11   31 1
    23   12   13 ar
    24   12   44 1
    25   13   14 1
    26   14   15 1
    27   14   45 1
    28   14   46 1
    29   15   16 am
    30   16   17 2
    31   16   18 1
    32   18   19 1
    33   18   47 1
    34   18   48 1
    35   19   20 1
    36   19   49 1
    37   19   50 1
    38   20   25 ar
    39   20   21 ar
    40   21   22 ar
    41   21   51 1
    42   22   23 ar
    43   22   52 1
    44   23   24 ar
    45   23   53 1
    46   24   25 ar
    47   24   26 1
    48   25   54 1
    49   26   27 1
    50   26   55 1
    51   27   28 2
    52   27   29 2
    53   27   30 1
    54   31   32 1
    55   31   56 1
    56   32   33 2
    57   32   34 2
    58   32   35 1
@<TRIPOS>MOLECULE
ZINC26920345
   50    53     0     0     0
SMALL
USER_CHARGES
4-[[(5Z)-5-[(4-benzyloxyphenyl)methylene]-2,4-dioxo-thiazolidin-3-yl]methyl]benzoic acid
@<TRIPOS>ATOM
      1 C1          0.1606   -0.0659    0.0095 C.ar      1 <0>        -0.1091
      2 C2          1.4483   -0.4946   -0.2533 C.ar      1 <0>        -0.1238
      3 C3          2.4901    0.4139   -0.2666 C.ar      1 <0>        -0.0949
      4 C4          2.2450    1.7503   -0.0117 C.ar      1 <0>        -0.0979
      5 C5          0.9582    2.1781    0.2568 C.ar      1 <0>        -0.0942
      6 C6         -0.0836    1.2696    0.2695 C.ar      1 <0>        -0.1231
      7 C7          3.3807    2.7408   -0.0262 C.3       1 <0>         0.0959
      8 O1          3.5368    3.2673   -1.3454 O.3       1 <0>        -0.3034
      9 C8          4.5243    4.1801   -1.5319 C.ar      1 <0>         0.1554
     10 C9          5.3233    4.5644   -0.4612 C.ar      1 <0>        -0.2096
     11 C10         6.3292    5.4860   -0.6456 C.ar      1 <0>        -0.0453
     12 C11         6.5400    6.0444   -1.9124 C.ar      1 <0>        -0.1301
     13 C12         5.7287    5.6575   -2.9863 C.ar      1 <0>        -0.0372
     14 C13         4.7291    4.7312   -2.7916 C.ar      1 <0>        -0.1557
     15 C14         7.6081    7.0317   -2.1141 C.2       1 <0>         0.0694
     16 C15         8.2753    7.5374   -1.0459 C.2       1 <0>        -0.2115
     17 C16         9.4776    8.3934   -1.0063 C.2       1 <0>         0.5586
     18 O2         10.0350    8.7602   -2.0241 O.2       1 <0>        -0.4658
     19 N1          9.9180    8.7416    0.1910 N.am      1 <0>        -0.5701
     20 C17         9.2974    8.3329    1.3163 C.2       1 <0>         0.5375
     21 O3          9.5911    8.5752    2.4716 O.2       1 <0>        -0.4163
     22 S1          7.9353    7.3567    0.6998 S.3       1 <0>        -0.0588
     23 C18        11.1074    9.5903    0.2973 C.3       1 <0>         0.1388
     24 C19        10.6922   11.0390    0.2997 C.ar      1 <0>        -0.1351
     25 C20        10.5956   11.7297   -0.8953 C.ar      1 <0>        -0.1106
     26 C21        10.2106   13.0543   -0.9008 C.ar      1 <0>        -0.0828
     27 C22         9.9297   13.7013    0.3042 C.ar      1 <0>        -0.0987
     28 C23        10.0347   12.9999    1.5069 C.ar      1 <0>        -0.0912
     29 C24        10.4149   11.6739    1.4974 C.ar      1 <0>        -0.1141
     30 C25         9.5236   15.1217    0.3066 C.2       1 <0>         0.4872
     31 O4          9.2802   15.6820    1.3566 O.co2     1 <0>        -0.6293
     32 O5          9.4232   15.7955   -0.8555 O.co2     1 <0>        -0.7520
     33 H1         -0.6539   -0.7750    0.0155 H         1 <0>         0.1244
     34 H2          1.6397   -1.5386   -0.4527 H         1 <0>         0.1255
     35 H3          3.4954    0.0797   -0.4763 H         1 <0>         0.1247
     36 H4          0.7668    3.2221    0.4562 H         1 <0>         0.1255
     37 H5         -1.0890    1.6039    0.4789 H         1 <0>         0.1260
     38 H6          3.1604    3.5614    0.6724 H         1 <0>         0.0772
     39 H7          4.3098    2.2379    0.2802 H         1 <0>         0.0764
     40 H8          5.1572    4.1361    0.5163 H         1 <0>         0.1358
     41 H9          6.9521    5.7807    0.1860 H         1 <0>         0.1396
     42 H10         5.8871    6.0848   -3.9654 H         1 <0>         0.1423
     43 H11         4.1030    4.4319   -3.6191 H         1 <0>         0.1387
     44 H12         7.8674    7.3614   -3.1310 H         1 <0>         0.1676
     45 H13        11.6399    9.3599    1.2319 H         1 <0>         0.1034
     46 H14        11.7711    9.4005   -0.5592 H         1 <0>         0.1080
     47 H15        10.8181   11.2294   -1.8263 H         1 <0>         0.1223
     48 H16        10.1313   13.5911   -1.8346 H         1 <0>         0.1326
     49 H17         9.8185   13.4943    2.4425 H         1 <0>         0.1287
     50 H18        10.4965   11.1302    2.4270 H         1 <0>         0.1192
@<TRIPOS>BOND
     1    1    6 ar
     2    1    2 ar
     3    1   33 1
     4    2    3 ar
     5    2   34 1
     6    3    4 ar
     7    3   35 1
     8    4    5 ar
     9    4    7 1
    10    5    6 ar
    11    5   36 1
    12    6   37 1
    13    7    8 1
    14    7   38 1
    15    7   39 1
    16    8    9 1
    17    9   14 ar
    18    9   10 ar
    19   10   11 ar
    20   10   40 1
    21   11   12 ar
    22   11   41 1
    23   12   13 ar
    24   12   15 1
    25   13   14 ar
    26   13   42 1
    27   14   43 1
    28   15   16 2
    29   15   44 1
    30   16   22 1
    31   16   17 1
    32   17   18 2
    33   17   19 am
    34   19   20 am
    35   19   23 1
    36   20   21 2
    37   20   22 1
    38   23   24 1
    39   23   45 1
    40   23   46 1
    41   24   29 ar
    42   24   25 ar
    43   25   26 ar
    44   25   47 1
    45   26   27 ar
    46   26   48 1
    47   27   28 ar
    48   27   30 1
    49   28   29 ar
    50   28   49 1
    51   29   50 1
    52   30   31 2
    53   30   32 1
@<TRIPOS>MOLECULE
ZINC13541343
   41    43     0     0     0
SMALL
USER_CHARGES
4-[[(5Z)-5-[(4-hydroxy-3-methoxy-phenyl)methylene]-2,4-dioxo-thiazolidin-3-yl]methyl]benzoic acid
@<TRIPOS>ATOM
      1 C1         -1.9661    4.6018   -1.8637 C.3       1 <0>         0.0182
      2 O1         -1.4215    5.8257   -1.3661 O.3       1 <0>        -0.3039
      3 C2         -0.1933    5.7640   -0.7853 C.ar      1 <0>         0.1072
      4 C3          0.4712    4.5562   -0.7028 C.ar      1 <0>        -0.1694
      5 C4          1.7335    4.4958   -0.0998 C.ar      1 <0>        -0.0599
      6 C5          2.3193    5.6627    0.4062 C.ar      1 <0>        -0.0996
      7 C6          1.6510    6.8637    0.3145 C.ar      1 <0>        -0.1113
      8 C7          0.3969    6.9212   -0.2786 C.ar      1 <0>         0.0977
      9 O2         -0.2571    8.1087   -0.3659 O.3       1 <0>        -0.4847
     10 C8          2.4432    3.2139   -0.0036 C.2       1 <0>         0.0621
     11 C9          1.8089    2.0606   -0.3344 C.2       1 <0>        -0.1965
     12 C10         2.3494    0.6927   -0.4630 C.2       1 <0>         0.5586
     13 O3          3.5255    0.4489   -0.2664 O.2       1 <0>        -0.4616
     14 N1          1.4912   -0.2541   -0.8033 N.am      1 <0>        -0.5699
     15 C11         0.1888    0.0203   -1.0201 C.2       1 <0>         0.5393
     16 O4         -0.7022   -0.7453   -1.3356 O.2       1 <0>        -0.4114
     17 S1          0.0891    1.7799   -0.7331 S.3       1 <0>        -0.0649
     18 C12         1.9660   -1.6325   -0.9475 C.3       1 <0>         0.1414
     19 C13         2.4084   -1.8653   -2.3691 C.ar      1 <0>        -0.1370
     20 C14         1.5014   -2.3295   -3.3053 C.ar      1 <0>        -0.1148
     21 C15         1.8983   -2.5393   -4.6097 C.ar      1 <0>        -0.0822
     22 C16         3.2212   -2.2926   -4.9818 C.ar      1 <0>        -0.0979
     23 C17         4.1326   -1.8298   -4.0306 C.ar      1 <0>        -0.0917
     24 C18         3.7211   -1.6193   -2.7309 C.ar      1 <0>        -0.1097
     25 C19         3.6549   -2.5208   -6.3754 C.2       1 <0>         0.4869
     26 O5          4.8066   -2.3057   -6.6961 O.co2     1 <0>        -0.6288
     27 H1         -1.3024    4.1917   -2.6249 H         1 <0>         0.0613
     28 H2         -2.0646    3.8887   -1.0452 H         1 <0>         0.0596
     29 H3         -2.9465    4.7914   -2.3004 H         1 <0>         0.1068
     30 H4          0.0168    3.6600   -1.0987 H         1 <0>         0.1476
     31 H5          3.2946    5.6209    0.8684 H         1 <0>         0.1416
     32 H6          2.1039    7.7631    0.7048 H         1 <0>         0.1444
     33 H7         -0.0686    8.6029   -1.1754 H         1 <0>         0.3916
     34 H8          3.4700    3.1889    0.3303 H         1 <0>         0.1678
     35 H9          2.8062   -1.7998   -0.2735 H         1 <0>         0.1074
     36 H10         1.1591   -2.3225   -0.7004 H         1 <0>         0.1034
     37 H11         0.4795   -2.5240   -3.0151 H         1 <0>         0.1196
     38 H12         1.1883   -2.8974   -5.3405 H         1 <0>         0.1329
     39 H13         5.1575   -1.6373   -4.3117 H         1 <0>         0.1291
     40 H14         4.4250   -1.2613   -1.9942 H         1 <0>         0.1223
     41 O6          2.7731   -2.9675   -7.2907 O.co2     1 <0>        -0.7517
@<TRIPOS>BOND
     1    1    2 1
     2    1   27 1
     3    1   28 1
     4    1   29 1
     5    2    3 1
     6    3    8 ar
     7    3    4 ar
     8    4    5 ar
     9    4   30 1
    10    5    6 ar
    11    5   10 1
    12    6    7 ar
    13    6   31 1
    14    7    8 ar
    15    7   32 1
    16    8    9 1
    17    9   33 1
    18   10   11 2
    19   10   34 1
    20   11   17 1
    21   11   12 1
    22   12   13 2
    23   12   14 am
    24   14   15 am
    25   14   18 1
    26   15   16 2
    27   15   17 1
    28   18   19 1
    29   18   35 1
    30   18   36 1
    31   19   24 ar
    32   19   20 ar
    33   20   21 ar
    34   20   37 1
    35   21   22 ar
    36   21   38 1
    37   22   23 ar
    38   22   25 1
    39   23   24 ar
    40   23   39 1
    41   24   40 1
    42   25   26 2
    43   25   41 1
@<TRIPOS>MOLECULE
ZINC02579321
   48    52     0     0     0
SMALL
USER_CHARGES
[3-[4-(4-hydroxyphenyl)phenyl]benzofuran-2-yl]-phenyl-methanone
@<TRIPOS>ATOM
      1 C1         -1.2200    1.7479   -0.0106 C.ar      1 <0>        -0.0829
      2 C2         -0.0112    1.0748   -0.0333 C.ar      1 <0>        -0.1339
      3 C3          1.1744    1.7798   -0.0319 C.ar      1 <0>        -0.0562
      4 C4          1.1530    3.1756   -0.0021 C.ar      1 <0>        -0.1677
      5 C5         -0.0702    3.8483    0.0261 C.ar      1 <0>        -0.0698
      6 C6         -1.2484    3.1310    0.0243 C.ar      1 <0>        -0.1329
      7 C7          2.4201    3.9379   -0.0009 C.2       1 <0>         0.4724
      8 O1          3.4836    3.3512    0.0858 O.2       1 <0>        -0.4142
      9 C8          2.3959    5.3965   -0.1037 C.2       1 <0>        -0.0412
     10 C9          3.5106    6.2114   -0.2200 C.2       1 <0>        -0.0364
     11 C10         2.9904    7.5849   -0.2908 C.ar      1 <0>        -0.1328
     12 C11         3.5850    8.8410   -0.4119 C.ar      1 <0>        -0.0552
     13 C12         2.8023    9.9609   -0.4513 C.ar      1 <0>        -0.1355
     14 C13         1.4208    9.8548   -0.3721 C.ar      1 <0>        -0.0770
     15 C14         0.8152    8.6227   -0.2521 C.ar      1 <0>        -0.1124
     16 C15         1.5921    7.4697   -0.2096 C.ar      1 <0>         0.0713
     17 O2          1.2843    6.1615   -0.1061 O.3       1 <0>        -0.1714
     18 C16         4.9255    5.7887   -0.2642 C.ar      1 <0>        -0.0267
     19 C17         5.7987    6.1602    0.7618 C.ar      1 <0>        -0.0919
     20 C18         7.1154    5.7617    0.7221 C.ar      1 <0>        -0.1098
     21 C19         7.5812    4.9957   -0.3474 C.ar      1 <0>        -0.0347
     22 C20         6.7115    4.6290   -1.3754 C.ar      1 <0>        -0.1070
     23 C21         5.3931    5.0219   -1.3350 C.ar      1 <0>        -0.0768
     24 C22         9.0006    4.5716   -0.3917 C.ar      1 <0>        -0.0553
     25 C23         9.4670    3.8016   -1.4569 C.ar      1 <0>        -0.0923
     26 C24        10.7892    3.4132   -1.4979 C.ar      1 <0>        -0.1422
     27 C25        11.6539    3.7790   -0.4747 C.ar      1 <0>         0.1070
     28 C26        11.1914    4.5408    0.5902 C.ar      1 <0>        -0.1424
     29 C27         9.8715    4.9369    0.6345 C.ar      1 <0>        -0.0926
     30 O3         12.9550    3.3903   -0.5153 O.3       1 <0>        -0.4995
     31 H1         -2.1455    1.1912   -0.0163 H         1 <0>         0.1297
     32 H2          0.0040   -0.0048   -0.0567 H         1 <0>         0.1320
     33 H3          2.1172    1.2533   -0.0541 H         1 <0>         0.1358
     34 H4         -0.0938    4.9278    0.0489 H         1 <0>         0.1444
     35 H5         -2.1952    3.6501    0.0461 H         1 <0>         0.1310
     36 H6          4.6597    8.9282   -0.4746 H         1 <0>         0.1312
     37 H7          3.2616   10.9339   -0.5451 H         1 <0>         0.1346
     38 H8          0.8137   10.7474   -0.4044 H         1 <0>         0.1402
     39 H9         -0.2608    8.5526   -0.1910 H         1 <0>         0.1377
     40 H10         5.4393    6.7561    1.5877 H         1 <0>         0.1256
     41 H11         7.7893    6.0450    1.5171 H         1 <0>         0.1295
     42 H12         7.0730    4.0364   -2.2027 H         1 <0>         0.1291
     43 H13         4.7202    4.7380   -2.1306 H         1 <0>         0.1216
     44 H14         8.7940    3.5133   -2.2509 H         1 <0>         0.1310
     45 H15        11.1520    2.8203   -2.3245 H         1 <0>         0.1317
     46 H16        11.8664    4.8237    1.3844 H         1 <0>         0.1316
     47 H17         9.5123    5.5291    1.4632 H         1 <0>         0.1309
     48 H18        13.1248    2.5393   -0.0887 H         1 <0>         0.3923
@<TRIPOS>BOND
     1    1    6 ar
     2    1    2 ar
     3    1   31 1
     4    2    3 ar
     5    2   32 1
     6    3    4 ar
     7    3   33 1
     8    4    5 ar
     9    4    7 1
    10    5    6 ar
    11    5   34 1
    12    6   35 1
    13    7    8 2
    14    7    9 1
    15    9   17 1
    16    9   10 2
    17   10   11 1
    18   10   18 1
    19   11   16 ar
    20   11   12 ar
    21   12   13 ar
    22   12   36 1
    23   13   14 ar
    24   13   37 1
    25   14   15 ar
    26   14   38 1
    27   15   16 ar
    28   15   39 1
    29   16   17 1
    30   18   23 ar
    31   18   19 ar
    32   19   20 ar
    33   19   40 1
    34   20   21 ar
    35   20   41 1
    36   21   22 ar
    37   21   24 1
    38   22   23 ar
    39   22   42 1
    40   23   43 1
    41   24   29 ar
    42   24   25 ar
    43   25   26 ar
    44   25   44 1
    45   26   27 ar
    46   26   45 1
    47   27   28 ar
    48   27   30 1
    49   28   29 ar
    50   28   46 1
    51   29   47 1
    52   30   48 1
@<TRIPOS>MOLECULE
ZINC29047504
   25    26     0     0     0
SMALL
USER_CHARGES
[(3-bromo-7-cyano-2-naphthyl)-difluoro-methyl]phosphonic acid
@<TRIPOS>ATOM
      1 C1         -5.7641    1.2815    4.6611 C.ar      1 <0>        -0.0793
      2 C2         -4.5087    0.7732    4.7499 C.ar      1 <0>        -0.1090
      3 C3         -3.8069    0.4224    3.5822 C.ar      1 <0>        -0.0206
      4 C4         -2.5070   -0.1057    3.6496 C.ar      1 <0>        -0.1218
      5 C5         -1.8544   -0.4420    2.5021 C.ar      1 <0>        -0.0286
      6 C6         -2.4529   -0.2594    1.2557 C.ar      1 <0>        -0.1208
      7 C7         -3.7104    0.2494    1.1512 C.ar      1 <0>        -0.0244
      8 C8         -4.4177    0.6027    2.3148 C.ar      1 <0>        -0.0587
      9 C9         -5.7155    1.1292    2.2420 C.ar      1 <0>        -0.0009
     10 C10        -6.3810    1.4652    3.4103 C.ar      1 <0>        -0.0598
     11 C11        -7.7063    2.0032    3.3436 C.1       1 <0>         0.2733
     12 N1         -8.7578    2.4301    3.2907 N.1       1 <0>        -0.4406
     13 C12        -1.6982   -0.6368    0.0070 C.3       1 <0>        -0.2353
     14 F1         -1.4897   -2.0201   -0.0116 F         1 <0>        -0.2045
     15 F2         -0.4637    0.0211   -0.0086 F         1 <0>        -0.2024
     16 P1         -2.6658   -0.1483   -1.4587 P.3       1 <0>         2.1358
     17 O1         -1.9339   -0.5371   -2.6850 O.2       1 <0>        -1.1121
     18 O2         -4.0951   -0.8887   -1.4295 O.3       1 <0>        -1.1398
     19 O3         -2.8870    1.4464   -1.4486 O.3       1 <0>        -1.1427
     20 Br1        -0.1076   -1.1596    2.6002 Br        1 <0>        -0.0512
     21 H1         -6.2964    1.5480    5.5623 H         1 <0>         0.1269
     22 H2         -4.0481    0.6384    5.7174 H         1 <0>         0.1318
     23 H3         -2.0287   -0.2484    4.6073 H         1 <0>         0.1353
     24 H4         -4.1633    0.3817    0.1797 H         1 <0>         0.1974
     25 H5         -6.1924    1.2715    1.2835 H         1 <0>         0.1522
@<TRIPOS>BOND
     1    1   10 ar
     2    1    2 ar
     3    1   21 1
     4    2    3 ar
     5    2   22 1
     6    3    8 ar
     7    3    4 ar
     8    4    5 ar
     9    4   23 1
    10    5    6 ar
    11    5   20 1
    12    6    7 ar
    13    6   13 1
    14    7    8 ar
    15    7   24 1
    16    8    9 ar
    17    9   10 ar
    18    9   25 1
    19   10   11 1
    20   11   12 3
    21   13   14 1
    22   13   15 1
    23   13   16 1
    24   16   17 2
    25   16   18 1
    26   16   19 1
@<TRIPOS>MOLECULE
ZINC02579320
   49    53     0     0     0
SMALL
USER_CHARGES
4-[4-(2-benzylbenzofuran-3-yl)phenyl]phenol
@<TRIPOS>ATOM
      1 C1         -5.6285    6.2220    2.4244 C.ar      1 <0>        -0.1165
      2 C2         -4.5413    6.8662    1.8642 C.ar      1 <0>        -0.1196
      3 C3         -3.6241    6.1515    1.1166 C.ar      1 <0>        -0.1069
      4 C4         -3.7885    4.7906    0.9380 C.ar      1 <0>        -0.0893
      5 C5         -4.8757    4.1464    1.4982 C.ar      1 <0>        -0.1033
      6 C6         -5.7957    4.8620    2.2414 C.ar      1 <0>        -0.1192
      7 C7         -2.7858    4.0105    0.1274 C.3       1 <0>        -0.0065
      8 C8         -3.1618    4.0718   -1.3306 C.2       1 <0>         0.0629
      9 C9         -3.8880    3.1363   -1.9858 C.2       1 <0>        -0.1396
     10 C10        -4.0031    3.6152   -3.3756 C.ar      1 <0>        -0.1120
     11 C11        -4.6134    3.1223   -4.5258 C.ar      1 <0>        -0.0704
     12 C12        -4.5313    3.8378   -5.7004 C.ar      1 <0>        -0.1332
     13 C13        -3.8446    5.0427   -5.7378 C.ar      1 <0>        -0.0933
     14 C14        -3.2365    5.5406   -4.6057 C.ar      1 <0>        -0.1061
     15 C15        -3.3080    4.8337   -3.4113 C.ar      1 <0>         0.0535
     16 O1         -2.8308    5.0657   -2.1714 O.3       1 <0>        -0.1857
     17 C16        -4.4514    1.8870   -1.4223 C.ar      1 <0>        -0.0087
     18 C17        -3.5995    0.8681   -0.9947 C.ar      1 <0>        -0.1043
     19 C18        -4.1233   -0.2906   -0.4656 C.ar      1 <0>        -0.1073
     20 C19        -5.5054   -0.4503   -0.3679 C.ar      1 <0>        -0.0414
     21 C20        -6.3573    0.5658   -0.8005 C.ar      1 <0>        -0.1074
     22 C21        -5.8339    1.7270   -1.3244 C.ar      1 <0>        -0.0970
     23 C22        -6.0692   -1.7006    0.1957 C.ar      1 <0>        -0.0553
     24 C23        -7.4504   -1.8597    0.2990 C.ar      1 <0>        -0.0933
     25 C24        -7.9717   -3.0258    0.8187 C.ar      1 <0>        -0.1421
     26 C25        -7.1224   -4.0363    1.2489 C.ar      1 <0>         0.1071
     27 C26        -5.7464   -3.8787    1.1527 C.ar      1 <0>        -0.1422
     28 C27        -5.2190   -2.7173    0.6286 C.ar      1 <0>        -0.0932
     29 O2         -7.6390   -5.1819    1.7658 O.3       1 <0>        -0.4996
     30 H1         -6.3474    6.7812    3.0047 H         1 <0>         0.1226
     31 H2         -4.4108    7.9288    2.0069 H         1 <0>         0.1235
     32 H3         -2.7771    6.6556    0.6752 H         1 <0>         0.1230
     33 H4         -5.0065    3.0839    1.3549 H         1 <0>         0.1223
     34 H5         -6.6453    4.3588    2.6787 H         1 <0>         0.1230
     35 H6         -1.7937    4.4406    0.2652 H         1 <0>         0.0977
     36 H7         -2.7806    2.9718    0.4580 H         1 <0>         0.1082
     37 H8         -5.1484    2.1846   -4.4974 H         1 <0>         0.1265
     38 H9         -5.0034    3.4596   -6.5951 H         1 <0>         0.1308
     39 H10        -3.7857    5.5959   -6.6635 H         1 <0>         0.1363
     40 H11        -2.7044    6.4795   -4.6468 H         1 <0>         0.1326
     41 H12        -2.5294    0.9899   -1.0745 H         1 <0>         0.1259
     42 H13        -3.4638   -1.0775   -0.1305 H         1 <0>         0.1285
     43 H14        -7.4275    0.4421   -0.7244 H         1 <0>         0.1278
     44 H15        -6.4936    2.5136   -1.6597 H         1 <0>         0.1244
     45 H16        -8.1115   -1.0723   -0.0318 H         1 <0>         0.1306
     46 H17        -9.0417   -3.1515    0.8949 H         1 <0>         0.1315
     47 H18        -5.0884   -4.6666    1.4882 H         1 <0>         0.1316
     48 H19        -4.1485   -2.5952    0.5540 H         1 <0>         0.1308
     49 H20        -7.7730   -5.1561    2.7231 H         1 <0>         0.3923
@<TRIPOS>BOND
     1    1    6 ar
     2    1    2 ar
     3    1   30 1
     4    2    3 ar
     5    2   31 1
     6    3    4 ar
     7    3   32 1
     8    4    5 ar
     9    4    7 1
    10    5    6 ar
    11    5   33 1
    12    6   34 1
    13    7    8 1
    14    7   35 1
    15    7   36 1
    16    8   16 1
    17    8    9 2
    18    9   10 1
    19    9   17 1
    20   10   15 ar
    21   10   11 ar
    22   11   12 ar
    23   11   37 1
    24   12   13 ar
    25   12   38 1
    26   13   14 ar
    27   13   39 1
    28   14   15 ar
    29   14   40 1
    30   15   16 1
    31   17   22 ar
    32   17   18 ar
    33   18   19 ar
    34   18   41 1
    35   19   20 ar
    36   19   42 1
    37   20   21 ar
    38   20   23 1
    39   21   22 ar
    40   21   43 1
    41   22   44 1
    42   23   28 ar
    43   23   24 ar
    44   24   25 ar
    45   24   45 1
    46   25   26 ar
    47   25   46 1
    48   26   27 ar
    49   26   29 1
    50   27   28 ar
    51   27   47 1
    52   28   48 1
    53   29   49 1
@<TRIPOS>MOLECULE
ZINC03097194
   40    43     0     0     0
SMALL
USER_CHARGES
5-[[3-nitro-4-[(6-nitro-1,3-benzothiazol-2-yl)sulfanyl]phenyl]methylene]hexahydropyrimidine-2,4,6-trione
@<TRIPOS>ATOM
      1 C1          1.1672    3.1502    0.4511 C.ar      1 <0>         0.0198
      2 C2         -0.0258    3.7879    0.6283 C.ar      1 <0>        -0.0561
      3 C3         -1.2215    3.0794    0.5154 C.ar      1 <0>        -0.1100
      4 C4         -1.2052    1.7173    0.2158 C.ar      1 <0>         0.0023
      5 C5         -0.0179    1.0689    0.0418 C.ar      1 <0>        -0.0426
      6 C6          1.1895    1.7778    0.1545 C.ar      1 <0>        -0.0147
      7 C7          2.4270    1.1097   -0.0303 C.2       1 <0>        -0.0024
      8 C8          3.4164    1.6881   -0.8046 C.2       1 <0>        -0.2273
      9 C9          3.1396    2.8574   -1.6613 C.2       1 <0>         0.5256
     10 O1          2.0271    3.3471   -1.7100 O.3       1 <0>        -0.5554
     11 N1          4.1554    3.3716   -2.3848 N.2       1 <0>        -0.6968
     12 C10         5.3845    2.8385   -2.3451 C.2       1 <0>         0.6654
     13 O2          6.2538    3.3466   -3.0258 O.2       1 <0>        -0.5805
     14 N2          5.7065    1.7751   -1.5955 N.am      1 <0>        -0.7036
     15 C11         4.7943    1.1596   -0.8153 C.2       1 <0>         0.5648
     16 O3          5.0992    0.1956   -0.1389 O.2       1 <0>        -0.5327
     17 N3         -2.4785    0.9730    0.0914 N.pl3     1 <0>         0.0312
     18 O4         -2.4654   -0.2174   -0.1661 O.2       1 <0>        -0.1592
     19 O5         -3.5394    1.5509    0.2465 O.3       1 <0>        -0.1538
     20 S1         -2.7587    3.9092    0.7460 S.3       1 <0>         0.2381
     21 C12        -3.1742    3.3403    2.3611 C.2       1 <0>         0.1355
     22 N4         -2.4667    2.5944    3.1795 N.2       1 <0>        -0.5220
     23 C13        -2.9137    2.2343    4.4019 C.ar      1 <0>         0.1559
     24 C14        -2.2560    1.4457    5.3743 C.ar      1 <0>        -0.0681
     25 C15        -2.8581    1.1663    6.5733 C.ar      1 <0>        -0.0479
     26 C16        -4.1251    1.6432    6.8767 C.ar      1 <0>        -0.0449
     27 C17        -4.7973    2.4180    5.9490 C.ar      1 <0>         0.0232
     28 C18        -4.2024    2.7026    4.7455 C.ar      1 <0>        -0.1805
     29 S2         -4.6683    3.6243    3.2998 S.3       1 <0>         0.0962
     30 N5         -4.7508    1.3265    8.1800 N.pl3     1 <0>         0.0356
     31 O6         -5.8633    1.7487    8.4401 O.2       1 <0>        -0.1609
     32 O7         -4.1533    0.6436    8.9925 O.3       1 <0>        -0.1549
     33 H1          2.0927    3.6999    0.5392 H         1 <0>         0.1490
     34 H2         -0.0442    4.8434    0.8561 H         1 <0>         0.1566
     35 H3         -0.0063    0.0134   -0.1865 H         1 <0>         0.1596
     36 H4          2.5998    0.1315    0.4422 H         1 <0>         0.1534
     37 H5          6.7349    1.3849   -1.6074 H         1 <0>         0.4232
     38 H6         -1.2686    1.0588    5.1696 H         1 <0>         0.1549
     39 H7         -2.3343    0.5614    7.2986 H         1 <0>         0.1619
     40 H8         -5.7841    2.7969    6.1705 H         1 <0>         0.1623
@<TRIPOS>BOND
     1    1    6 ar
     2    1    2 ar
     3    1   33 1
     4    2    3 ar
     5    2   34 1
     6    3    4 ar
     7    3   20 1
     8    4    5 ar
     9    4   17 1
    10    5    6 ar
    11    5   35 1
    12    6    7 1
    13    7    8 2
    14    7   36 1
    15    8   15 1
    16    8    9 1
    17    9   10 1
    18    9   11 2
    19   11   12 1
    20   12   13 2
    21   12   14 am
    22   14   15 am
    23   14   37 1
    24   15   16 2
    25   17   18 2
    26   17   19 1
    27   20   21 1
    28   21   29 1
    29   21   22 2
    30   22   23 1
    31   23   28 ar
    32   23   24 ar
    33   24   25 ar
    34   24   38 1
    35   25   26 ar
    36   25   39 1
    37   26   27 ar
    38   26   30 1
    39   27   28 ar
    40   27   40 1
    41   28   29 1
    42   30   31 2
    43   30   32 1
@<TRIPOS>MOLECULE
ZINC03097194
   40    43     0     0     0
SMALL
USER_CHARGES
5-[[3-nitro-4-[(6-nitro-1,3-benzothiazol-2-yl)sulfanyl]phenyl]methylene]hexahydropyrimidine-2,4,6-trione
@<TRIPOS>ATOM
      1 C1          1.1672    3.1502    0.4511 C.ar      1 <0>         0.0001
      2 C2         -0.0258    3.7879    0.6283 C.ar      1 <0>        -0.0534
      3 C3         -1.2215    3.0794    0.5154 C.ar      1 <0>        -0.1132
      4 C4         -1.2052    1.7173    0.2158 C.ar      1 <0>         0.0077
      5 C5         -0.0179    1.0689    0.0418 C.ar      1 <0>        -0.0446
      6 C6          1.1895    1.7778    0.1545 C.ar      1 <0>        -0.0149
      7 C7          2.4270    1.1097   -0.0303 C.2       1 <0>        -0.0062
      8 C8          3.4164    1.6881   -0.8046 C.2       1 <0>        -0.2198
      9 C9          3.1396    2.8574   -1.6613 C.2       1 <0>         0.5617
     10 O1          2.0271    3.3471   -1.7100 O.2       1 <0>        -0.5368
     11 N1          4.1554    3.3716   -2.3848 N.am      1 <0>        -0.6997
     12 C10         5.3845    2.8385   -2.3451 C.2       1 <0>         0.6616
     13 O2          6.2538    3.3466   -3.0258 O.3       1 <0>        -0.5826
     14 N2          5.7065    1.7751   -1.5955 N.2       1 <0>        -0.7009
     15 C11         4.7943    1.1596   -0.8153 C.2       1 <0>         0.5298
     16 O3          5.0992    0.1956   -0.1389 O.2       1 <0>        -0.5510
     17 N3         -2.4785    0.9730    0.0914 N.pl3     1 <0>         0.0289
     18 O4         -2.4654   -0.2174   -0.1661 O.2       1 <0>        -0.1550
     19 O5         -3.5394    1.5509    0.2465 O.3       1 <0>        -0.1515
     20 S1         -2.7587    3.9092    0.7460 S.3       1 <0>         0.2344
     21 C12        -3.1742    3.3403    2.3611 C.2       1 <0>         0.1335
     22 N4         -2.4667    2.5944    3.1795 N.2       1 <0>        -0.5204
     23 C13        -2.9137    2.2343    4.4019 C.ar      1 <0>         0.1538
     24 C14        -2.2560    1.4457    5.3743 C.ar      1 <0>        -0.0667
     25 C15        -2.8581    1.1663    6.5733 C.ar      1 <0>        -0.0478
     26 C16        -4.1251    1.6432    6.8767 C.ar      1 <0>        -0.0429
     27 C17        -4.7973    2.4180    5.9490 C.ar      1 <0>         0.0222
     28 C18        -4.2024    2.7026    4.7455 C.ar      1 <0>        -0.1792
     29 S2         -4.6683    3.6243    3.2998 S.3       1 <0>         0.0979
     30 N5         -4.7508    1.3265    8.1800 N.pl3     1 <0>         0.0350
     31 O6         -5.8633    1.7487    8.4401 O.2       1 <0>        -0.1602
     32 O7         -4.1533    0.6436    8.9925 O.3       1 <0>        -0.1533
     33 H1          2.0927    3.6999    0.5392 H         1 <0>         0.1457
     34 H2         -0.0442    4.8434    0.8561 H         1 <0>         0.1563
     35 H3         -0.0063    0.0134   -0.1865 H         1 <0>         0.1623
     36 H4          2.5998    0.1315    0.4422 H         1 <0>         0.1655
     37 H5         -1.2686    1.0588    5.1696 H         1 <0>         0.1556
     38 H6         -2.3343    0.5614    7.2986 H         1 <0>         0.1628
     39 H7         -5.7841    2.7969    6.1705 H         1 <0>         0.1627
     40 H8          3.9848    4.2486   -3.0264 H         1 <0>         0.4224
@<TRIPOS>BOND
     1    1    6 ar
     2    1    2 ar
     3    1   33 1
     4    2    3 ar
     5    2   34 1
     6    3    4 ar
     7    3   20 1
     8    4    5 ar
     9    4   17 1
    10    5    6 ar
    11    5   35 1
    12    6    7 1
    13    7    8 2
    14    7   36 1
    15    8   15 1
    16    8    9 1
    17    9   10 2
    18    9   11 am
    19   11   12 1
    20   11   40 1
    21   12   13 1
    22   12   14 2
    23   14   15 1
    24   15   16 2
    25   17   18 2
    26   17   19 1
    27   20   21 1
    28   21   29 1
    29   21   22 2
    30   22   23 1
    31   23   28 ar
    32   23   24 ar
    33   24   25 ar
    34   24   37 1
    35   25   26 ar
    36   25   38 1
    37   26   27 ar
    38   26   30 1
    39   27   28 ar
    40   27   39 1
    41   28   29 1
    42   30   31 2
    43   30   32 1
@<TRIPOS>MOLECULE
ZINC01642928
   35    37     0     0     0
SMALL
USER_CHARGES

@<TRIPOS>ATOM
      1 C1         -0.0167    1.3827    0.0096 C.ar      1 <0>        -0.1586
      2 C2          1.1766    2.0854    0.0020 C.ar      1 <0>        -0.0540
      3 C3          2.3708    1.3579   -0.0141 C.ar      1 <0>        -0.0755
      4 C4          2.3035   -0.0486   -0.0244 C.ar      1 <0>         0.0629
      5 N1          1.1372   -0.6719   -0.0141 N.ar      1 <0>        -0.4432
      6 C5          0.0021   -0.0041    0.0020 C.ar      1 <0>         0.0795
      7 C6          3.5802   -0.8075   -0.0506 C.2       1 <0>         0.4631
      8 O1          3.6593   -1.9560    0.3349 O.2       1 <0>        -0.4147
      9 C7          4.7668   -0.0579   -0.5869 C.2       1 <0>         0.2011
     10 N2          5.7005   -0.6523   -1.2796 N.2       1 <0>        -0.5409
     11 C8          6.8407    0.1171   -1.7837 C.3       1 <0>         0.0470
     12 C9          8.1241   -0.3723   -1.1098 C.3       1 <0>        -0.0735
     13 C10         9.2971    0.4192   -1.6283 C.ar      1 <0>        -0.0658
     14 C11         9.9847   -0.0178   -2.7453 C.ar      1 <0>        -0.0592
     15 C12        11.0613    0.7059   -3.2228 C.ar      1 <0>        -0.1127
     16 C13        11.4514    1.8725   -2.5803 C.ar      1 <0>         0.1513
     17 C14        10.7590    2.3091   -1.4596 C.ar      1 <0>        -0.1105
     18 C15         9.6800    1.5841   -0.9895 C.ar      1 <0>        -0.0560
     19 Br1        11.2867    3.8981   -0.5806 Br        1 <0>        -0.0277
     20 O2         12.5099    2.5860   -3.0474 O.3       1 <0>        -0.4755
     21 Br2        12.0020    0.1067   -4.7499 Br        1 <0>        -0.0318
     22 C16         4.8197    1.3829   -0.2896 C.2       1 <0>        -0.4539
     23 C17         3.6705    2.0463   -0.0191 C.2       1 <0>         0.3018
     24 O3          3.7189    3.3731    0.2520 O.3       1 <0>        -0.6915
     25 H1         -0.9579    1.9122    0.0260 H         1 <0>         0.1361
     26 H2          1.1847    3.1654    0.0080 H         1 <0>         0.1472
     27 H3         -0.9317   -0.5466    0.0095 H         1 <0>         0.1579
     28 H4          6.9222   -0.0184   -2.8622 H         1 <0>         0.0723
     29 H5          6.6932    1.1738   -1.5604 H         1 <0>         0.0617
     30 H6          8.0426   -0.2367   -0.0313 H         1 <0>         0.0782
     31 H7          8.2716   -1.4289   -1.3331 H         1 <0>         0.0837
     32 H8          9.6807   -0.9258   -3.2449 H         1 <0>         0.1445
     33 H9          9.1383    1.9255   -0.1198 H         1 <0>         0.1463
     34 H10        12.2733    3.2590   -3.7002 H         1 <0>         0.3951
     35 H11         5.7650    1.9053   -0.2868 H         1 <0>         0.1154
@<TRIPOS>BOND
     1    1    6 ar
     2    1    2 ar
     3    1   25 1
     4    2    3 ar
     5    2   26 1
     6    3   23 1
     7    3    4 ar
     8    4    5 ar
     9    4    7 1
    10    5    6 ar
    11    6   27 1
    12    7    8 2
    13    7    9 1
    14    9   10 2
    15    9   22 1
    16   10   11 1
    17   11   12 1
    18   11   28 1
    19   11   29 1
    20   12   13 1
    21   12   30 1
    22   12   31 1
    23   13   18 ar
    24   13   14 ar
    25   14   15 ar
    26   14   32 1
    27   15   16 ar
    28   15   21 1
    29   16   17 ar
    30   16   20 1
    31   17   18 ar
    32   17   19 1
    33   18   33 1
    34   20   34 1
    35   22   23 2
    36   22   35 1
    37   23   24 1
@<TRIPOS>MOLECULE
ZINC01642928
   35    37     0     0     0
SMALL
USER_CHARGES

@<TRIPOS>ATOM
      1 C1         -0.0522    0.8971    0.5348 C.ar      1 <0>        -0.1546
      2 C2          1.0527    1.7045    0.3165 C.ar      1 <0>        -0.0269
      3 C3          2.3081    1.0944    0.2233 C.ar      1 <0>        -0.1731
      4 C4          2.3970   -0.3034    0.3632 C.ar      1 <0>         0.1113
      5 N1          1.3075   -1.0282    0.5639 N.ar      1 <0>        -0.4401
      6 C5          0.1156   -0.4742    0.6511 C.ar      1 <0>         0.1227
      7 C6          3.7308   -0.9584    0.2948 C.2       1 <0>         0.4532
      8 O1          3.8842   -2.1215    0.6071 O.2       1 <0>        -0.3774
      9 C7          4.8731   -0.1177   -0.1768 C.2       1 <0>         0.0992
     10 N2          5.8027   -0.5931   -0.9343 N.2       1 <0>        -0.4200
     11 C8          6.9808    0.2199   -1.2462 C.3       1 <0>         0.0204
     12 C9          6.9920    0.5493   -2.7403 C.3       1 <0>        -0.0392
     13 C10         8.2039    1.3856   -3.0612 C.ar      1 <0>        -0.2346
     14 C11         8.1299    2.7643   -2.9878 C.ar      1 <0>        -0.0195
     15 C12         9.2399    3.5339   -3.2820 C.ar      1 <0>        -0.2200
     16 C13        10.4293    2.9215   -3.6509 C.ar      1 <0>         0.3082
     17 C14        10.5008    1.5375   -3.7233 C.ar      1 <0>        -0.2204
     18 C15         9.3892    0.7726   -3.4229 C.ar      1 <0>        -0.0171
     19 Br1        12.1194    0.6984   -4.2254 Br        1 <0>        -0.0890
     20 O2         11.5222    3.6759   -3.9412 O.3       1 <0>        -0.6649
     21 Br2         9.1374    5.4195   -3.1826 Br        1 <0>        -0.0891
     22 C16         4.8761    1.3289    0.2867 C.3       1 <0>        -0.1753
     23 C17         3.5119    1.9067   -0.0216 C.2       1 <0>         0.4116
     24 O3          3.4107    3.0296   -0.4671 O.2       1 <0>        -0.4237
     25 H1         -1.0365    1.3334    0.6184 H         1 <0>         0.1512
     26 H2          0.9474    2.7750    0.2205 H         1 <0>         0.1549
     27 H3         -0.7483   -1.1008    0.8168 H         1 <0>         0.1718
     28 H4          6.9467    1.1448   -0.6705 H         1 <0>         0.0636
     29 H5          7.8833   -0.3348   -0.9896 H         1 <0>         0.1090
     30 H6          7.0260   -0.3756   -3.3160 H         1 <0>         0.0724
     31 H7          6.0895    1.1040   -2.9968 H         1 <0>         0.0593
     32 H8          7.2040    3.2403   -2.7006 H         1 <0>         0.1052
     33 H9          9.4454   -0.3047   -3.4752 H         1 <0>         0.1077
     34 H10         5.0635    1.3737    1.3596 H         1 <0>         0.1335
     35 H11         5.6444    1.8875   -0.2479 H         1 <0>         0.1298
@<TRIPOS>BOND
     1    1    6 ar
     2    1    2 ar
     3    1   25 1
     4    2    3 ar
     5    2   26 1
     6    3   23 1
     7    3    4 ar
     8    4    5 ar
     9    4    7 1
    10    5    6 ar
    11    6   27 1
    12    7    8 2
    13    7    9 1
    14    9   10 2
    15    9   22 1
    16   10   11 1
    17   11   12 1
    18   11   28 1
    19   11   29 1
    20   12   13 1
    21   12   30 1
    22   12   31 1
    23   13   18 ar
    24   13   14 ar
    25   14   15 ar
    26   14   32 1
    27   15   16 ar
    28   15   21 1
    29   16   17 ar
    30   16   20 1
    31   17   18 ar
    32   17   19 1
    33   18   33 1
    34   22   23 1
    35   22   34 1
    36   22   35 1
    37   23   24 2
@<TRIPOS>MOLECULE
ZINC01642928
   36    38     0     0     0
SMALL
USER_CHARGES

@<TRIPOS>ATOM
      1 C1          2.8621   -5.0362   -4.1390 C.ar      1 <0>        -0.1508
      2 C2          4.0460   -4.3682   -4.4082 C.ar      1 <0>        -0.0245
      3 C3          4.3637   -3.2489   -3.6317 C.ar      1 <0>        -0.1791
      4 C4          3.4694   -2.8453   -2.6224 C.ar      1 <0>         0.1099
      5 N1          2.3546   -3.5247   -2.4030 N.ar      1 <0>        -0.4383
      6 C5          2.0383   -4.5834   -3.1200 C.ar      1 <0>         0.1281
      7 C6          3.7841   -1.6391   -1.8107 C.2       1 <0>         0.4498
      8 O1          2.9606   -1.1366   -1.0737 O.2       1 <0>        -0.3689
      9 C7          5.1618   -1.0750   -1.9446 C.2       1 <0>         0.1193
     10 N2          5.8027   -0.5931   -0.9343 N.2       1 <0>        -0.4288
     11 C8          7.0840    0.0876   -1.1365 C.3       1 <0>         0.0214
     12 C9          8.2026   -0.7261   -0.4826 C.3       1 <0>        -0.0740
     13 C10         9.5207   -0.0258   -0.6906 C.ar      1 <0>        -0.0839
     14 C11        10.2806   -0.3044   -1.8115 C.ar      1 <0>        -0.0580
     15 C12        11.4904    0.3361   -2.0047 C.ar      1 <0>        -0.1139
     16 C13        11.9416    1.2598   -1.0725 C.ar      1 <0>         0.1637
     17 C14        11.1765    1.5378    0.0514 C.ar      1 <0>        -0.1140
     18 C15         9.9651    0.8982    0.2369 C.ar      1 <0>        -0.0546
     19 Br1        11.7872    2.7958    1.3245 Br        1 <0>        -0.0186
     20 O2         13.1310    1.8908   -1.2598 O.3       1 <0>        -0.4729
     21 Br2        12.5296   -0.0465   -3.5375 Br        1 <0>        -0.0187
     22 C16         5.7640   -1.1024   -3.3390 C.3       1 <0>        -0.1766
     23 C17         5.6167   -2.5121   -3.8690 C.2       1 <0>         0.4133
     24 O3          6.5233   -3.0313   -4.4839 O.2       1 <0>        -0.4247
     25 H1          2.5810   -5.9009   -4.7218 H         1 <0>         0.1543
     26 H2          4.7053   -4.7028   -5.1955 H         1 <0>         0.1560
     27 H3          1.1185   -5.1091   -2.9101 H         1 <0>         0.1750
     28 H4          7.2805    0.1825   -2.2045 H         1 <0>         0.0666
     29 H5          7.0441    1.0789   -0.6850 H         1 <0>         0.1113
     30 H6          8.0062   -0.8209    0.5854 H         1 <0>         0.0959
     31 H7          8.2425   -1.7173   -0.9341 H         1 <0>         0.0824
     32 H8          9.9290   -1.0234   -2.5367 H         1 <0>         0.1441
     33 H9          9.3674    1.1171    1.1094 H         1 <0>         0.1467
     34 H10        13.0633    2.7190   -1.7543 H         1 <0>         0.3998
     35 H11         5.2312   -0.4058   -3.9863 H         1 <0>         0.1380
     36 H12         6.8191   -0.8327   -3.2921 H         1 <0>         0.1247
@<TRIPOS>BOND
     1    1    6 ar
     2    1    2 ar
     3    1   25 1
     4    2    3 ar
     5    2   26 1
     6    3   23 1
     7    3    4 ar
     8    4    5 ar
     9    4    7 1
    10    5    6 ar
    11    6   27 1
    12    7    8 2
    13    7    9 1
    14    9   10 2
    15    9   22 1
    16   10   11 1
    17   11   12 1
    18   11   28 1
    19   11   29 1
    20   12   13 1
    21   12   30 1
    22   12   31 1
    23   13   18 ar
    24   13   14 ar
    25   14   15 ar
    26   14   32 1
    27   15   16 ar
    28   15   21 1
    29   16   17 ar
    30   16   20 1
    31   17   18 ar
    32   17   19 1
    33   18   33 1
    34   20   34 1
    35   22   23 1
    36   22   35 1
    37   22   36 1
    38   23   24 2
@<TRIPOS>MOLECULE
ZINC01642928
   36    38     0     0     0
SMALL
USER_CHARGES

@<TRIPOS>ATOM
      1 C1          9.8274   -1.5522    3.7083 C.ar      1 <0>        -0.1491
      2 C2          8.8779   -0.5582    3.5333 C.ar      1 <0>        -0.0258
      3 C3          8.2588   -0.4492    2.2836 C.ar      1 <0>        -0.1765
      4 C4          8.6302   -1.3418    1.2605 C.ar      1 <0>         0.0993
      5 N1          9.5390   -2.2781    1.4843 N.ar      1 <0>        -0.4392
      6 C5         10.1313   -2.4003    2.6546 C.ar      1 <0>         0.1247
      7 C6          7.9989   -1.2154   -0.0804 C.2       1 <0>         0.4006
      8 O1          8.4245   -1.8211   -1.0427 O.2       1 <0>        -0.3830
      9 C7          6.8159   -0.3082   -0.1876 C.2       1 <0>         0.1228
     10 C8          6.8752    0.9694    0.6322 C.3       1 <0>        -0.1120
     11 C9          7.2334    0.5819    2.0505 C.2       1 <0>         0.4091
     12 O2          6.6800    1.1158    2.9877 O.2       1 <0>        -0.4209
     13 N2          5.8030   -0.5935   -0.9336 N.2       1 <0>        -0.4246
     14 C10         5.7231   -1.8997   -1.5921 C.3       1 <0>         0.0177
     15 C11         5.8068   -1.7124   -3.1083 C.3       1 <0>        -0.0661
     16 C12         5.7246   -3.0560   -3.7857 C.ar      1 <0>        -0.0833
     17 C13         6.8793   -3.7737   -4.0372 C.ar      1 <0>        -0.0521
     18 C14         6.8069   -5.0063   -4.6589 C.ar      1 <0>        -0.1143
     19 C15         5.5737   -5.5234   -5.0301 C.ar      1 <0>         0.1625
     20 C16         4.4163   -4.8010   -4.7760 C.ar      1 <0>        -0.1154
     21 C17         4.4942   -3.5713   -4.1494 C.ar      1 <0>        -0.0562
     22 Br1         2.7337   -5.5015   -5.2800 Br        1 <0>        -0.0208
     23 O3          5.4996   -6.7350   -5.6420 O.3       1 <0>        -0.4732
     24 Br2         8.3867   -5.9866   -5.0036 Br        1 <0>        -0.0199
     25 H1         10.3305   -1.6625    4.6575 H         1 <0>         0.1541
     26 H2          8.6226    0.1135    4.3395 H         1 <0>         0.1569
     27 H3         10.8686   -3.1767    2.7959 H         1 <0>         0.1736
     28 H4          7.6372    1.6348    0.2264 H         1 <0>         0.1370
     29 H5          5.9042    1.4643    0.6174 H         1 <0>         0.1332
     30 H6          6.5495   -2.5265   -1.2572 H         1 <0>         0.0675
     31 H7          4.7775   -2.3780   -1.3368 H         1 <0>         0.1042
     32 H8          4.9804   -1.0855   -3.4431 H         1 <0>         0.0927
     33 H9          6.7524   -1.2340   -3.3636 H         1 <0>         0.0849
     34 H10         7.8387   -3.3708   -3.7481 H         1 <0>         0.1465
     35 H11         3.5936   -3.0105   -3.9477 H         1 <0>         0.1457
     36 H12         5.4060   -7.4789   -5.0313 H         1 <0>         0.3990
@<TRIPOS>BOND
     1    1    6 ar
     2    1    2 ar
     3    1   25 1
     4    2    3 ar
     5    2   26 1
     6    3   11 1
     7    3    4 ar
     8    4    5 ar
     9    4    7 1
    10    5    6 ar
    11    6   27 1
    12    7    8 2
    13    7    9 1
    14    9   13 2
    15    9   10 1
    16   10   11 1
    17   10   28 1
    18   10   29 1
    19   11   12 2
    20   13   14 1
    21   14   15 1
    22   14   30 1
    23   14   31 1
    24   15   16 1
    25   15   32 1
    26   15   33 1
    27   16   21 ar
    28   16   17 ar
    29   17   18 ar
    30   17   34 1
    31   18   19 ar
    32   18   24 1
    33   19   20 ar
    34   19   23 1
    35   20   21 ar
    36   20   22 1
    37   21   35 1
    38   23   36 1
@<TRIPOS>MOLECULE
ZINC01642928
   36    38     0     0     0
SMALL
USER_CHARGES

@<TRIPOS>ATOM
      1 C1         -0.0167    1.3798    0.0096 C.ar      1 <0>        -0.1459
      2 C2          1.1842    2.0792    0.0019 C.ar      1 <0>        -0.0284
      3 C3          2.3670    1.3466   -0.0130 C.ar      1 <0>        -0.1656
      4 C4          2.3062   -0.0567   -0.0196 C.ar      1 <0>         0.0984
      5 N1          1.1372   -0.6750   -0.0125 N.ar      1 <0>        -0.4361
      6 C5          0.0021   -0.0041    0.0020 C.ar      1 <0>         0.1162
      7 C6          3.5771   -0.8241   -0.0342 C.2       1 <0>         0.4362
      8 O1          3.5759   -2.0118   -0.2836 O.2       1 <0>        -0.3884
      9 C7          4.8501   -0.1176    0.2602 C.2       1 <0>         0.1856
     10 N2          5.9906   -0.8417    0.5297 N.pl3     1 <0>        -0.7016
     11 C8          7.2475   -0.1474    0.8204 C.3       1 <0>         0.1173
     12 C9          8.3494   -1.1760    1.0823 C.3       1 <0>        -0.0913
     13 C10         9.6424   -0.4619    1.3813 C.ar      1 <0>        -0.0833
     14 C11        10.5043   -0.1349    0.3509 C.ar      1 <0>        -0.0549
     15 C12        11.6912    0.5198    0.6223 C.ar      1 <0>        -0.1145
     16 C13        12.0170    0.8492    1.9305 C.ar      1 <0>         0.1653
     17 C14        11.1497    0.5202    2.9627 C.ar      1 <0>        -0.1146
     18 C15         9.9618   -0.1299    2.6849 C.ar      1 <0>        -0.0550
     19 Br1        11.5893    0.9670    4.7468 Br        1 <0>        -0.0184
     20 O2         13.1836    1.4926    2.2003 O.3       1 <0>        -0.4732
     21 Br2        12.8700    0.9655   -0.7875 Br        1 <0>        -0.0181
     22 C16         4.8936    1.2371    0.2640 C.2       1 <0>        -0.3043
     23 C17         3.6873    2.0173   -0.0216 C.2       1 <0>         0.4404
     24 O3          3.7694    3.2062   -0.2643 O.2       1 <0>        -0.4448
     25 H1         -0.9565    1.9116    0.0259 H         1 <0>         0.1533
     26 H2          1.1989    3.1591    0.0070 H         1 <0>         0.1564
     27 H3         -0.9323   -0.5457    0.0078 H         1 <0>         0.1732
     28 H4          7.5250    0.4735   -0.0314 H         1 <0>         0.0791
     29 H5          7.1200    0.4809    1.7019 H         1 <0>         0.0792
     30 H6          8.0719   -1.7969    1.9341 H         1 <0>         0.0910
     31 H7          8.4769   -1.8044    0.2008 H         1 <0>         0.0913
     32 H8         10.2502   -0.3915   -0.6669 H         1 <0>         0.1456
     33 H9          9.2846   -0.3826    3.4874 H         1 <0>         0.1456
     34 H10        13.1139    2.4570    2.1838 H         1 <0>         0.4006
     35 H11         5.8226    1.7440    0.4795 H         1 <0>         0.1511
     36 H12         5.9614   -1.8112    0.5271 H         1 <0>         0.4127
@<TRIPOS>BOND
     1    1    6 ar
     2    1    2 ar
     3    1   25 1
     4    2    3 ar
     5    2   26 1
     6    3   23 1
     7    3    4 ar
     8    4    5 ar
     9    4    7 1
    10    5    6 ar
    11    6   27 1
    12    7    8 2
    13    7    9 1
    14    9   10 1
    15    9   22 2
    16   10   11 1
    17   10   36 1
    18   11   12 1
    19   11   28 1
    20   11   29 1
    21   12   13 1
    22   12   30 1
    23   12   31 1
    24   13   18 ar
    25   13   14 ar
    26   14   15 ar
    27   14   32 1
    28   15   16 ar
    29   15   21 1
    30   16   17 ar
    31   16   20 1
    32   17   18 ar
    33   17   19 1
    34   18   33 1
    35   20   34 1
    36   22   23 1
    37   22   35 1
    38   23   24 2
@<TRIPOS>MOLECULE
ZINC13587215
   66    67     0     0     0
SMALL
USER_CHARGES
2-[4-[(2S)-2-acetamido-3-[4-(3-hydroxy-2-methoxycarbonyl-phenoxy)butylamino]-3-oxo-propyl]-2-hydroxy-phenoxy]acetic acid
@<TRIPOS>ATOM
      1 C1         -1.2145    3.6256    0.0275 C.3       1 <0>        -0.1752
      2 C2         -1.1940    2.1187    0.0192 C.2       1 <0>         0.5181
      3 O1         -2.2360    1.4981    0.0208 O.2       1 <0>        -0.5182
      4 N1         -0.0178    1.4608    0.0101 N.am      1 <0>        -0.7194
      5 C3          0.0021   -0.0041    0.0020 C.3       1 <0>         0.1420
      6 H1          1.0345   -0.3534   -0.0097 H         1 <0>         0.1088
      7 C4         -0.7002   -0.5305    1.2552 C.3       1 <0>        -0.0820
      8 C5          0.0843   -0.1279    2.4773 C.ar      1 <0>        -0.1215
      9 C6         -0.1894    1.0713    3.1084 C.ar      1 <0>        -0.0706
     10 C7          0.5274    1.4452    4.2298 C.ar      1 <0>        -0.2021
     11 C8          1.5225    0.6171    4.7239 C.ar      1 <0>         0.1180
     12 C9          1.7976   -0.5902    4.0889 C.ar      1 <0>         0.0671
     13 C10         1.0721   -0.9612    2.9681 C.ar      1 <0>        -0.1038
     14 O2          2.7733   -1.4064    4.5700 O.3       1 <0>        -0.4843
     15 O3          2.2283    0.9831    5.8272 O.3       1 <0>        -0.2765
     16 C11         1.8911    2.2355    6.4270 C.3       1 <0>         0.0158
     17 C12         2.7710    2.4706    7.6277 C.2       1 <0>         0.4690
     18 O4          3.6016    1.6498    7.9379 O.co2     1 <0>        -0.6117
     19 C13        -0.7132   -0.5094   -1.2244 C.2       1 <0>         0.5019
     20 O5         -1.4901    0.2118   -1.8136 O.2       1 <0>        -0.5047
     21 N2         -0.4894   -1.7628   -1.6665 N.am      1 <0>        -0.7359
     22 C14        -1.1847   -2.2540   -2.8587 C.3       1 <0>         0.1228
     23 C15        -0.7550   -3.6948   -3.1424 C.3       1 <0>        -0.1275
     24 C16        -1.4811   -4.2078   -4.3875 C.3       1 <0>        -0.1175
     25 C17        -1.0514   -5.6486   -4.6712 C.3       1 <0>         0.0587
     26 O6         -1.7296   -6.1278   -5.8341 O.3       1 <0>        -0.3084
     27 C18        -1.4590   -7.3981   -6.2252 C.ar      1 <0>         0.1903
     28 C19        -0.5601   -8.1702   -5.5071 C.ar      1 <0>        -0.2187
     29 C20        -0.2825   -9.4651   -5.9035 C.ar      1 <0>        -0.0378
     30 C21        -0.8965  -10.0044   -7.0189 C.ar      1 <0>        -0.1825
     31 C22        -1.7984   -9.2508   -7.7517 C.ar      1 <0>         0.1873
     32 C23        -2.0926   -7.9372   -7.3550 C.ar      1 <0>        -0.1752
     33 C24        -3.0536   -7.1294   -8.1214 C.2       1 <0>         0.5310
     34 O7         -2.6679   -6.4413   -9.0461 O.2       1 <0>        -0.4877
     35 O8         -4.3620   -7.1523   -7.7983 O.3       1 <0>        -0.3531
     36 C25        -5.2529   -6.3304   -8.5977 C.3       1 <0>         0.0342
     37 O9         -2.3997   -9.7824   -8.8453 O.3       1 <0>        -0.4893
     38 H2         -0.7098    4.0007   -0.8628 H         1 <0>         0.0848
     39 H3         -2.2469    3.9749    0.0343 H         1 <0>         0.0906
     40 H4         -0.7014    3.9910    0.9171 H         1 <0>         0.0878
     41 H5          0.8156    1.9572    0.0048 H         1 <0>         0.4060
     42 H6         -1.7041   -0.1098    1.3130 H         1 <0>         0.1001
     43 H7         -0.7641   -1.6176    1.2063 H         1 <0>         0.0795
     44 H8         -0.9647    1.7177    2.7243 H         1 <0>         0.1182
     45 H9          0.3116    2.3825    4.7209 H         1 <0>         0.1331
     46 H10         1.2811   -1.8993    2.4757 H         1 <0>         0.1297
     47 H11         2.4625   -2.0480    5.2234 H         1 <0>         0.3845
     48 H12         2.0416    3.0370    5.7037 H         1 <0>         0.0668
     49 H13         0.8469    2.2194    6.7393 H         1 <0>         0.0665
     50 H14         0.1320   -2.3396   -1.1953 H         1 <0>         0.3997
     51 H15        -2.2612   -2.2224   -2.6904 H         1 <0>         0.0692
     52 H16        -0.9318   -1.6248   -3.7120 H         1 <0>         0.0677
     53 H17         0.3215   -3.7264   -3.3107 H         1 <0>         0.0748
     54 H18        -1.0079   -4.3241   -2.2891 H         1 <0>         0.0756
     55 H19        -2.5576   -4.1762   -4.2192 H         1 <0>         0.0804
     56 H20        -1.2282   -3.5786   -5.2408 H         1 <0>         0.0798
     57 H21         0.0251   -5.6802   -4.8395 H         1 <0>         0.0700
     58 H22        -1.3044   -6.2779   -3.8179 H         1 <0>         0.0709
     59 H23        -0.0743   -7.7588   -4.6348 H         1 <0>         0.1419
     60 H24         0.4195  -10.0598   -5.3379 H         1 <0>         0.1398
     61 H25        -0.6722  -11.0172   -7.3196 H         1 <0>         0.1417
     62 H26        -4.9504   -5.2860   -8.5210 H         1 <0>         0.0652
     63 H27        -5.2029   -6.6475   -9.6394 H         1 <0>         0.0643
     64 H28        -6.2741   -6.4406   -8.2330 H         1 <0>         0.1039
     65 H29        -3.2338  -10.2332   -8.6553 H         1 <0>         0.4004
     66 O10         2.6319    3.5918    8.3525 O.co2     1 <0>        -0.7547
@<TRIPOS>BOND
     1    1    2 1
     2    1   38 1
     3    1   39 1
     4    1   40 1
     5    2    3 2
     6    2    4 am
     7    4    5 1
     8    4   41 1
     9    5    6 1
    10    5    7 1
    11    5   19 1
    12    7    8 1
    13    7   42 1
    14    7   43 1
    15    8   13 ar
    16    8    9 ar
    17    9   10 ar
    18    9   44 1
    19   10   11 ar
    20   10   45 1
    21   11   12 ar
    22   11   15 1
    23   12   13 ar
    24   12   14 1
    25   13   46 1
    26   14   47 1
    27   15   16 1
    28   16   17 1
    29   16   48 1
    30   16   49 1
    31   17   18 2
    32   17   66 1
    33   19   20 2
    34   19   21 am
    35   21   22 1
    36   21   50 1
    37   22   23 1
    38   22   51 1
    39   22   52 1
    40   23   24 1
    41   23   53 1
    42   23   54 1
    43   24   25 1
    44   24   55 1
    45   24   56 1
    46   25   26 1
    47   25   57 1
    48   25   58 1
    49   26   27 1
    50   27   32 ar
    51   27   28 ar
    52   28   29 ar
    53   28   59 1
    54   29   30 ar
    55   29   60 1
    56   30   31 ar
    57   30   61 1
    58   31   32 ar
    59   31   37 1
    60   32   33 1
    61   33   34 2
    62   33   35 1
    63   35   36 1
    64   36   62 1
    65   36   63 1
    66   36   64 1
    67   37   65 1
@<TRIPOS>MOLECULE
ZINC15055845
   35    37     0     0     0
SMALL
USER_CHARGES
(5Z)-5-[(2-benzyloxy-5-bromo-phenyl)methylene]thiazolidine-2,4-dione
@<TRIPOS>ATOM
      1 C1          5.8276   -2.0337    1.2197 C.ar      1 <0>        -0.1049
      2 C2          5.2863   -1.4485    2.3490 C.ar      1 <0>        -0.1224
      3 C3          4.0457   -0.8421    2.2862 C.ar      1 <0>        -0.0932
      4 C4          3.3463   -0.8208    1.0939 C.ar      1 <0>        -0.1043
      5 C5          3.8853   -1.4106   -0.0341 C.ar      1 <0>        -0.0932
      6 C6          5.1285   -2.0121    0.0274 C.ar      1 <0>        -0.1225
      7 C7          1.9936   -0.1601    1.0255 C.3       1 <0>         0.0992
      8 O1          2.1533    1.2174    0.6803 O.3       1 <0>        -0.2969
      9 C8          1.0229    1.9616    0.5764 C.ar      1 <0>         0.1886
     10 C9         -0.2152    1.3818    0.8014 C.ar      1 <0>        -0.2083
     11 C10        -1.3658    2.1386    0.6904 C.ar      1 <0>        -0.0199
     12 C11        -1.2927    3.4843    0.3652 C.ar      1 <0>        -0.1306
     13 C12        -0.0704    4.0794    0.1376 C.ar      1 <0>        -0.0250
     14 C13         1.1031    3.3231    0.2410 C.ar      1 <0>        -0.1239
     15 C14         2.4088    3.9488   -0.0002 C.2       1 <0>         0.0953
     16 C15         2.4833    5.1275   -0.6693 C.2       1 <0>        -0.2241
     17 C16         3.6465    6.0068   -0.8999 C.2       1 <0>         0.5627
     18 O2          4.7515    5.7308   -0.4708 O.2       1 <0>        -0.4684
     19 N1          3.4274    7.1092   -1.5966 N.am      1 <0>        -0.6845
     20 C17         2.2014    7.4112   -2.0703 C.2       1 <0>         0.5402
     21 O3          1.8603    8.3816   -2.7195 O.2       1 <0>        -0.4153
     22 S1          1.2016    6.0378   -1.5202 S.3       1 <0>        -0.0408
     23 Br1        -2.8776    4.5063    0.2255 Br        1 <0>        -0.0331
     24 H1          6.7969   -2.5075    1.2688 H         1 <0>         0.1259
     25 H2          5.8325   -1.4654    3.2806 H         1 <0>         0.1270
     26 H3          3.6226   -0.3852    3.1686 H         1 <0>         0.1253
     27 H4          3.3370   -1.3979   -0.9645 H         1 <0>         0.1251
     28 H5          5.5515   -2.4690   -0.8550 H         1 <0>         0.1269
     29 H6          1.5022   -0.2370    1.9954 H         1 <0>         0.0795
     30 H7          1.3849   -0.6560    0.2695 H         1 <0>         0.0793
     31 H8         -0.2812    0.3352    1.0596 H         1 <0>         0.1471
     32 H9         -2.3283    1.6797    0.8623 H         1 <0>         0.1446
     33 H10        -0.0181    5.1268   -0.1202 H         1 <0>         0.1541
     34 H11         3.3102    3.4714    0.3547 H         1 <0>         0.1690
     35 H12         4.1651    7.7144   -1.7706 H         1 <0>         0.4216
@<TRIPOS>BOND
     1    1    6 ar
     2    1    2 ar
     3    1   24 1
     4    2    3 ar
     5    2   25 1
     6    3    4 ar
     7    3   26 1
     8    4    5 ar
     9    4    7 1
    10    5    6 ar
    11    5   27 1
    12    6   28 1
    13    7    8 1
    14    7   29 1
    15    7   30 1
    16    8    9 1
    17    9   14 ar
    18    9   10 ar
    19   10   11 ar
    20   10   31 1
    21   11   12 ar
    22   11   32 1
    23   12   13 ar
    24   12   23 1
    25   13   14 ar
    26   13   33 1
    27   14   15 1
    28   15   16 2
    29   15   34 1
    30   16   22 1
    31   16   17 1
    32   17   18 2
    33   17   19 am
    34   19   20 am
    35   19   35 1
    36   20   21 2
    37   20   22 1
@<TRIPOS>MOLECULE
ZINC26920281
   37    39     0     0     0
SMALL
USER_CHARGES
4-[[(5Z)-5-[(4-hydroxyphenyl)methylene]-2,4-dioxo-thiazolidin-3-yl]methyl]benzoic acid
@<TRIPOS>ATOM
      1 C1          8.3581    7.5795    1.8263 C.ar      1 <0>        -0.1106
      2 C2          8.1145    8.9367    1.8661 C.ar      1 <0>        -0.0828
      3 C3          7.7607    9.5441    3.0726 C.ar      1 <0>        -0.0987
      4 C4          7.6503    8.7710    4.2301 C.ar      1 <0>        -0.0912
      5 C5          7.8910    7.4139    4.1748 C.ar      1 <0>        -0.1141
      6 C6          8.2417    6.8185    2.9760 C.ar      1 <0>        -0.1351
      7 C7          8.5042    5.3355    2.9236 C.3       1 <0>         0.1389
      8 N1          7.2553    4.6287    2.6288 N.am      1 <0>        -0.5701
      9 C8          6.9262    4.3960    1.3693 C.2       1 <0>         0.5586
     10 O1          7.6345    4.7546    0.4468 O.2       1 <0>        -0.4664
     11 C9          5.6559    3.6798    1.1387 C.2       1 <0>        -0.2135
     12 C10         5.0716    3.3087   -0.0286 C.2       1 <0>         0.0710
     13 C11         3.8919    2.4343   -0.0137 C.ar      1 <0>        -0.1369
     14 C12         3.1779    2.1972   -1.1948 C.ar      1 <0>        -0.0348
     15 C13         2.0730    1.3763   -1.1752 C.ar      1 <0>        -0.1683
     16 C14         1.6656    0.7832    0.0143 C.ar      1 <0>         0.1828
     17 C15         2.3673    1.0196    1.1909 C.ar      1 <0>        -0.2149
     18 C16         3.4770    1.8342    1.1817 C.ar      1 <0>        -0.0453
     19 O2          0.5752   -0.0255    0.0280 O.3       1 <0>        -0.5056
     20 S1          5.0954    3.4427    2.8196 S.3       1 <0>        -0.0589
     21 C17         6.4675    4.2296    3.6480 C.2       1 <0>         0.5373
     22 O3          6.6456    4.3758    4.8424 O.2       1 <0>        -0.4168
     23 C18         7.5048   10.9981    3.1243 C.2       1 <0>         0.4871
     24 O4          7.1976   11.5238    4.1754 O.co2     1 <0>        -0.6292
     25 O5          7.6122   11.7411    2.0057 O.co2     1 <0>        -0.7521
     26 H1          8.6365    7.1092    0.8948 H         1 <0>         0.1223
     27 H2          8.2017    9.5289    0.9672 H         1 <0>         0.1325
     28 H3          7.3766    9.2345    5.1664 H         1 <0>         0.1287
     29 H4          7.8060    6.8148    5.0694 H         1 <0>         0.1192
     30 H5          9.2415    5.1213    2.1359 H         1 <0>         0.1079
     31 H6          8.8962    4.9980    3.8944 H         1 <0>         0.1034
     32 H7          5.4817    3.6629   -0.9859 H         1 <0>         0.1670
     33 H8          3.4938    2.6572   -2.1195 H         1 <0>         0.1410
     34 H9          1.5219    1.1924   -2.0855 H         1 <0>         0.1360
     35 H10         2.0438    0.5598    2.1130 H         1 <0>         0.1346
     36 H11         4.0242    2.0135    2.0954 H         1 <0>         0.1388
     37 H12         0.2510   -0.4958    0.9681 H         1 <0>         0.4385
@<TRIPOS>BOND
     1    1    6 ar
     2    1    2 ar
     3    1   26 1
     4    2    3 ar
     5    2   27 1
     6    3    4 ar
     7    3   23 1
     8    4    5 ar
     9    4   28 1
    10    5    6 ar
    11    5   29 1
    12    6    7 1
    13    7    8 1
    14    7   30 1
    15    7   31 1
    16    8   21 am
    17    8    9 am
    18    9   10 2
    19    9   11 1
    20   11   12 2
    21   11   20 1
    22   12   13 1
    23   12   32 1
    24   13   18 ar
    25   13   14 ar
    26   14   15 ar
    27   14   33 1
    28   15   16 ar
    29   15   34 1
    30   16   17 ar
    31   16   19 1
    32   17   18 ar
    33   17   35 1
    34   18   36 1
    35   19   37 1
    36   20   21 1
    37   21   22 2
    38   23   24 2
    39   23   25 1
@<TRIPOS>MOLECULE
ZINC06588862
   33    35     0     0     0
SMALL
USER_CHARGES

@<TRIPOS>ATOM
      1 C1         -0.0184    1.5028    0.0103 C.3       1 <0>        -0.0970
      2 C2          0.0021   -0.0041    0.0020 C.ar      1 <0>        -0.1315
      3 C3          0.0059   -0.6983   -1.1990 C.ar      1 <0>        -0.0958
      4 C4          0.0238   -2.0683   -1.2342 C.ar      1 <0>        -0.1142
      5 C5          0.0391   -2.8216   -0.0377 C.ar      1 <0>         0.1628
      6 C6          0.0352   -2.0811    1.1660 C.ar      1 <0>        -0.1872
      7 C7          0.0229   -0.7091    1.1917 C.ar      1 <0>        -0.0436
      8 S1          0.0588   -3.3609    2.3981 S.3       1 <0>        -0.0721
      9 C8          0.0720   -4.7525    1.2768 C.2       1 <0>         0.4982
     10 N1          0.0581   -4.1654    0.1016 N.2       1 <0>        -0.6582
     11 N2          0.0917   -6.1007    1.5706 N.2       1 <0>        -1.0230
     12 S2          0.1006   -7.2150    0.3457 S.o2      1 <0>         2.6357
     13 O1         -1.1498   -7.0978   -0.3191 O.2       1 <0>        -0.9912
     14 O2          1.3406   -7.0641   -0.3317 O.2       1 <0>        -0.9911
     15 C9          0.1260   -8.8105    1.0930 C.ar      1 <0>        -0.5836
     16 C10         1.3330   -9.4177    1.3853 C.ar      1 <0>        -0.0201
     17 C11         1.3529  -10.6694    1.9716 C.ar      1 <0>        -0.0788
     18 C12         0.1659  -11.3137    2.2661 C.ar      1 <0>        -0.0142
     19 C13        -1.0411  -10.7061    1.9746 C.ar      1 <0>        -0.0788
     20 C14        -1.0610   -9.4526    1.3922 C.ar      1 <0>        -0.0202
     21 N3          0.1872  -12.6544    2.8930 N.pl3     1 <0>         0.0317
     22 O3          1.2429  -13.1859    3.1475 O.2       1 <0>        -0.1558
     23 O4         -0.8509  -13.2179    3.1505 O.3       1 <0>        -0.1556
     24 H1          1.0042    1.8801    0.0026 H         1 <0>         0.0615
     25 H2         -0.5455    1.8639   -0.8728 H         1 <0>         0.0605
     26 H3         -0.5286    1.8543    0.9071 H         1 <0>         0.0595
     27 H4         -0.0059   -0.1467   -2.1275 H         1 <0>         0.1179
     28 H5          0.0260   -2.5782   -2.1862 H         1 <0>         0.1202
     29 H6          0.0251   -0.1832    2.1350 H         1 <0>         0.1182
     30 H7          2.2604   -8.9143    1.1552 H         1 <0>         0.1632
     31 H8          2.2959  -11.1441    2.1993 H         1 <0>         0.1597
     32 H9         -1.9685  -11.2096    2.2044 H         1 <0>         0.1597
     33 H10        -2.0040   -8.9763    1.1680 H         1 <0>         0.1633
@<TRIPOS>BOND
     1    1    2 1
     2    1   24 1
     3    1   25 1
     4    1   26 1
     5    2    7 ar
     6    2    3 ar
     7    3    4 ar
     8    3   27 1
     9    4    5 ar
    10    4   28 1
    11    5   10 1
    12    5    6 ar
    13    6    7 ar
    14    6    8 1
    15    7   29 1
    16    8    9 1
    17    9   10 2
    18    9   11 1
    19   11   12 1
    20   12   13 2
    21   12   14 2
    22   12   15 1
    23   15   20 ar
    24   15   16 ar
    25   16   17 ar
    26   16   30 1
    27   17   18 ar
    28   17   31 1
    29   18   19 ar
    30   18   21 1
    31   19   20 ar
    32   19   32 1
    33   20   33 1
    34   21   22 2
    35   21   23 1
@<TRIPOS>MOLECULE
ZINC06588862
   34    36     0     0     0
SMALL
USER_CHARGES

@<TRIPOS>ATOM
      1 C1         -0.0184    1.5028    0.0103 C.3       1 <0>        -0.1154
      2 C2          0.0021   -0.0041    0.0020 C.ar      1 <0>        -0.0748
      3 C3          0.0060   -0.6988   -1.1951 C.ar      1 <0>        -0.0773
      4 C4          0.0250   -2.0732   -1.2213 C.ar      1 <0>        -0.1054
      5 C5          0.0411   -2.8177   -0.0301 C.ar      1 <0>         0.1128
      6 C6          0.0367   -2.0859    1.1651 C.ar      1 <0>        -0.1528
      7 C7          0.0230   -0.7119    1.1916 C.ar      1 <0>        -0.0403
      8 S1          0.0608   -3.3410    2.4221 S.3       1 <0>         0.1616
      9 C8          0.0758   -4.7680    1.3497 C.2       1 <0>         0.4974
     10 N1          0.0614   -4.1977    0.1005 N.pl3     1 <0>        -0.6631
     11 N2          0.0954   -6.0346    1.6717 N.2       1 <0>        -0.9488
     12 S2          0.1066   -7.1904    0.4858 S.o2      1 <0>         2.6258
     13 O1         -1.1433   -7.0973   -0.1838 O.2       1 <0>        -0.9610
     14 O2          1.3471   -7.0616   -0.1952 O.2       1 <0>        -0.9609
     15 C9          0.1327   -8.7592    1.2876 C.ar      1 <0>        -0.5986
     16 C10         1.3400   -9.3548    1.6017 C.ar      1 <0>        -0.0135
     17 C11         1.3605  -10.5856    2.2307 C.ar      1 <0>        -0.0747
     18 C12         0.1738  -11.2206    2.5460 C.ar      1 <0>         0.0050
     19 C13        -1.0334  -10.6245    2.2327 C.ar      1 <0>        -0.0747
     20 C14        -1.0540   -9.3918    1.6076 C.ar      1 <0>        -0.0135
     21 N3          0.1958  -12.5389    3.2187 N.pl3     1 <0>         0.0233
     22 O3          1.2517  -13.0604    3.4923 O.2       1 <0>        -0.1414
     23 O4         -0.8421  -13.0942    3.4945 O.3       1 <0>        -0.1413
     24 H1          1.0042    1.8801    0.0026 H         1 <0>         0.0788
     25 H2         -0.5455    1.8639   -0.8728 H         1 <0>         0.0742
     26 H3         -0.5286    1.8543    0.9071 H         1 <0>         0.0737
     27 H4         -0.0065   -0.1511   -2.1258 H         1 <0>         0.1420
     28 H5          0.0273   -2.5877   -2.1709 H         1 <0>         0.1371
     29 H6          0.0248   -0.1871    2.1355 H         1 <0>         0.1454
     30 H7          2.2672   -8.8588    1.3554 H         1 <0>         0.1663
     31 H8          2.3037  -11.0513    2.4755 H         1 <0>         0.1678
     32 H9         -1.9606  -11.1208    2.4787 H         1 <0>         0.1678
     33 H10        -1.9972   -8.9244    1.3662 H         1 <0>         0.1664
     34 H11         0.0652   -4.7600   -0.6899 H         1 <0>         0.4119
@<TRIPOS>BOND
     1    1    2 1
     2    1   24 1
     3    1   25 1
     4    1   26 1
     5    2    7 ar
     6    2    3 ar
     7    3    4 ar
     8    3   27 1
     9    4    5 ar
    10    4   28 1
    11    5   10 1
    12    5    6 ar
    13    6    7 ar
    14    6    8 1
    15    7   29 1
    16    8    9 1
    17    9   10 1
    18    9   11 2
    19   10   34 1
    20   11   12 1
    21   12   13 2
    22   12   14 2
    23   12   15 1
    24   15   20 ar
    25   15   16 ar
    26   16   17 ar
    27   16   30 1
    28   17   18 ar
    29   17   31 1
    30   18   19 ar
    31   18   21 1
    32   19   20 ar
    33   19   32 1
    34   20   33 1
    35   21   22 2
    36   21   23 1
@<TRIPOS>MOLECULE
ZINC22445353
   58    62     0     0     0
SMALL
USER_CHARGES
3-[[4-[(4-phenylphenyl)methyl]piperazin-1-yl]methyl]pyrimido[5,6-e][1,2,4]triazine-5,7-diamine
@<TRIPOS>ATOM
      1 C1         -7.8620   -2.9643    1.4573 C.ar      1 <0>        -0.1112
      2 C2         -7.0069   -2.7288    2.5188 C.ar      1 <0>        -0.1165
      3 C3         -5.7331   -2.2498    2.2890 C.ar      1 <0>        -0.1071
      4 C4         -5.3090   -2.0033    0.9848 C.ar      1 <0>        -0.0595
      5 C5         -6.1763   -2.2372   -0.0803 C.ar      1 <0>        -0.1084
      6 C6         -7.4461   -2.7213    0.1606 C.ar      1 <0>        -0.1173
      7 C7         -3.9407   -1.4877    0.7316 C.ar      1 <0>        -0.0267
      8 C8         -3.5166   -1.2413   -0.5725 C.ar      1 <0>        -0.1117
      9 C9         -2.2428   -0.7622   -0.8023 C.ar      1 <0>        -0.1137
     10 C10        -1.3878   -0.5267    0.2592 C.ar      1 <0>        -0.0976
     11 C11        -1.8018   -0.7746    1.5555 C.ar      1 <0>        -0.0883
     12 C12        -3.0753   -1.2487    1.7972 C.ar      1 <0>        -0.1100
     13 C13         0.0021   -0.0041    0.0020 C.3       1 <0>         0.0973
     14 N1         -0.0178    1.4648    0.0101 N.3       1 <0>        -0.5322
     15 C14        -0.7990    1.9871   -1.1198 C.3       1 <0>         0.0236
     16 C15        -0.8618    3.5137   -1.0307 C.3       1 <0>         0.0035
     17 N2          0.5028    4.0590   -1.0408 N.4       1 <0>        -0.3987
     18 C16         1.2840    3.5367    0.0891 C.3       1 <0>         0.0027
     19 C17         1.3468    2.0100   -0.0000 C.3       1 <0>         0.0253
     20 C18         0.4829    5.5278   -1.0327 C.3       1 <0>         0.0913
     21 C19        -0.5170    6.0222   -2.0461 C.ar      1 <0>         0.1085
     22 N3         -0.1197    6.2536   -3.2804 N.ar      1 <0>        -0.3807
     23 C20        -1.0082    6.6844   -4.1699 C.ar      1 <0>        -0.0222
     24 C21        -0.6659    6.9639   -5.5653 C.ar      1 <0>         0.5514
     25 N4         -1.6357    7.3945   -6.3600 N.ar      1 <0>        -0.6191
     26 C22        -2.8744    7.5667   -5.9076 C.ar      1 <0>         0.6609
     27 N5         -3.2352    7.3300   -4.6619 N.ar      1 <0>        -0.5941
     28 C23        -2.3503    6.8917   -3.7603 C.ar      1 <0>         0.3309
     29 N6         -2.6772    6.6403   -2.4899 N.ar      1 <0>        -0.1570
     30 N7         -1.7733    6.2186   -1.6719 N.ar      1 <0>        -0.1816
     31 N8         -3.8356    8.0187   -6.7913 N.pl3     1 <0>        -0.8084
     32 N9          0.6165    6.7861   -6.0353 N.pl3     1 <0>        -0.8008
     33 H1         -8.8580   -3.3388    1.6416 H         1 <0>         0.1265
     34 H2         -7.3369   -2.9199    3.5293 H         1 <0>         0.1275
     35 H3         -5.0664   -2.0659    3.1186 H         1 <0>         0.1256
     36 H4         -5.8540   -2.0440   -1.0928 H         1 <0>         0.1238
     37 H5         -8.1178   -2.9069   -0.6645 H         1 <0>         0.1267
     38 H6         -4.1835   -1.4244   -1.4020 H         1 <0>         0.1273
     39 H7         -1.9129   -0.5711   -1.8128 H         1 <0>         0.1185
     40 H8         -1.1287   -0.5929    2.3804 H         1 <0>         0.1267
     41 H9         -3.3988   -1.4384    2.8100 H         1 <0>         0.1294
     42 H10         0.6812   -0.3660    0.7881 H         1 <0>         0.0986
     43 H11         0.3524   -0.3607   -0.9779 H         1 <0>         0.0552
     44 H12        -0.3184    1.6934   -2.0647 H         1 <0>         0.0575
     45 H13        -1.8180    1.5744   -1.0830 H         1 <0>         0.1273
     46 H14        -1.4218    3.9085   -1.8912 H         1 <0>         0.1178
     47 H15        -1.3676    3.8061   -0.0987 H         1 <0>         0.1463
     48 H16         2.3030    3.9494    0.0522 H         1 <0>         0.1410
     49 H17         0.8035    3.8304    1.0340 H         1 <0>         0.1411
     50 H18         1.9061    1.6142    0.8605 H         1 <0>         0.1273
     51 H19         1.8520    1.7166   -0.9320 H         1 <0>         0.0612
     52 H20         0.1981    5.8851   -0.0321 H         1 <0>         0.1564
     53 H21         1.4826    5.9095   -1.2875 H         1 <0>         0.1565
     54 H22        -4.8696    8.1714   -6.4485 H         1 <0>         0.4545
     55 H23        -3.5668    8.2258   -7.8377 H         1 <0>         0.4509
     56 H24         0.8514    7.0024   -7.0879 H         1 <0>         0.4536
     57 H25         1.4058    6.4278   -5.3580 H         1 <0>         0.4517
     58 H26         0.9916    3.7339   -1.9711 H         1 <0>         0.4382
@<TRIPOS>BOND
     1    1    6 ar
     2    1    2 ar
     3    1   33 1
     4    2    3 ar
     5    2   34 1
     6    3    4 ar
     7    3   35 1
     8    4    5 ar
     9    4    7 1
    10    5    6 ar
    11    5   36 1
    12    6   37 1
    13    7   12 ar
    14    7    8 ar
    15    8    9 ar
    16    8   38 1
    17    9   10 ar
    18    9   39 1
    19   10   11 ar
    20   10   13 1
    21   11   12 ar
    22   11   40 1
    23   12   41 1
    24   13   14 1
    25   13   42 1
    26   13   43 1
    27   14   19 1
    28   14   15 1
    29   15   16 1
    30   15   44 1
    31   15   45 1
    32   16   17 1
    33   16   46 1
    34   16   47 1
    35   17   18 1
    36   17   20 1
    37   17   58 1
    38   18   19 1
    39   18   48 1
    40   18   49 1
    41   19   50 1
    42   19   51 1
    43   20   21 1
    44   20   52 1
    45   20   53 1
    46   21   30 ar
    47   21   22 ar
    48   22   23 ar
    49   23   28 ar
    50   23   24 ar
    51   24   25 ar
    52   24   32 1
    53   25   26 ar
    54   26   27 ar
    55   26   31 1
    56   27   28 ar
    57   28   29 ar
    58   29   30 ar
    59   31   54 1
    60   31   55 1
    61   32   56 1
    62   32   57 1
@<TRIPOS>MOLECULE
ZINC22445353
   58    62     0     0     0
SMALL
USER_CHARGES
3-[[4-[(4-phenylphenyl)methyl]piperazin-1-yl]methyl]pyrimido[5,6-e][1,2,4]triazine-5,7-diamine
@<TRIPOS>ATOM
      1 C1         -7.8620   -2.9643    1.4573 C.ar      1 <0>        -0.1013
      2 C2         -7.0069   -2.7288    2.5188 C.ar      1 <0>        -0.1174
      3 C3         -5.7331   -2.2498    2.2890 C.ar      1 <0>        -0.1005
      4 C4         -5.3090   -2.0033    0.9848 C.ar      1 <0>        -0.0764
      5 C5         -6.1763   -2.2372   -0.0803 C.ar      1 <0>        -0.1009
      6 C6         -7.4461   -2.7213    0.1606 C.ar      1 <0>        -0.1174
      7 C7         -3.9407   -1.4877    0.7316 C.ar      1 <0>         0.0059
      8 C8         -3.5166   -1.2413   -0.5725 C.ar      1 <0>        -0.1129
      9 C9         -2.2428   -0.7622   -0.8023 C.ar      1 <0>        -0.0891
     10 C10        -1.3878   -0.5267    0.2592 C.ar      1 <0>        -0.1677
     11 C11        -1.8018   -0.7746    1.5555 C.ar      1 <0>        -0.0855
     12 C12        -3.0753   -1.2487    1.7972 C.ar      1 <0>        -0.1125
     13 C13         0.0021   -0.0041    0.0020 C.3       1 <0>         0.0491
     14 N1         -0.0178    1.4648    0.0101 N.4       1 <0>        -0.3999
     15 C14        -0.7990    1.9871   -1.1198 C.3       1 <0>        -0.0010
     16 C15        -0.8618    3.5137   -1.0307 C.3       1 <0>         0.0259
     17 N2          0.5028    4.0590   -1.0408 N.3       1 <0>        -0.5317
     18 C16         1.2840    3.5367    0.0891 C.3       1 <0>         0.0260
     19 C17         1.3468    2.0100   -0.0000 C.3       1 <0>         0.0015
     20 C18         0.4829    5.5278   -1.0327 C.3       1 <0>         0.1368
     21 C19        -0.5170    6.0222   -2.0461 C.ar      1 <0>         0.1699
     22 N3         -0.1197    6.2536   -3.2804 N.ar      1 <0>        -0.3790
     23 C20        -1.0082    6.6844   -4.1699 C.ar      1 <0>        -0.0245
     24 C21        -0.6659    6.9639   -5.5653 C.ar      1 <0>         0.5488
     25 N4         -1.6357    7.3945   -6.3600 N.ar      1 <0>        -0.6240
     26 C22        -2.8744    7.5667   -5.9076 C.ar      1 <0>         0.6543
     27 N5         -3.2352    7.3300   -4.6619 N.ar      1 <0>        -0.6015
     28 C23        -2.3503    6.8917   -3.7603 C.ar      1 <0>         0.3144
     29 N6         -2.6772    6.6403   -2.4899 N.ar      1 <0>        -0.1697
     30 N7         -1.7733    6.2186   -1.6719 N.ar      1 <0>        -0.2062
     31 N8         -3.8356    8.0187   -6.7913 N.pl3     1 <0>        -0.8181
     32 N9          0.6165    6.7861   -6.0353 N.pl3     1 <0>        -0.8043
     33 H1         -8.8580   -3.3388    1.6416 H         1 <0>         0.1297
     34 H2         -7.3369   -2.9199    3.5293 H         1 <0>         0.1304
     35 H3         -5.0664   -2.0659    3.1186 H         1 <0>         0.1265
     36 H4         -5.8540   -2.0440   -1.0928 H         1 <0>         0.1259
     37 H5         -8.1178   -2.9069   -0.6645 H         1 <0>         0.1301
     38 H6         -4.1835   -1.4244   -1.4020 H         1 <0>         0.1370
     39 H7         -1.9129   -0.5711   -1.8128 H         1 <0>         0.1310
     40 H8         -1.1287   -0.5929    2.3804 H         1 <0>         0.1336
     41 H9         -3.3988   -1.4384    2.8100 H         1 <0>         0.1379
     42 H10         0.6812   -0.3660    0.7881 H         1 <0>         0.1385
     43 H11         0.3524   -0.3607   -0.9779 H         1 <0>         0.1328
     44 H12        -0.3184    1.6934   -2.0647 H         1 <0>         0.1322
     45 H13        -1.8180    1.5744   -1.0830 H         1 <0>         0.1355
     46 H14        -1.4218    3.9085   -1.8912 H         1 <0>         0.1086
     47 H15        -1.3676    3.8061   -0.0987 H         1 <0>         0.0731
     48 H16         2.3030    3.9494    0.0522 H         1 <0>         0.1286
     49 H17         0.8035    3.8304    1.0340 H         1 <0>         0.0670
     50 H18         1.9061    1.6142    0.8605 H         1 <0>         0.1389
     51 H19         1.8520    1.7166   -0.9320 H         1 <0>         0.1359
     52 H20         0.1981    5.8851   -0.0321 H         1 <0>         0.0805
     53 H21         1.4826    5.9095   -1.2875 H         1 <0>         0.1186
     54 H22        -4.8696    8.1714   -6.4485 H         1 <0>         0.4498
     55 H23        -3.5668    8.2258   -7.8377 H         1 <0>         0.4464
     56 H24         0.8514    7.0024   -7.0879 H         1 <0>         0.4485
     57 H25         1.4058    6.4278   -5.3580 H         1 <0>         0.4533
     58 H26        -0.5066    1.7900    0.9403 H         1 <0>         0.4387
@<TRIPOS>BOND
     1    1    6 ar
     2    1    2 ar
     3    1   33 1
     4    2    3 ar
     5    2   34 1
     6    3    4 ar
     7    3   35 1
     8    4    5 ar
     9    4    7 1
    10    5    6 ar
    11    5   36 1
    12    6   37 1
    13    7   12 ar
    14    7    8 ar
    15    8    9 ar
    16    8   38 1
    17    9   10 ar
    18    9   39 1
    19   10   11 ar
    20   10   13 1
    21   11   12 ar
    22   11   40 1
    23   12   41 1
    24   13   14 1
    25   13   42 1
    26   13   43 1
    27   14   19 1
    28   14   15 1
    29   14   58 1
    30   15   16 1
    31   15   44 1
    32   15   45 1
    33   16   17 1
    34   16   46 1
    35   16   47 1
    36   17   18 1
    37   17   20 1
    38   18   19 1
    39   18   48 1
    40   18   49 1
    41   19   50 1
    42   19   51 1
    43   20   21 1
    44   20   52 1
    45   20   53 1
    46   21   30 ar
    47   21   22 ar
    48   22   23 ar
    49   23   28 ar
    50   23   24 ar
    51   24   25 ar
    52   24   32 1
    53   25   26 ar
    54   26   27 ar
    55   26   31 1
    56   27   28 ar
    57   28   29 ar
    58   29   30 ar
    59   31   54 1
    60   31   55 1
    61   32   56 1
    62   32   57 1
@<TRIPOS>MOLECULE
ZINC22445353
   57    61     0     0     0
SMALL
USER_CHARGES
3-[[4-[(4-phenylphenyl)methyl]piperazin-1-yl]methyl]pyrimido[5,6-e][1,2,4]triazine-5,7-diamine
@<TRIPOS>ATOM
      1 C1         -7.8620   -2.9643    1.4573 C.ar      1 <0>        -0.1192
      2 C2         -7.0069   -2.7288    2.5188 C.ar      1 <0>        -0.1173
      3 C3         -5.7331   -2.2498    2.2890 C.ar      1 <0>        -0.1110
      4 C4         -5.3090   -2.0033    0.9848 C.ar      1 <0>        -0.0458
      5 C5         -6.1763   -2.2372   -0.0803 C.ar      1 <0>        -0.1116
      6 C6         -7.4461   -2.7213    0.1606 C.ar      1 <0>        -0.1175
      7 C7         -3.9407   -1.4877    0.7316 C.ar      1 <0>        -0.0444
      8 C8         -3.5166   -1.2413   -0.5725 C.ar      1 <0>        -0.1100
      9 C9         -2.2428   -0.7622   -0.8023 C.ar      1 <0>        -0.1115
     10 C10        -1.3878   -0.5267    0.2592 C.ar      1 <0>        -0.0760
     11 C11        -1.8018   -0.7746    1.5555 C.ar      1 <0>        -0.0938
     12 C12        -3.0753   -1.2487    1.7972 C.ar      1 <0>        -0.1097
     13 C13         0.0021   -0.0041    0.0020 C.3       1 <0>         0.0926
     14 N1         -0.0178    1.4648    0.0101 N.3       1 <0>        -0.5319
     15 C14        -0.7990    1.9871   -1.1198 C.3       1 <0>         0.0555
     16 C15        -0.8618    3.5137   -1.0307 C.3       1 <0>         0.0594
     17 N2          0.5028    4.0590   -1.0408 N.3       1 <0>        -0.5312
     18 C16         1.2840    3.5367    0.0891 C.3       1 <0>         0.0573
     19 C17         1.3468    2.0100   -0.0000 C.3       1 <0>         0.0569
     20 C18         0.4829    5.5278   -1.0327 C.3       1 <0>         0.1312
     21 C19        -0.5170    6.0222   -2.0461 C.ar      1 <0>         0.1980
     22 N3         -0.1197    6.2536   -3.2804 N.ar      1 <0>        -0.3846
     23 C20        -1.0082    6.6844   -4.1699 C.ar      1 <0>        -0.0247
     24 C21        -0.6659    6.9639   -5.5653 C.ar      1 <0>         0.5484
     25 N4         -1.6357    7.3945   -6.3600 N.ar      1 <0>        -0.6277
     26 C22        -2.8744    7.5667   -5.9076 C.ar      1 <0>         0.6481
     27 N5         -3.2352    7.3300   -4.6619 N.ar      1 <0>        -0.6021
     28 C23        -2.3503    6.8917   -3.7603 C.ar      1 <0>         0.3046
     29 N6         -2.6772    6.6403   -2.4899 N.ar      1 <0>        -0.1710
     30 N7         -1.7733    6.2186   -1.6719 N.ar      1 <0>        -0.2009
     31 N8         -3.8356    8.0187   -6.7913 N.pl3     1 <0>        -0.8254
     32 N9          0.6165    6.7861   -6.0353 N.pl3     1 <0>        -0.8070
     33 H1         -8.8580   -3.3388    1.6416 H         1 <0>         0.1230
     34 H2         -7.3369   -2.9199    3.5293 H         1 <0>         0.1246
     35 H3         -5.0664   -2.0659    3.1186 H         1 <0>         0.1254
     36 H4         -5.8540   -2.0440   -1.0928 H         1 <0>         0.1243
     37 H5         -8.1178   -2.9069   -0.6645 H         1 <0>         0.1242
     38 H6         -4.1835   -1.4244   -1.4020 H         1 <0>         0.1242
     39 H7         -1.9129   -0.5711   -1.8128 H         1 <0>         0.1196
     40 H8         -1.1287   -0.5929    2.3804 H         1 <0>         0.1253
     41 H9         -3.3988   -1.4384    2.8100 H         1 <0>         0.1255
     42 H10         0.6812   -0.3660    0.7881 H         1 <0>         0.0867
     43 H11         0.3524   -0.3607   -0.9779 H         1 <0>         0.0447
     44 H12        -0.3184    1.6934   -2.0647 H         1 <0>         0.0394
     45 H13        -1.8180    1.5744   -1.0830 H         1 <0>         0.0851
     46 H14        -1.4218    3.9085   -1.8912 H         1 <0>         0.0655
     47 H15        -1.3676    3.8061   -0.0987 H         1 <0>         0.0557
     48 H16         2.3030    3.9494    0.0522 H         1 <0>         0.0862
     49 H17         0.8035    3.8304    1.0340 H         1 <0>         0.0505
     50 H18         1.9061    1.6142    0.8605 H         1 <0>         0.0846
     51 H19         1.8520    1.7166   -0.9320 H         1 <0>         0.0444
     52 H20         0.1981    5.8851   -0.0321 H         1 <0>         0.0710
     53 H21         1.4826    5.9095   -1.2875 H         1 <0>         0.1069
     54 H22        -4.8696    8.1714   -6.4485 H         1 <0>         0.4460
     55 H23        -3.5668    8.2258   -7.8377 H         1 <0>         0.4414
     56 H24         0.8514    7.0024   -7.0879 H         1 <0>         0.4438
     57 H25         1.4058    6.4278   -5.3580 H         1 <0>         0.4544
@<TRIPOS>BOND
     1    1    6 ar
     2    1    2 ar
     3    1   33 1
     4    2    3 ar
     5    2   34 1
     6    3    4 ar
     7    3   35 1
     8    4    5 ar
     9    4    7 1
    10    5    6 ar
    11    5   36 1
    12    6   37 1
    13    7   12 ar
    14    7    8 ar
    15    8    9 ar
    16    8   38 1
    17    9   10 ar
    18    9   39 1
    19   10   11 ar
    20   10   13 1
    21   11   12 ar
    22   11   40 1
    23   12   41 1
    24   13   14 1
    25   13   42 1
    26   13   43 1
    27   14   19 1
    28   14   15 1
    29   15   16 1
    30   15   44 1
    31   15   45 1
    32   16   17 1
    33   16   46 1
    34   16   47 1
    35   17   18 1
    36   17   20 1
    37   18   19 1
    38   18   48 1
    39   18   49 1
    40   19   50 1
    41   19   51 1
    42   20   21 1
    43   20   52 1
    44   20   53 1
    45   21   30 ar
    46   21   22 ar
    47   22   23 ar
    48   23   28 ar
    49   23   24 ar
    50   24   25 ar
    51   24   32 1
    52   25   26 ar
    53   26   27 ar
    54   26   31 1
    55   27   28 ar
    56   28   29 ar
    57   29   30 ar
    58   31   54 1
    59   31   55 1
    60   32   56 1
    61   32   57 1
@<TRIPOS>MOLECULE
ZINC01532215
   26    27     0     0     0
SMALL
USER_CHARGES
4,5-dihydroxynaphthalene-2,7-disulfonic acid
@<TRIPOS>ATOM
      1 C1         -0.7119    3.1280    1.9864 C.ar      1 <0>        -0.0017
      2 C2         -1.4356    3.5253    3.1241 C.ar      1 <0>        -0.0750
      3 C3         -1.2368    4.7890    3.7068 C.ar      1 <0>        -0.0015
      4 C4         -1.9465    5.1465    4.8119 C.ar      1 <0>        -0.6574
      5 C5         -2.8736    4.2782    5.3819 C.ar      1 <0>        -0.0528
      6 C6         -3.0963    3.0320    4.8406 C.ar      1 <0>         0.0763
      7 C7         -2.3761    2.6349    3.6968 C.ar      1 <0>        -0.0454
      8 C8         -2.5738    1.3685    3.1123 C.ar      1 <0>         0.0763
      9 C9         -1.8496    1.0181    1.9949 C.ar      1 <0>        -0.0527
     10 C10        -0.9267    1.9002    1.4394 C.ar      1 <0>        -0.6574
     11 S1         -0.0172    1.4168    0.0098 S.o2      1 <0>         2.7022
     12 O1          0.0021   -0.0041    0.0020 O.2       1 <0>        -1.0585
     13 O2          1.1718    2.1948    0.0027 O.2       1 <0>        -1.0539
     14 O3         -3.4709    0.5003    3.6467 O.3       1 <0>        -0.4783
     15 O4         -4.0028    2.1927    5.4043 O.3       1 <0>        -0.4786
     16 S2         -1.6874    6.7332    5.5329 S.o2      1 <0>         2.7025
     17 O5         -1.1734    7.5678    4.5040 O.2       1 <0>        -1.0537
     18 O6         -2.8715    7.0512    6.2513 O.2       1 <0>        -1.0578
     19 H1          0.0110    3.7977    1.5444 H         1 <0>         0.1473
     20 H2         -0.5215    5.4754    3.2783 H         1 <0>         0.1472
     21 H3         -3.4241    4.5856    6.2588 H         1 <0>         0.1397
     22 H4         -1.9988    0.0480    1.5444 H         1 <0>         0.1397
     23 H5         -3.0975   -0.0878    4.3174 H         1 <0>         0.3740
     24 H6         -3.6324    1.6123    6.0833 H         1 <0>         0.3743
     25 O7         -0.8262    1.8475   -1.2052 O.3       1 <0>        -1.0767
     26 O8         -0.5793    6.5829    6.5653 O.3       1 <0>        -1.0780
@<TRIPOS>BOND
     1    1   10 ar
     2    1    2 ar
     3    1   19 1
     4    2    7 ar
     5    2    3 ar
     6    3    4 ar
     7    3   20 1
     8    4    5 ar
     9    4   16 1
    10    5    6 ar
    11    5   21 1
    12    6    7 ar
    13    6   15 1
    14    7    8 ar
    15    8    9 ar
    16    8   14 1
    17    9   10 ar
    18    9   22 1
    19   10   11 1
    20   11   12 2
    21   11   13 2
    22   11   25 1
    23   14   23 1
    24   15   24 1
    25   16   17 2
    26   16   18 2
    27   16   26 1
@<TRIPOS>MOLECULE
ZINC06028400
   60    65     0     0     0
SMALL
USER_CHARGES
3-[4,5-bis(4-phenylphenyl)-1H-imidazol-2-yl]phenol
@<TRIPOS>ATOM
      1 C1         -5.7608   14.2896    0.5787 C.ar      1 <0>        -0.1160
      2 C2         -4.6492   14.2982   -0.2447 C.ar      1 <0>        -0.1173
      3 C3         -3.8385   13.1843   -0.3256 C.ar      1 <0>        -0.1082
      4 C4         -4.1414   12.0492    0.4250 C.ar      1 <0>        -0.0509
      5 C5         -5.2657   12.0447    1.2494 C.ar      1 <0>        -0.1093
      6 C6         -6.0663   13.1661    1.3258 C.ar      1 <0>        -0.1179
      7 C7         -3.2747   10.8492    0.3421 C.ar      1 <0>        -0.0329
      8 C8         -3.5810    9.7149    1.0947 C.ar      1 <0>        -0.1082
      9 C9         -2.7772    8.6004    1.0192 C.ar      1 <0>        -0.1041
     10 C10        -1.6530    8.6050    0.1877 C.ar      1 <0>        -0.0231
     11 C11        -1.3442    9.7446   -0.5616 C.ar      1 <0>        -0.0797
     12 C12        -2.1533   10.8555   -0.4882 C.ar      1 <0>        -0.1058
     13 C13        -0.7908    7.4117    0.1055 C.2       1 <0>         0.0438
     14 C14         0.5932    7.3798    0.1833 C.2       1 <0>         0.0669
     15 N1          0.9793    6.0991    0.0688 N.2       1 <0>        -0.4529
     16 C15        -0.0766    5.3333   -0.0846 C.2       1 <0>         0.2550
     17 N2         -1.1999    6.1091   -0.0640 N.pl3     1 <0>        -0.5548
     18 H1         -2.1433    5.7902   -0.1551 H         1 <0>         0.4290
     19 C16        -0.0530    3.8640   -0.2473 C.ar      1 <0>         0.0017
     20 C17        -1.2474    3.1564   -0.3961 C.ar      1 <0>        -0.1209
     21 C18        -1.2214    1.7859   -0.5524 C.ar      1 <0>        -0.0971
     22 C19        -0.0159    1.1082   -0.5514 C.ar      1 <0>        -0.1356
     23 C20         1.1767    1.8034   -0.4046 C.ar      1 <0>         0.1110
     24 C21         1.1625    3.1798   -0.2522 C.ar      1 <0>        -0.1037
     25 O1          2.3589    1.1329   -0.4100 O.3       1 <0>        -0.4956
     26 C22         1.4846    8.5476    0.3661 C.ar      1 <0>        -0.0030
     27 C23         2.6691    8.6432   -0.3663 C.ar      1 <0>        -0.0879
     28 C24         3.4955    9.7319   -0.1994 C.ar      1 <0>        -0.1105
     29 C25         3.1546   10.7337    0.7094 C.ar      1 <0>        -0.0413
     30 C26         1.9735   10.6363    1.4450 C.ar      1 <0>        -0.1084
     31 C27         1.1438    9.5506    1.2751 C.ar      1 <0>        -0.0933
     32 C28         4.0480   11.9029    0.8932 C.ar      1 <0>        -0.0454
     33 C29         3.7072   12.9088    1.7960 C.ar      1 <0>        -0.1108
     34 C30         4.5446   13.9924    1.9661 C.ar      1 <0>        -0.1177
     35 C31         5.7154   14.0866    1.2353 C.ar      1 <0>        -0.1193
     36 C32         6.0564   13.0938    0.3344 C.ar      1 <0>        -0.1176
     37 C33         5.2291   12.0031    0.1596 C.ar      1 <0>        -0.1108
     38 H2         -6.3927   15.1634    0.6383 H         1 <0>         0.1238
     39 H3         -4.4156   15.1781   -0.8256 H         1 <0>         0.1254
     40 H4         -2.9714   13.1919   -0.9693 H         1 <0>         0.1262
     41 H5         -5.5074   11.1667    1.8299 H         1 <0>         0.1251
     42 H6         -6.9352   13.1653    1.9672 H         1 <0>         0.1250
     43 H7         -4.4495    9.7115    1.7366 H         1 <0>         0.1297
     44 H8         -3.0144    7.7227    1.6022 H         1 <0>         0.1232
     45 H9         -0.4736    9.7515   -1.2006 H         1 <0>         0.1294
     46 H10        -1.9175   11.7342   -1.0702 H         1 <0>         0.1310
     47 H11        -2.1908    3.6820   -0.3925 H         1 <0>         0.1210
     48 H12        -2.1457    1.2400   -0.6715 H         1 <0>         0.1340
     49 H13        -0.0019    0.0348   -0.6698 H         1 <0>         0.1336
     50 H14         2.0896    3.7218   -0.1379 H         1 <0>         0.1445
     51 H15         2.7522    1.0361   -1.2881 H         1 <0>         0.3943
     52 H16         2.9353    7.8654   -1.0667 H         1 <0>         0.1278
     53 H17         4.4099    9.8080   -0.7690 H         1 <0>         0.1275
     54 H18         1.7100   11.4125    2.1483 H         1 <0>         0.1268
     55 H19         0.2293    9.4753    1.8447 H         1 <0>         0.1232
     56 H20         2.7913   12.8384    2.3641 H         1 <0>         0.1251
     57 H21         4.2834   14.7705    2.6681 H         1 <0>         0.1239
     58 H22         6.3655   14.9386    1.3684 H         1 <0>         0.1225
     59 H23         6.9717   13.1725   -0.2334 H         1 <0>         0.1242
     60 H24         5.4959   11.2290   -0.5446 H         1 <0>         0.1256
@<TRIPOS>BOND
     1    1    6 ar
     2    1    2 ar
     3    1   38 1
     4    2    3 ar
     5    2   39 1
     6    3    4 ar
     7    3   40 1
     8    4    5 ar
     9    4    7 1
    10    5    6 ar
    11    5   41 1
    12    6   42 1
    13    7   12 ar
    14    7    8 ar
    15    8    9 ar
    16    8   43 1
    17    9   10 ar
    18    9   44 1
    19   10   11 ar
    20   10   13 1
    21   11   12 ar
    22   11   45 1
    23   12   46 1
    24   13   17 1
    25   13   14 2
    26   14   15 1
    27   14   26 1
    28   15   16 2
    29   16   17 1
    30   16   19 1
    31   17   18 1
    32   19   24 ar
    33   19   20 ar
    34   20   21 ar
    35   20   47 1
    36   21   22 ar
    37   21   48 1
    38   22   23 ar
    39   22   49 1
    40   23   24 ar
    41   23   25 1
    42   24   50 1
    43   25   51 1
    44   26   31 ar
    45   26   27 ar
    46   27   28 ar
    47   27   52 1
    48   28   29 ar
    49   28   53 1
    50   29   30 ar
    51   29   32 1
    52   30   31 ar
    53   30   54 1
    54   31   55 1
    55   32   37 ar
    56   32   33 ar
    57   33   34 ar
    58   33   56 1
    59   34   35 ar
    60   34   57 1
    61   35   36 ar
    62   35   58 1
    63   36   37 ar
    64   36   59 1
    65   37   60 1
@<TRIPOS>MOLECULE
ZINC13558220
   78    82     0     0     0
SMALL
USER_CHARGES

@<TRIPOS>ATOM
      1 C1          0.1698    1.4507   -0.0449 C.3       1 <0>        -0.1556
      2 C2          0.1997   -0.0730   -0.0541 C.3       1 <0>        -0.0380
      3 C3         -1.2394   -0.5812    0.1716 C.3       1 <0>        -0.1101
      4 C4         -1.7762   -0.0340    1.4916 C.3       1 <0>        -0.1673
      5 C5         -0.8528   -0.4311    2.6148 C.2       1 <0>         0.3719
      6 O1         -1.3203   -0.8355    3.6631 O.2       1 <0>        -0.4681
      7 C6          0.6462   -0.3302    2.4625 C.3       1 <0>        -0.0918
      8 C7          1.0866   -0.6389    1.0452 C.3       1 <0>        -0.0590
      9 H1          1.0502   -1.7504    0.9324 H         1 <0>         0.0646
     10 C8          2.5399   -0.2365    0.7924 C.3       1 <0>        -0.1132
     11 C9          2.9947   -0.9563   -0.4873 C.3       1 <0>        -0.1122
     12 C10         2.1555   -0.5045   -1.6779 C.3       1 <0>        -0.0261
     13 C11         0.6628   -0.6224   -1.4052 C.3       1 <0>        -0.0556
     14 H2          0.3915   -1.6982   -1.4027 H         1 <0>         0.0612
     15 C12        -0.1172    0.0259   -2.5502 C.3       1 <0>        -0.0734
     16 C13         0.3840   -0.4974   -3.8650 C.2       1 <0>        -0.1741
     17 C14         1.5420   -1.0768   -4.0356 C.2       1 <0>        -0.0475
     18 C15         2.5040   -1.3465   -2.9156 C.3       1 <0>         0.0081
     19 C16         3.9499   -1.1241   -3.3364 C.3       1 <0>        -0.0991
     20 C17         4.2390   -1.7144   -4.7181 C.3       1 <0>        -0.0862
     21 C18         3.3131   -1.1054   -5.7659 C.3       1 <0>        -0.1131
     22 C19         1.8714   -1.5067   -5.4558 C.3       1 <0>        -0.0183
     23 H3          1.2005   -0.9641   -6.1394 H         1 <0>         0.0689
     24 C20         1.6710   -3.0044   -5.6242 C.3       1 <0>        -0.0992
     25 C21         2.0422   -3.4527   -7.0389 C.3       1 <0>        -0.0625
     26 C22         3.4873   -3.0654   -7.3422 C.3       1 <0>        -0.1012
     27 C23         3.7033   -1.5687   -7.1671 C.3       1 <0>        -0.0920
     28 C24         1.9156   -4.9822   -7.1159 C.3       1 <0>        -0.1400
     29 C25         1.0942   -2.8310   -8.0618 C.3       1 <0>        -0.1396
     30 C26         3.4211    0.4017   -5.7303 C.2       1 <0>         0.5075
     31 O2          4.4938    0.9411   -5.9420 O.co2     1 <0>        -0.7085
     32 O3          2.4356    1.0780   -5.4899 O.co2     1 <0>        -0.6828
     33 C27         2.3577   -2.8239   -2.5259 C.3       1 <0>        -0.1520
     34 C28         2.5175    0.9539   -2.0039 C.3       1 <0>        -0.1528
     35 C29         1.1272    1.0389    2.9459 C.3       1 <0>        -0.1394
     36 C30         1.2623   -1.3926    3.4048 C.3       1 <0>        -0.1389
     37 H4          1.1901    1.8342   -0.0517 H         1 <0>         0.0689
     38 H5         -0.3589    1.8091   -0.9281 H         1 <0>         0.0643
     39 H6         -0.3431    1.7987    0.8517 H         1 <0>         0.0522
     40 H7         -1.8685   -0.2406   -0.6487 H         1 <0>         0.0790
     41 H8         -1.2297   -1.6705    0.2002 H         1 <0>         0.0645
     42 H9         -1.8964    1.0452    1.4553 H         1 <0>         0.1034
     43 H10        -2.7685   -0.4718    1.6775 H         1 <0>         0.0822
     44 H11         2.6530    0.8316    0.6784 H         1 <0>         0.0722
     45 H12         3.1712   -0.5832    1.6141 H         1 <0>         0.0574
     46 H13         4.0445   -0.7130   -0.6664 H         1 <0>         0.0616
     47 H14         2.9051   -2.0231   -0.2974 H         1 <0>         0.0627
     48 H15        -1.1773   -0.2410   -2.4555 H         1 <0>         0.0525
     49 H16        -0.0360    1.1076   -2.5482 H         1 <0>         0.0749
     50 H17        -0.2556   -0.3917   -4.7311 H         1 <0>         0.0908
     51 H18         4.2550   -0.0873   -3.3202 H         1 <0>         0.0748
     52 H19         4.5989   -1.6519   -2.6131 H         1 <0>         0.0379
     53 H20         5.2766   -1.4893   -4.9873 H         1 <0>         0.0521
     54 H21         4.1165   -2.7949   -4.6958 H         1 <0>         0.0450
     55 H22         2.3086   -3.5559   -4.9307 H         1 <0>         0.0619
     56 H23         0.6287   -3.2644   -5.4267 H         1 <0>         0.0497
     57 H24         4.1577   -3.6124   -6.6738 H         1 <0>         0.0546
     58 H25         3.7259   -3.3477   -8.3735 H         1 <0>         0.0481
     59 H26         3.1217   -1.0144   -7.9055 H         1 <0>         0.0504
     60 H27         4.7618   -1.3367   -7.3296 H         1 <0>         0.0569
     61 H28         0.8897   -5.2737   -6.8909 H         1 <0>         0.0491
     62 H29         2.1771   -5.3184   -8.1192 H         1 <0>         0.0486
     63 H30         2.5903   -5.4395   -6.3921 H         1 <0>         0.0495
     64 H31         1.1607   -1.7445   -8.0055 H         1 <0>         0.0623
     65 H32         1.3729   -3.1607   -9.0627 H         1 <0>         0.0465
     66 H33         0.0724   -3.1441   -7.8475 H         1 <0>         0.0479
     67 H34         1.3092   -3.0447   -2.3256 H         1 <0>         0.0499
     68 H35         2.7115   -3.4521   -3.3434 H         1 <0>         0.0582
     69 H36         2.9484   -3.0242   -1.6320 H         1 <0>         0.0539
     70 H37         3.5598    1.0079   -2.3183 H         1 <0>         0.0547
     71 H38         1.8764    1.3165   -2.8073 H         1 <0>         0.0772
     72 H39         2.3731    1.5710   -1.1171 H         1 <0>         0.0465
     73 H40         0.8630    1.1671    3.9955 H         1 <0>         0.0556
     74 H41         2.2094    1.1044    2.8330 H         1 <0>         0.0727
     75 H42         0.6521    1.8209    2.3535 H         1 <0>         0.0665
     76 H43         0.9092   -2.3827    3.1162 H         1 <0>         0.0530
     77 H44         2.3491   -1.3583    3.3297 H         1 <0>         0.0629
     78 H45         0.9623   -1.1850    4.4319 H         1 <0>         0.0622
@<TRIPOS>BOND
     1    1    2 1
     2    1   37 1
     3    1   38 1
     4    1   39 1
     5    2    8 1
     6    2   13 1
     7    2    3 1
     8    3    4 1
     9    3   40 1
    10    3   41 1
    11    4    5 1
    12    4   42 1
    13    4   43 1
    14    5    6 2
    15    5    7 1
    16    7    8 1
    17    7   35 1
    18    7   36 1
    19    8    9 1
    20    8   10 1
    21   10   11 1
    22   10   44 1
    23   10   45 1
    24   11   12 1
    25   11   46 1
    26   11   47 1
    27   12   18 1
    28   12   13 1
    29   12   34 1
    30   13   14 1
    31   13   15 1
    32   15   16 1
    33   15   48 1
    34   15   49 1
    35   16   17 2
    36   16   50 1
    37   17   22 1
    38   17   18 1
    39   18   19 1
    40   18   33 1
    41   19   20 1
    42   19   51 1
    43   19   52 1
    44   20   21 1
    45   20   53 1
    46   20   54 1
    47   21   27 1
    48   21   22 1
    49   21   30 1
    50   22   23 1
    51   22   24 1
    52   24   25 1
    53   24   55 1
    54   24   56 1
    55   25   26 1
    56   25   28 1
    57   25   29 1
    58   26   27 1
    59   26   57 1
    60   26   58 1
    61   27   59 1
    62   27   60 1
    63   28   61 1
    64   28   62 1
    65   28   63 1
    66   29   64 1
    67   29   65 1
    68   29   66 1
    69   30   31 2
    70   30   32 1
    71   33   67 1
    72   33   68 1
    73   33   69 1
    74   34   70 1
    75   34   71 1
    76   34   72 1
    77   35   73 1
    78   35   74 1
    79   35   75 1
    80   36   76 1
    81   36   77 1
    82   36   78 1
@<TRIPOS>MOLECULE
ZINC17611186
   26    28     0     0     0
SMALL
USER_CHARGES

@<TRIPOS>ATOM
      1 C1          0.0599    1.5249   -0.0459 C.3       1 <0>        -0.1274
      2 C2          0.0459   -0.0049   -0.0290 C.3       1 <0>        -0.1448
      3 C3          0.7228   -0.6541   -1.2717 C.3       1 <0>         0.0842
      4 H1          0.1207   -0.6597   -2.1803 H         1 <0>         0.1451
      5 C4          2.1118    0.0404   -1.3974 C.3       1 <0>        -0.1485
      6 C5          2.9107   -0.5750   -0.2204 C.3       1 <0>        -0.1473
      7 C6          1.8766   -1.5426    0.4292 C.3       1 <0>         0.0839
      8 H2          2.3034   -2.3476    1.0274 H         1 <0>         0.1454
      9 C7          0.8402   -0.6387    1.1595 C.3       1 <0>        -0.1447
     10 C8         -0.2155   -1.4984    1.8319 C.2       1 <0>         0.5144
     11 O1         -0.1865   -1.9208    2.9635 O.2       1 <0>        -0.3989
     12 O2         -1.1916   -1.7000    0.9236 O.3       1 <0>        -0.3265
     13 C9         -1.3376   -0.6042    0.1514 C.2       1 <0>         0.5119
     14 O3         -2.3712   -0.1805   -0.3089 O.2       1 <0>        -0.3994
     15 C10         1.5108    0.3834    2.0797 C.3       1 <0>        -0.1285
     16 O4          1.0883   -1.9717   -0.7465 O.3       1 <0>        -0.3597
     17 H3          1.0898    1.8793   -0.0021 H         1 <0>         0.0862
     18 H4         -0.4087    1.8824   -0.9628 H         1 <0>         0.0818
     19 H5         -0.4913    1.9028    0.8152 H         1 <0>         0.0714
     20 H6          2.5802   -0.2027   -2.3511 H         1 <0>         0.0880
     21 H7          2.0163    1.1195   -1.2768 H         1 <0>         0.0921
     22 H8          3.7769   -1.1254   -0.5876 H         1 <0>         0.0887
     23 H9          3.2138    0.1974    0.4864 H         1 <0>         0.0929
     24 H10         0.7464    0.9514    2.6099 H         1 <0>         0.0711
     25 H11         2.1428   -0.1359    2.8001 H         1 <0>         0.0817
     26 H12         2.1209    1.0628    1.4845 H         1 <0>         0.0869
@<TRIPOS>BOND
     1    1    2 1
     2    1   17 1
     3    1   18 1
     4    1   19 1
     5    2    9 1
     6    2   13 1
     7    2    3 1
     8    3    4 1
     9    3   16 1
    10    3    5 1
    11    5    6 1
    12    5   20 1
    13    5   21 1
    14    6    7 1
    15    6   22 1
    16    6   23 1
    17    7    8 1
    18    7    9 1
    19    7   16 1
    20    9   10 1
    21    9   15 1
    22   10   11 2
    23   10   12 1
    24   12   13 1
    25   13   14 2
    26   15   24 1
    27   15   25 1
    28   15   26 1
@<TRIPOS>MOLECULE
ZINC38545497
   80    84     0     0     0
SMALL
USER_CHARGES

@<TRIPOS>ATOM
      1 C1          0.9093    1.5058    0.1038 C.3       1 <0>        -0.1547
      2 C2          0.8376   -0.0172    0.1230 C.3       1 <0>        -0.0329
      3 C3         -0.5809   -0.4170    0.5681 C.3       1 <0>        -0.1071
      4 C4         -0.8309    0.0775    1.9888 C.3       1 <0>        -0.1479
      5 C5          0.1425   -0.5743    2.9612 C.3       1 <0>         0.1205
      6 H1         -0.0112   -0.1422    3.9582 H         1 <0>         0.0431
      7 C6          1.6013   -0.3627    2.5579 C.3       1 <0>        -0.0368
      8 C7          1.8380   -0.6339    1.0909 C.3       1 <0>        -0.0560
      9 H2          1.7448   -1.7422    0.9566 H         1 <0>         0.0626
     10 C8          3.2568   -0.2876    0.6377 C.3       1 <0>        -0.1158
     11 C9          3.4983   -1.0374   -0.6844 C.3       1 <0>        -0.1108
     12 C10         2.5149   -0.5713   -1.7515 C.3       1 <0>        -0.0249
     13 C11         1.0728   -0.6083   -1.2680 C.3       1 <0>        -0.0546
     14 H3          0.7493   -1.6685   -1.1988 H         1 <0>         0.0592
     15 C12         0.1705    0.0609   -2.3047 C.3       1 <0>        -0.0721
     16 C13         0.4596   -0.4999   -3.6674 C.2       1 <0>        -0.1759
     17 C14         1.5525   -1.1404   -3.9873 C.2       1 <0>        -0.0463
     18 C15         2.6407   -1.4545   -3.0039 C.3       1 <0>         0.0076
     19 C16         4.0274   -1.3301   -3.6179 C.3       1 <0>        -0.0993
     20 C17         4.0880   -1.9536   -5.0140 C.3       1 <0>        -0.0859
     21 C18         3.0697   -1.2959   -5.9405 C.3       1 <0>        -0.1129
     22 C19         1.6606   -1.5979   -5.4326 C.3       1 <0>        -0.0180
     23 H4          0.9406   -1.0155   -6.0281 H         1 <0>         0.0685
     24 C20         1.3378   -3.0799   -5.5481 C.3       1 <0>        -0.0995
     25 C21         1.4884   -3.5667   -6.9911 C.3       1 <0>        -0.0624
     26 C22         2.9055   -3.2809   -7.4834 C.3       1 <0>        -0.1011
     27 C23         3.2385   -1.7991   -7.3726 C.3       1 <0>        -0.0915
     28 C24         0.4579   -2.8889   -7.8910 C.3       1 <0>        -0.1393
     29 C25         1.2511   -5.0838   -7.0202 C.3       1 <0>        -0.1396
     30 C26         3.2779    0.2009   -5.9489 C.2       1 <0>         0.5073
     31 O1          4.3446    0.6660   -6.3127 O.co2     1 <0>        -0.7088
     32 O2          2.3792    0.9434   -5.5918 O.co2     1 <0>        -0.6828
     33 C27         2.4611   -2.9134   -2.5632 C.3       1 <0>        -0.1506
     34 C28         2.8955    0.8582   -2.1684 C.3       1 <0>        -0.1522
     35 C29         2.4278   -1.3884    3.3760 C.3       1 <0>        -0.1391
     36 C30         2.0680    1.0281    2.9872 C.3       1 <0>        -0.1458
     37 O3         -0.1277   -1.9779    3.0385 O.3       1 <0>        -0.5619
     38 H5          1.9437    1.8191   -0.0374 H         1 <0>         0.0648
     39 H6          0.2990    1.8880   -0.7145 H         1 <0>         0.0586
     40 H7          0.5364    1.8991    1.0495 H         1 <0>         0.0523
     41 H8         -1.3020    0.0350   -0.1108 H         1 <0>         0.0618
     42 H9         -0.6704   -1.5013    0.5298 H         1 <0>         0.0644
     43 H10        -0.7632    1.1605    2.0462 H         1 <0>         0.0736
     44 H11        -1.8557   -0.2009    2.2773 H         1 <0>         0.0536
     45 H12         3.3903    0.7741    0.4956 H         1 <0>         0.0677
     46 H13         3.9851   -0.6500    1.3660 H         1 <0>         0.0548
     47 H14         4.5214   -0.8344   -1.0133 H         1 <0>         0.0584
     48 H15         3.4009   -2.0960   -0.4667 H         1 <0>         0.0613
     49 H16        -0.8766   -0.1593   -2.0607 H         1 <0>         0.0501
     50 H17         0.2944    1.1377   -2.3340 H         1 <0>         0.0728
     51 H18        -0.2871   -0.3680   -4.4388 H         1 <0>         0.0894
     52 H19         4.3965   -0.3146   -3.6634 H         1 <0>         0.0743
     53 H20         4.7345   -1.8913   -2.9760 H         1 <0>         0.0378
     54 H21         5.0910   -1.8025   -5.4252 H         1 <0>         0.0520
     55 H22         3.8958   -3.0240   -4.9515 H         1 <0>         0.0448
     56 H23         2.0163   -3.6697   -4.9279 H         1 <0>         0.0618
     57 H24         0.3132   -3.2603   -5.2139 H         1 <0>         0.0490
     58 H25         3.6185   -3.8602   -6.8907 H         1 <0>         0.0547
     59 H26         2.9926   -3.5965   -8.5272 H         1 <0>         0.0479
     60 H27         2.6005   -1.2170   -8.0386 H         1 <0>         0.0503
     61 H28         4.2783   -1.6395   -7.6804 H         1 <0>         0.0569
     62 H29         0.6053   -1.8093   -7.8631 H         1 <0>         0.0623
     63 H30         0.5781   -3.2458   -8.9139 H         1 <0>         0.0465
     64 H31        -0.5455   -3.1278   -7.5383 H         1 <0>         0.0478
     65 H32         0.2468   -5.3015   -6.6569 H         1 <0>         0.0492
     66 H33         1.3547   -5.4482   -8.0423 H         1 <0>         0.0484
     67 H34         1.9835   -5.5784   -6.3822 H         1 <0>         0.0497
     68 H35         1.4393   -3.0647   -2.2152 H         1 <0>         0.0500
     69 H36         2.6593   -3.5748   -3.4067 H         1 <0>         0.0570
     70 H37         3.1572   -3.1370   -1.7548 H         1 <0>         0.0535
     71 H38         3.8830    0.8514   -2.6297 H         1 <0>         0.0537
     72 H39         2.1635    1.2354   -2.8825 H         1 <0>         0.0764
     73 H40         2.9098    1.5016   -1.2887 H         1 <0>         0.0456
     74 H41         2.0961   -2.3980    3.1339 H         1 <0>         0.0643
     75 H42         3.4841   -1.2838    3.1284 H         1 <0>         0.0505
     76 H43         2.2841   -1.2042    4.4406 H         1 <0>         0.0454
     77 H44         2.0879    1.0848    4.0755 H         1 <0>         0.0499
     78 H45         3.0682    1.2127    2.5953 H         1 <0>         0.0646
     79 H46         1.3806    1.7785    2.5968 H         1 <0>         0.0600
     80 H47        -1.0205   -2.1904    3.3433 H         1 <0>         0.3697
@<TRIPOS>BOND
     1    1    2 1
     2    1   38 1
     3    1   39 1
     4    1   40 1
     5    2    8 1
     6    2   13 1
     7    2    3 1
     8    3    4 1
     9    3   41 1
    10    3   42 1
    11    4    5 1
    12    4   43 1
    13    4   44 1
    14    5    6 1
    15    5    7 1
    16    5   37 1
    17    7    8 1
    18    7   35 1
    19    7   36 1
    20    8    9 1
    21    8   10 1
    22   10   11 1
    23   10   45 1
    24   10   46 1
    25   11   12 1
    26   11   47 1
    27   11   48 1
    28   12   18 1
    29   12   13 1
    30   12   34 1
    31   13   14 1
    32   13   15 1
    33   15   16 1
    34   15   49 1
    35   15   50 1
    36   16   17 2
    37   16   51 1
    38   17   22 1
    39   17   18 1
    40   18   19 1
    41   18   33 1
    42   19   20 1
    43   19   52 1
    44   19   53 1
    45   20   21 1
    46   20   54 1
    47   20   55 1
    48   21   27 1
    49   21   22 1
    50   21   30 1
    51   22   23 1
    52   22   24 1
    53   24   25 1
    54   24   56 1
    55   24   57 1
    56   25   26 1
    57   25   28 1
    58   25   29 1
    59   26   27 1
    60   26   58 1
    61   26   59 1
    62   27   60 1
    63   27   61 1
    64   28   62 1
    65   28   63 1
    66   28   64 1
    67   29   65 1
    68   29   66 1
    69   29   67 1
    70   30   31 2
    71   30   32 1
    72   33   68 1
    73   33   69 1
    74   33   70 1
    75   34   71 1
    76   34   72 1
    77   34   73 1
    78   35   74 1
    79   35   75 1
    80   35   76 1
    81   36   77 1
    82   36   78 1
    83   36   79 1
    84   37   80 1
@<TRIPOS>MOLECULE
ZINC06003698
   81    85     0     0     0
SMALL
USER_CHARGES
1,10-dihydroxy-1,2,6a,6b,9,9,12a-heptamethyl-2,3,4,5,6,6a,7,8,8a,10,11,12,13,14b-tetradecahydropicene-4a-carboxylic acid
@<TRIPOS>ATOM
      1 C1          1.7932    3.0613    0.2055 C.3       1 <0>        -0.1511
      2 C2          0.2839    2.9112    0.3920 C.3       1 <0>        -0.1216
      3 H1         -0.2330    3.1749   -0.5259 H         1 <0>         0.0713
      4 C3         -0.1858    3.8137    1.5354 C.3       1 <0>        -0.1069
      5 C4         -1.7039    3.7075    1.6561 C.3       1 <0>        -0.0932
      6 C5         -2.1393    2.2709    1.9376 C.3       1 <0>        -0.0828
      7 C6         -1.7805    1.8628    3.3589 C.3       1 <0>        -0.0836
      8 C7         -2.3768    0.5008    3.7067 C.3       1 <0>        -0.0964
      9 C8         -1.9734   -0.5850    2.7234 C.3       1 <0>         0.0120
     10 C9         -1.9374   -0.1176    1.3018 C.2       1 <0>        -0.0287
     11 C10        -2.2720   -0.8966    0.3022 C.2       1 <0>        -0.1845
     12 C11        -2.7223   -2.3206    0.4207 C.3       1 <0>        -0.0696
     13 C12        -2.4822   -2.8482    1.8329 C.3       1 <0>        -0.0553
     14 H2         -1.3869   -3.0195    1.9221 H         1 <0>         0.0587
     15 C13        -2.9027   -1.8068    2.8558 C.3       1 <0>        -0.0276
     16 C14        -2.8720   -2.3275    4.2860 C.3       1 <0>        -0.1098
     17 C15        -3.5895   -3.6814    4.4007 C.3       1 <0>        -0.1117
     18 C16        -2.8771   -4.6597    3.4684 C.3       1 <0>        -0.0573
     19 H3         -1.7825   -4.5115    3.6558 H         1 <0>         0.0568
     20 C17        -3.1045   -4.2343    2.0229 C.3       1 <0>        -0.0347
     21 C18        -2.3604   -5.2101    1.0958 C.3       1 <0>        -0.1094
     22 C19        -2.8629   -6.6313    1.3343 C.3       1 <0>        -0.1481
     23 C20        -2.5570   -7.0602    2.7644 C.3       1 <0>         0.1191
     24 H4         -1.4713   -7.0824    2.9072 H         1 <0>         0.0463
     25 C21        -3.1694   -6.1066    3.7906 C.3       1 <0>        -0.0371
     26 C22        -4.6633   -6.3914    3.9408 C.3       1 <0>        -0.1326
     27 C23        -2.5042   -6.4438    5.1482 C.3       1 <0>        -0.1457
     28 O1         -3.0702   -8.3786    2.9848 O.3       1 <0>        -0.5658
     29 C24        -4.5785   -4.2482    1.6385 C.3       1 <0>        -0.1531
     30 C25        -4.3282   -1.3141    2.5515 C.3       1 <0>        -0.1501
     31 C26        -1.5395    1.2960    0.9313 C.3       1 <0>        -0.0078
     32 H5         -2.0069    1.5180   -0.0561 H         1 <0>         0.0761
     33 C27        -0.0397    1.4555    0.7631 C.3       1 <0>         0.1543
     34 C28         0.4666    0.5531   -0.3699 C.3       1 <0>        -0.1800
     35 O2          0.6778    1.1435    1.9552 O.3       1 <0>        -0.5377
     36 C29        -0.5610   -1.0456    3.1098 C.3       1 <0>        -0.1520
     37 C30        -3.6502    2.2361    1.7843 C.2       1 <0>         0.4737
     38 O3         -4.1574    1.5115    0.9611 O.co2     1 <0>        -0.6277
     39 H6          2.1284    2.3983   -0.5921 H         1 <0>         0.0557
     40 H7          2.0259    4.0931   -0.0579 H         1 <0>         0.0534
     41 H8          2.3017    2.7997    1.1334 H         1 <0>         0.0546
     42 H9          0.2824    3.5027    2.4677 H         1 <0>         0.0684
     43 H10         0.0926    4.8466    1.3188 H         1 <0>         0.0490
     44 H11        -2.0474    4.3516    2.4685 H         1 <0>         0.0639
     45 H12        -2.1634    4.0429    0.7234 H         1 <0>         0.0469
     46 H13        -0.7023    1.8490    3.4966 H         1 <0>         0.0668
     47 H14        -2.1926    2.6092    4.0528 H         1 <0>         0.0478
     48 H15        -3.4506    0.5920    3.8268 H         1 <0>         0.0674
     49 H16        -1.9846    0.2163    4.7042 H         1 <0>         0.0370
     50 H17        -2.2256   -0.4661   -0.6921 H         1 <0>         0.0875
     51 H18        -2.1442   -2.9281   -0.2895 H         1 <0>         0.0507
     52 H19        -3.7694   -2.3821    0.1337 H         1 <0>         0.0701
     53 H20        -1.8579   -2.4642    4.6520 H         1 <0>         0.0614
     54 H21        -3.3846   -1.6146    4.9423 H         1 <0>         0.0590
     55 H22        -4.6355   -3.5697    4.1513 H         1 <0>         0.0683
     56 H23        -3.5072   -4.0196    5.4366 H         1 <0>         0.0558
     57 H24        -2.5451   -4.9256    0.0599 H         1 <0>         0.0668
     58 H25        -1.2933   -5.1555    1.3059 H         1 <0>         0.0591
     59 H26        -3.9258   -6.7141    1.1281 H         1 <0>         0.0753
     60 H27        -2.3365   -7.3070    0.6445 H         1 <0>         0.0529
     61 H28        -4.8022   -7.3682    4.4040 H         1 <0>         0.0559
     62 H29        -5.1182   -5.6242    4.5674 H         1 <0>         0.0530
     63 H30        -5.1350   -6.3848    2.9582 H         1 <0>         0.0561
     64 H31        -1.4269   -6.2967    5.0714 H         1 <0>         0.0477
     65 H32        -2.9060   -5.7897    5.9220 H         1 <0>         0.0558
     66 H33        -2.7116   -7.4823    5.4065 H         1 <0>         0.0575
     67 H34        -2.6953   -9.0498    2.3982 H         1 <0>         0.3711
     68 H35        -4.7049   -3.7714    0.6665 H         1 <0>         0.0578
     69 H36        -4.9307   -5.2784    1.5865 H         1 <0>         0.0543
     70 H37        -5.1544   -3.7047    2.3875 H         1 <0>         0.0656
     71 H38        -4.4043   -1.0511    1.4965 H         1 <0>         0.0743
     72 H39        -5.0427   -2.1046    2.7814 H         1 <0>         0.0413
     73 H40        -4.5476   -0.4376    3.1612 H         1 <0>         0.0573
     74 H41         0.3032   -0.4910   -0.1033 H         1 <0>         0.0655
     75 H42         1.5317    0.7264   -0.5240 H         1 <0>         0.0534
     76 H43        -0.0753    0.7830   -1.2872 H         1 <0>         0.0572
     77 H44         1.6335    1.2733    1.8845 H         1 <0>         0.3557
     78 H45         0.0973   -0.1797    3.1794 H         1 <0>         0.0890
     79 H46        -0.5956   -1.5540    4.0734 H         1 <0>         0.0421
     80 H47        -0.1818   -1.7303    2.3512 H         1 <0>         0.0409
     81 O4         -4.4219    3.0102    2.5634 O.co2     1 <0>        -0.7755
@<TRIPOS>BOND
     1    1    2 1
     2    1   39 1
     3    1   40 1
     4    1   41 1
     5    2    3 1
     6    2   33 1
     7    2    4 1
     8    4    5 1
     9    4   42 1
    10    4   43 1
    11    5    6 1
    12    5   44 1
    13    5   45 1
    14    6   31 1
    15    6    7 1
    16    6   37 1
    17    7    8 1
    18    7   46 1
    19    7   47 1
    20    8    9 1
    21    8   48 1
    22    8   49 1
    23    9   15 1
    24    9   10 1
    25    9   36 1
    26   10   11 2
    27   10   31 1
    28   11   12 1
    29   11   50 1
    30   12   13 1
    31   12   51 1
    32   12   52 1
    33   13   14 1
    34   13   20 1
    35   13   15 1
    36   15   16 1
    37   15   30 1
    38   16   17 1
    39   16   53 1
    40   16   54 1
    41   17   18 1
    42   17   55 1
    43   17   56 1
    44   18   19 1
    45   18   25 1
    46   18   20 1
    47   20   21 1
    48   20   29 1
    49   21   22 1
    50   21   57 1
    51   21   58 1
    52   22   23 1
    53   22   59 1
    54   22   60 1
    55   23   24 1
    56   23   25 1
    57   23   28 1
    58   25   26 1
    59   25   27 1
    60   26   61 1
    61   26   62 1
    62   26   63 1
    63   27   64 1
    64   27   65 1
    65   27   66 1
    66   28   67 1
    67   29   68 1
    68   29   69 1
    69   29   70 1
    70   30   71 1
    71   30   72 1
    72   30   73 1
    73   31   32 1
    74   31   33 1
    75   33   34 1
    76   33   35 1
    77   34   74 1
    78   34   75 1
    79   34   76 1
    80   35   77 1
    81   36   78 1
    82   36   79 1
    83   36   80 1
    84   37   38 2
    85   37   81 1
@<TRIPOS>MOLECULE
ZINC03964580
   84    88     0     0     0
SMALL
USER_CHARGES

@<TRIPOS>ATOM
      1 C1          1.0499    1.4741   -0.2429 C.3       1 <0>        -0.1547
      2 C2          0.9779   -0.0470   -0.1720 C.3       1 <0>        -0.0351
      3 C3         -0.4410   -0.4323    0.2850 C.3       1 <0>        -0.1097
      4 C4         -0.6892    0.1065    1.6907 C.3       1 <0>        -0.1502
      5 C5          0.2819   -0.5261    2.6786 C.3       1 <0>         0.1186
      6 H1          0.0844   -1.6023    2.7370 H         1 <0>         0.0474
      7 C6          1.7407   -0.3152    2.2722 C.3       1 <0>        -0.0382
      8 C7          1.9794   -0.6326    0.8146 C.3       1 <0>        -0.0573
      9 H2          1.8842   -1.7447    0.7160 H         1 <0>         0.0583
     10 C8          3.3987   -0.3016    0.3532 C.3       1 <0>        -0.1141
     11 C9          3.6417   -1.0892   -0.9461 C.3       1 <0>        -0.1132
     12 C10         2.6563   -0.6603   -2.0269 C.3       1 <0>        -0.0244
     13 C11         1.2137   -0.6831   -1.5436 C.3       1 <0>        -0.0583
     14 H3          0.8927   -1.7406   -1.4421 H         1 <0>         0.0651
     15 C12         0.3116   -0.0486   -2.6024 C.3       1 <0>        -0.0831
     16 C13         0.6020   -0.6524   -3.9460 C.2       1 <0>        -0.1430
     17 C14         1.6955   -1.3017   -4.2441 C.2       1 <0>        -0.0956
     18 C15         2.7839   -1.5830   -3.2508 C.3       1 <0>         0.0034
     19 C16         4.1713   -1.4764   -3.8683 C.3       1 <0>        -0.1141
     20 C17         4.2330   -2.1443   -5.2435 C.3       1 <0>        -0.1082
     21 C18         3.2136   -1.5183   -6.1896 C.3       1 <0>        -0.0275
     22 C19         1.8051   -1.8058   -5.6742 C.3       1 <0>        -0.0254
     23 H4          1.0839   -1.2442   -6.2883 H         1 <0>         0.0811
     24 C20         1.4868   -3.2914   -5.7428 C.3       1 <0>        -0.1005
     25 C21         1.6411   -3.8245   -7.1683 C.3       1 <0>        -0.0657
     26 C22         3.0571   -3.5508   -7.6702 C.3       1 <0>        -0.1042
     27 C23         3.3853   -2.0660   -7.6048 C.3       1 <0>        -0.1103
     28 C24         0.6100   -3.1806   -8.0928 C.3       1 <0>        -0.1433
     29 C25         1.4085   -5.3431   -7.1509 C.3       1 <0>        -0.1437
     30 C26         3.4201   -0.0222   -6.2454 C.2       1 <0>         0.4658
     31 O1          2.5289    0.7235   -5.9146 O.2       1 <0>        -0.4891
     32 O2          4.5937    0.4782   -6.6626 O.3       1 <0>        -0.3544
     33 C27         4.7192    1.9014   -6.6901 C.3       1 <0>         0.0333
     34 C28         2.6055   -3.0267   -2.7629 C.3       1 <0>        -0.1540
     35 C29         3.0344    0.7559   -2.4910 C.3       1 <0>        -0.1573
     36 C30         2.5752   -1.3056    3.1233 C.3       1 <0>        -0.1472
     37 C31         2.1919    1.0934    2.6566 C.3       1 <0>        -0.1330
     38 O3          0.0729    0.0410    3.9780 O.3       1 <0>        -0.5651
     39 H5          2.0843    1.7822   -0.3952 H         1 <0>         0.0632
     40 H6          0.4393    1.8284   -1.0733 H         1 <0>         0.0568
     41 H7          0.6777    1.8992    0.6892 H         1 <0>         0.0607
     42 H8         -1.1648   -0.0031   -0.4065 H         1 <0>         0.0672
     43 H9         -0.5300   -1.5176    0.2838 H         1 <0>         0.0607
     44 H10        -0.6140    1.1893    1.7187 H         1 <0>         0.0763
     45 H11        -1.7146   -0.1603    1.9876 H         1 <0>         0.0563
     46 H12         3.5358    0.7552    0.1825 H         1 <0>         0.0695
     47 H13         4.1257   -0.6439    1.0928 H         1 <0>         0.0614
     48 H14         4.6628   -0.8897   -1.2818 H         1 <0>         0.0601
     49 H15         3.5508   -2.1438   -0.6986 H         1 <0>         0.0669
     50 H16        -0.7357   -0.2600   -2.3501 H         1 <0>         0.0633
     51 H17         0.4350    1.0271   -2.6641 H         1 <0>         0.0794
     52 H18        -0.1437   -0.5444   -4.7231 H         1 <0>         0.0973
     53 H19         4.5379   -0.4619   -3.9459 H         1 <0>         0.0682
     54 H20         4.8785   -2.0152   -3.2094 H         1 <0>         0.0645
     55 H21         5.2367   -2.0031   -5.6588 H         1 <0>         0.0727
     56 H22         4.0468   -3.2120   -5.1483 H         1 <0>         0.0819
     57 H23         2.1677   -3.8588   -5.1053 H         1 <0>         0.0726
     58 H24         0.4624   -3.4660   -5.4048 H         1 <0>         0.0676
     59 H25         3.7714   -4.1111   -7.0611 H         1 <0>         0.0669
     60 H26         3.1430   -3.8957   -8.7056 H         1 <0>         0.0672
     61 H27         2.7465   -1.5058   -8.2886 H         1 <0>         0.0666
     62 H28         4.4259   -1.9150   -7.9146 H         1 <0>         0.0749
     63 H29         0.7537   -2.1002   -8.1007 H         1 <0>         0.0552
     64 H30         0.7338   -3.5710   -9.1029 H         1 <0>         0.0547
     65 H31        -0.3933   -3.4112   -7.7346 H         1 <0>         0.0552
     66 H32         0.4041   -5.5526   -6.7829 H         1 <0>         0.0552
     67 H33         1.5151   -5.7386   -8.1610 H         1 <0>         0.0554
     68 H34         2.1411   -5.8155   -6.4965 H         1 <0>         0.0544
     69 H35         5.7135    2.1717   -7.0455 H         1 <0>         0.0997
     70 H36         3.9678    2.3195   -7.3600 H         1 <0>         0.0583
     71 H37         4.5718    2.2986   -5.6858 H         1 <0>         0.0588
     72 H38         1.5831   -3.1680   -2.4124 H         1 <0>         0.0567
     73 H39         2.8067   -3.7152   -3.5836 H         1 <0>         0.0593
     74 H40         3.2999   -3.2225   -1.9458 H         1 <0>         0.0614
     75 H41         4.0220    0.7357   -2.9518 H         1 <0>         0.0487
     76 H42         2.3017    1.1079   -3.2172 H         1 <0>         0.0669
     77 H43         3.0474    1.4281   -1.6331 H         1 <0>         0.0590
     78 H44         2.2536   -2.3257    2.9132 H         1 <0>         0.0486
     79 H45         3.6309   -1.1989    2.8740 H         1 <0>         0.0554
     80 H46         2.4280   -1.0889    4.1814 H         1 <0>         0.0606
     81 H47         2.2169    1.1832    3.7426 H         1 <0>         0.0596
     82 H48         3.1876    1.2786    2.2537 H         1 <0>         0.0515
     83 H49         1.4930    1.8231    2.2477 H         1 <0>         0.0560
     84 H50        -0.8190   -0.0931    4.3268 H         1 <0>         0.3742
@<TRIPOS>BOND
     1    1    2 1
     2    1   39 1
     3    1   40 1
     4    1   41 1
     5    2    8 1
     6    2   13 1
     7    2    3 1
     8    3    4 1
     9    3   42 1
    10    3   43 1
    11    4    5 1
    12    4   44 1
    13    4   45 1
    14    5    6 1
    15    5    7 1
    16    5   38 1
    17    7    8 1
    18    7   36 1
    19    7   37 1
    20    8    9 1
    21    8   10 1
    22   10   11 1
    23   10   46 1
    24   10   47 1
    25   11   12 1
    26   11   48 1
    27   11   49 1
    28   12   18 1
    29   12   13 1
    30   12   35 1
    31   13   14 1
    32   13   15 1
    33   15   16 1
    34   15   50 1
    35   15   51 1
    36   16   17 2
    37   16   52 1
    38   17   22 1
    39   17   18 1
    40   18   19 1
    41   18   34 1
    42   19   20 1
    43   19   53 1
    44   19   54 1
    45   20   21 1
    46   20   55 1
    47   20   56 1
    48   21   27 1
    49   21   22 1
    50   21   30 1
    51   22   23 1
    52   22   24 1
    53   24   25 1
    54   24   57 1
    55   24   58 1
    56   25   26 1
    57   25   28 1
    58   25   29 1
    59   26   27 1
    60   26   59 1
    61   26   60 1
    62   27   61 1
    63   27   62 1
    64   28   63 1
    65   28   64 1
    66   28   65 1
    67   29   66 1
    68   29   67 1
    69   29   68 1
    70   30   31 2
    71   30   32 1
    72   32   33 1
    73   33   69 1
    74   33   70 1
    75   33   71 1
    76   34   72 1
    77   34   73 1
    78   34   74 1
    79   35   75 1
    80   35   76 1
    81   35   77 1
    82   36   78 1
    83   36   79 1
    84   36   80 1
    85   37   81 1
    86   37   82 1
    87   37   83 1
    88   38   84 1
@<TRIPOS>MOLECULE
ZINC01700208
   18    19     0     0     0
SMALL
USER_CHARGES

@<TRIPOS>ATOM
      1 C1         -0.0167    1.3807    0.0096 C.ar      1 <0>        -0.0891
      2 C2          1.1632    2.1012    0.0022 C.ar      1 <0>        -0.1127
      3 C3          2.3846    1.4461   -0.0134 C.ar      1 <0>        -0.0576
      4 C4          2.4214    0.0565   -0.0213 C.ar      1 <0>        -0.1498
      5 C5          1.2207   -0.6819   -0.0133 C.ar      1 <0>        -0.0463
      6 C6          0.0021   -0.0041    0.0020 C.ar      1 <0>        -0.0967
      7 C7          1.2577   -2.1490   -0.0225 C.2       1 <0>        -0.0099
      8 C8          2.4187   -2.8299   -0.0382 C.2       1 <0>        -0.2225
      9 C9          3.6692   -2.1674   -0.0471 C.2       1 <0>         0.3512
     10 O1          4.7021   -2.8074   -0.0612 O.2       1 <0>        -0.3934
     11 C10         3.7078   -0.6701   -0.0384 C.2       1 <0>         0.3576
     12 O2          4.7633   -0.0721   -0.0461 O.2       1 <0>        -0.3863
     13 H1         -0.9620    1.9027    0.0260 H         1 <0>         0.1366
     14 H2          1.1330    3.1807    0.0083 H         1 <0>         0.1374
     15 H3          3.3039    2.0130   -0.0199 H         1 <0>         0.1412
     16 H4         -0.9251   -0.5578    0.0083 H         1 <0>         0.1404
     17 H5          0.3275   -2.6977   -0.0162 H         1 <0>         0.1472
     18 H6          2.3954   -3.9096   -0.0437 H         1 <0>         0.1527
@<TRIPOS>BOND
     1    1    6 ar
     2    1    2 ar
     3    1   13 1
     4    2    3 ar
     5    2   14 1
     6    3    4 ar
     7    3   15 1
     8    4   11 1
     9    4    5 ar
    10    5    6 ar
    11    5    7 1
    12    6   16 1
    13    7    8 2
    14    7   17 1
    15    8    9 1
    16    8   18 1
    17    9   10 2
    18    9   11 1
    19   11   12 2
@<TRIPOS>MOLECULE
ZINC02139624
   60    62     0     0     0
SMALL
USER_CHARGES

@<TRIPOS>ATOM
      1 C1          0.0994    1.4666   -0.3944 C.3       1 <0>        -0.1511
      2 C2          0.0877   -0.0634   -0.3996 C.3       1 <0>        -0.1236
      3 C3         -1.3435   -0.5631   -0.1926 C.3       1 <0>        -0.1170
      4 C4         -1.3552   -2.0931   -0.1978 C.3       1 <0>        -0.1114
      5 C5         -2.7864   -2.5928    0.0092 C.3       1 <0>        -0.0756
      6 C6         -2.7979   -4.0998    0.0041 C.ar      1 <0>        -0.0290
      7 C7         -2.9298   -4.7841   -1.2062 C.ar      1 <0>        -0.1245
      8 C8         -2.9397   -6.1878   -1.2047 C.ar      1 <0>         0.1511
      9 C9         -2.8198   -6.8652   -0.0081 C.ar      1 <0>        -0.1533
     10 C10        -2.6884   -6.1764    1.2007 C.ar      1 <0>         0.0940
     11 C11        -2.6715   -4.7912    1.2038 C.ar      1 <0>         0.0298
     12 O1         -2.5430   -4.0200    2.3097 O.3       1 <0>        -0.2576
     13 C12        -1.6073   -4.2506    3.2535 C.ar      1 <0>         0.1804
     14 C13        -0.5980   -3.3422    3.5260 C.ar      1 <0>        -0.1919
     15 C14         0.3099   -3.6012    4.5440 C.ar      1 <0>         0.1657
     16 C15         0.2113   -4.7633    5.3015 C.ar      1 <0>        -0.1216
     17 C16        -0.7892   -5.6935    5.0285 C.ar      1 <0>        -0.0629
     18 C17        -1.6831   -5.4477    3.9680 C.ar      1 <0>        -0.1910
     19 C18        -2.6612   -6.4611    3.5411 C.2       1 <0>         0.5475
     20 O2         -3.5365   -6.8324    4.2976 O.2       1 <0>        -0.3975
     21 O3         -2.5809   -6.9677    2.3031 O.3       1 <0>        -0.3041
     22 C19        -0.9104   -6.9183    5.8378 C.2       1 <0>         0.3835
     23 O4         -1.7840   -7.7225    5.5933 O.2       1 <0>        -0.4141
     24 C20         0.0516   -7.1716    6.9698 C.3       1 <0>        -0.1611
     25 C21        -0.2915   -8.5023    7.6425 C.3       1 <0>        -0.1141
     26 C22         0.6852   -8.7595    8.7918 C.3       1 <0>        -0.1236
     27 C23         0.3421  -10.0902    9.4645 C.3       1 <0>        -0.1538
     28 O5          1.3028   -2.7125    4.8019 O.3       1 <0>        -0.3044
     29 C24         1.3502   -1.5386    3.9884 C.3       1 <0>         0.0188
     30 O6         -3.0665   -6.8725   -2.3690 O.3       1 <0>        -0.4805
     31 C25        -3.0574   -4.0425   -2.4677 C.2       1 <0>         0.5419
     32 O7         -2.0625   -3.7980   -3.1371 O.co2     1 <0>        -0.6788
     33 O8         -4.1586   -3.6692   -2.8494 O.co2     1 <0>        -0.6727
     34 H1          1.1190    1.8226   -0.5419 H         1 <0>         0.0496
     35 H2         -0.5350    1.8375   -1.1994 H         1 <0>         0.0546
     36 H3         -0.2774    1.8295    0.5618 H         1 <0>         0.0500
     37 H4          0.4646   -0.4264   -1.3558 H         1 <0>         0.0648
     38 H5          0.7221   -0.4343    0.4054 H         1 <0>         0.0542
     39 H6         -1.7203   -0.2002    0.7636 H         1 <0>         0.0558
     40 H7         -1.9779   -0.1922   -0.9976 H         1 <0>         0.0660
     41 H8         -0.9783   -2.4561   -1.1540 H         1 <0>         0.0812
     42 H9         -0.7208   -2.4640    0.6072 H         1 <0>         0.0486
     43 H10        -3.1633   -2.2299    0.9654 H         1 <0>         0.0734
     44 H11        -3.4208   -2.2219   -0.7958 H         1 <0>         0.0883
     45 H12        -2.8279   -7.9451   -0.0059 H         1 <0>         0.1442
     46 H13        -0.5171   -2.4340    2.9472 H         1 <0>         0.1563
     47 H14         0.9120   -4.9452    6.1030 H         1 <0>         0.1545
     48 H15         1.0686   -7.2132    6.5799 H         1 <0>         0.1034
     49 H16        -0.0252   -6.3653    7.6993 H         1 <0>         0.1031
     50 H17        -1.3085   -8.4607    8.0324 H         1 <0>         0.0704
     51 H18        -0.2147   -9.3086    6.9131 H         1 <0>         0.0698
     52 H19         1.7022   -8.8011    8.4019 H         1 <0>         0.0626
     53 H20         0.6084   -7.9532    9.5212 H         1 <0>         0.0625
     54 H21        -0.6750  -10.0486    9.8544 H         1 <0>         0.0545
     55 H22         0.4189  -10.8965    8.7351 H         1 <0>         0.0546
     56 H23         1.0379  -10.2735   10.2833 H         1 <0>         0.0535
     57 H24         1.4773   -1.8250    2.9444 H         1 <0>         0.0641
     58 H25         0.4208   -0.9804    4.1014 H         1 <0>         0.0630
     59 H26         2.1886   -0.9151    4.2988 H         1 <0>         0.1073
     60 H27        -2.2247   -7.0773   -2.7985 H         1 <0>         0.3924
@<TRIPOS>BOND
     1    1    2 1
     2    1   34 1
     3    1   35 1
     4    1   36 1
     5    2    3 1
     6    2   37 1
     7    2   38 1
     8    3    4 1
     9    3   39 1
    10    3   40 1
    11    4    5 1
    12    4   41 1
    13    4   42 1
    14    5    6 1
    15    5   43 1
    16    5   44 1
    17    6   11 ar
    18    6    7 ar
    19    7    8 ar
    20    7   31 1
    21    8    9 ar
    22    8   30 1
    23    9   10 ar
    24    9   45 1
    25   10   21 1
    26   10   11 ar
    27   11   12 1
    28   12   13 1
    29   13   18 ar
    30   13   14 ar
    31   14   15 ar
    32   14   46 1
    33   15   16 ar
    34   15   28 1
    35   16   17 ar
    36   16   47 1
    37   17   18 ar
    38   17   22 1
    39   18   19 1
    40   19   20 2
    41   19   21 1
    42   22   23 2
    43   22   24 1
    44   24   25 1
    45   24   48 1
    46   24   49 1
    47   25   26 1
    48   25   50 1
    49   25   51 1
    50   26   27 1
    51   26   52 1
    52   26   53 1
    53   27   54 1
    54   27   55 1
    55   27   56 1
    56   28   29 1
    57   29   57 1
    58   29   58 1
    59   29   59 1
    60   30   60 1
    61   31   32 2
    62   31   33 1
@<TRIPOS>MOLECULE
ZINC49670025
   65    69     0     0     0
SMALL
USER_CHARGES

@<TRIPOS>ATOM
      1 C1         -0.0167    1.3786    0.0096 C.ar      1 <0>        -0.1199
      2 C2          1.1696    2.0892    0.0021 C.ar      1 <0>        -0.0967
      3 C3          2.3774    1.4195   -0.0135 C.ar      1 <0>        -0.1113
      4 C4          2.3996    0.0309   -0.0212 C.ar      1 <0>         0.1415
      5 C5          1.2065   -0.6797   -0.0132 C.ar      1 <0>        -0.1334
      6 C6          0.0021   -0.0041    0.0020 C.ar      1 <0>        -0.0894
      7 N1          3.6227   -0.6513   -0.0375 N.pl3     1 <0>        -0.2987
      8 C7          3.7640   -1.9904   -0.0515 C.2       1 <0>         0.1104
      9 C8          5.1174   -2.2722   -0.0658 C.2       1 <0>        -0.2198
     10 C9          5.8091   -0.9776   -0.0594 C.2       1 <0>         0.1507
     11 N2          4.8823   -0.0457   -0.0477 N.2       1 <0>        -0.2575
     12 C10         7.2754   -0.7619   -0.0698 C.ar      1 <0>         0.0356
     13 C11         8.1178   -1.6471    0.6015 C.ar      1 <0>        -0.1154
     14 C12         9.4822   -1.4412    0.5882 C.ar      1 <0>        -0.0143
     15 C13        10.0146   -0.3589   -0.0894 C.ar      1 <0>        -0.6674
     16 C14         9.1837    0.5228   -0.7572 C.ar      1 <0>        -0.0182
     17 C15         7.8182    0.3238   -0.7558 C.ar      1 <0>        -0.1054
     18 S1         11.7577   -0.1022   -0.1013 S.o2      1 <0>         2.6894
     19 O1         11.9626    1.2824   -0.3466 O.2       1 <0>        -0.9535
     20 O2         12.2724   -0.7561    1.0505 O.2       1 <0>        -0.9500
     21 N3         12.3626   -0.9100   -1.4142 N.pl3     1 <0>        -0.9947
     22 C16        12.7877   -2.3118   -1.3000 C.3       1 <0>         0.1182
     23 C17        12.0705   -3.1337   -2.3756 C.3       1 <0>        -0.1388
     24 C18        12.3302   -2.5080   -3.7478 C.3       1 <0>        -0.1179
     25 C19        11.7707   -1.0838   -3.7751 C.3       1 <0>        -0.1375
     26 C20        12.4788   -0.2405   -2.7169 C.3       1 <0>         0.1196
     27 C21         5.7387   -3.6008   -0.0835 C.2       1 <0>         0.1168
     28 C22         4.9605   -4.7146   -0.0875 C.2       1 <0>        -0.2404
     29 C23         5.3535   -6.1353   -0.0981 C.2       1 <0>         0.5419
     30 O3          6.5227   -6.4747   -0.1044 O.2       1 <0>        -0.4465
     31 N4          4.3732   -7.0228   -0.0999 N.am      1 <0>        -0.5105
     32 C24         3.0792   -6.6426   -0.0925 C.2       1 <0>         0.2845
     33 S2          1.6805   -7.6298   -0.0934 S.2       1 <0>        -0.3147
     34 S3          3.1789   -4.8599   -0.0736 S.3       1 <0>         0.0119
     35 C25         4.7001   -8.4508   -0.1108 C.3       1 <0>         0.1095
     36 C26         4.8198   -8.9576    1.3279 C.3       1 <0>        -0.6924
     37 S4          5.2245  -10.7258    1.3144 S.o2      1 <0>         2.6423
     38 O4          5.3435  -11.2302    2.6736 O.2       1 <0>        -1.0551
     39 O5          4.1566  -11.4192    0.6109 O.2       1 <0>        -1.0509
     40 O6          6.4842  -10.8865    0.6048 O.3       1 <0>        -1.0567
     41 H1         -0.9598    1.9047    0.0260 H         1 <0>         0.1323
     42 H2          1.1517    3.1690    0.0081 H         1 <0>         0.1350
     43 H3          3.3035    1.9750   -0.0201 H         1 <0>         0.1397
     44 H4          1.2205   -1.7596   -0.0195 H         1 <0>         0.1335
     45 H5         -0.9261   -0.5562    0.0079 H         1 <0>         0.1388
     46 H6          2.9630   -2.7148   -0.0511 H         1 <0>         0.1913
     47 H7          7.7033   -2.4922    1.1311 H         1 <0>         0.1418
     48 H8         10.1357   -2.1260    1.1081 H         1 <0>         0.1490
     49 H9          9.6050    1.3661   -1.2842 H         1 <0>         0.1453
     50 H10         7.1708    1.0103   -1.2813 H         1 <0>         0.1396
     51 H11        13.8657   -2.3798   -1.4464 H         1 <0>         0.0775
     52 H12        12.5261   -2.6937   -0.3132 H         1 <0>         0.0924
     53 H13        12.4485   -4.1561   -2.3645 H         1 <0>         0.0792
     54 H14        10.9991   -3.1392   -2.1751 H         1 <0>         0.0691
     55 H15        13.4033   -2.4802   -3.9371 H         1 <0>         0.0650
     56 H16        11.8413   -3.1050   -4.5176 H         1 <0>         0.0660
     57 H17        11.9352   -0.6471   -4.7601 H         1 <0>         0.0760
     58 H18        10.7021   -1.1086   -3.5615 H         1 <0>         0.0674
     59 H19        12.0134    0.7438   -2.6646 H         1 <0>         0.0897
     60 H20        13.5310   -0.1358   -2.9814 H         1 <0>         0.0764
     61 H21         6.8146   -3.6938   -0.0932 H         1 <0>         0.1666
     62 H22         3.9114   -9.0001   -0.6250 H         1 <0>         0.1246
     63 H23         5.6465   -8.6030   -0.6296 H         1 <0>         0.1173
     64 H24         5.6084   -8.4082    1.8421 H         1 <0>         0.1081
     65 H25         3.8734   -8.8054    1.8466 H         1 <0>         0.1127
@<TRIPOS>BOND
     1    1    6 ar
     2    1    2 ar
     3    1   41 1
     4    2    3 ar
     5    2   42 1
     6    3    4 ar
     7    3   43 1
     8    4    5 ar
     9    4    7 1
    10    5    6 ar
    11    5   44 1
    12    6   45 1
    13    7   11 1
    14    7    8 1
    15    8    9 2
    16    8   46 1
    17    9   10 1
    18    9   27 1
    19   10   11 2
    20   10   12 1
    21   12   17 ar
    22   12   13 ar
    23   13   14 ar
    24   13   47 1
    25   14   15 ar
    26   14   48 1
    27   15   16 ar
    28   15   18 1
    29   16   17 ar
    30   16   49 1
    31   17   50 1
    32   18   19 2
    33   18   20 2
    34   18   21 1
    35   21   26 1
    36   21   22 1
    37   22   23 1
    38   22   51 1
    39   22   52 1
    40   23   24 1
    41   23   53 1
    42   23   54 1
    43   24   25 1
    44   24   55 1
    45   24   56 1
    46   25   26 1
    47   25   57 1
    48   25   58 1
    49   26   59 1
    50   26   60 1
    51   27   28 2
    52   27   61 1
    53   28   34 1
    54   28   29 1
    55   29   30 2
    56   29   31 am
    57   31   32 1
    58   31   35 1
    59   32   33 2
    60   32   34 1
    61   35   36 1
    62   35   62 1
    63   35   63 1
    64   36   37 1
    65   36   64 1
    66   36   65 1
    67   37   38 2
    68   37   39 2
    69   37   40 1
@<TRIPOS>MOLECULE
ZINC49670134
   61    65     0     0     0
SMALL
USER_CHARGES

@<TRIPOS>ATOM
      1 C1         -0.0167    1.3786    0.0096 C.ar      1 <0>        -0.1226
      2 C2          1.1696    2.0892    0.0021 C.ar      1 <0>        -0.0970
      3 C3          2.3774    1.4195   -0.0134 C.ar      1 <0>        -0.1129
      4 C4          2.3996    0.0310   -0.0211 C.ar      1 <0>         0.1459
      5 C5          1.2065   -0.6797   -0.0130 C.ar      1 <0>        -0.1357
      6 C6          0.0021   -0.0041    0.0020 C.ar      1 <0>        -0.0893
      7 N1          3.6227   -0.6513   -0.0373 N.pl3     1 <0>        -0.3031
      8 C7          3.7638   -1.9902   -0.0512 C.2       1 <0>         0.1105
      9 C8          5.1174   -2.2722   -0.0646 C.2       1 <0>        -0.2275
     10 C9          5.8092   -0.9775   -0.0577 C.2       1 <0>         0.1746
     11 N2          4.8822   -0.0456   -0.0475 N.2       1 <0>        -0.2714
     12 C10         7.2752   -0.7618   -0.0668 C.ar      1 <0>        -0.0650
     13 C11         8.1161   -1.6479    0.6061 C.ar      1 <0>        -0.0516
     14 C12         9.4798   -1.4442    0.5957 C.ar      1 <0>        -0.1451
     15 C13        10.0160   -0.3585   -0.0837 C.ar      1 <0>         0.1471
     16 C14         9.1816    0.5258   -0.7542 C.ar      1 <0>        -0.2104
     17 C15         7.8175    0.3245   -0.7530 C.ar      1 <0>        -0.0400
     18 O1         11.3602   -0.1607   -0.0920 O.3       1 <0>        -0.3043
     19 C16        11.8443    0.9758   -0.8103 C.3       1 <0>         0.0995
     20 C17        13.3468    1.0317   -0.7086 C.ar      1 <0>        -0.0938
     21 C18        13.9439    1.7181    0.3323 C.ar      1 <0>        -0.0811
     22 C19        15.3219    1.7697    0.4260 C.ar      1 <0>        -0.1138
     23 C20        16.1037    1.1342   -0.5221 C.ar      1 <0>        -0.0243
     24 C21        15.5057    0.4474   -1.5636 C.ar      1 <0>        -0.1131
     25 C22        14.1275    0.3918   -1.6532 C.ar      1 <0>        -0.0803
     26 Cl1        17.8346    1.1990   -0.4053 Cl        1 <0>        -0.0661
     27 C23         5.7385   -3.6007   -0.0818 C.2       1 <0>         0.1240
     28 C24         4.9602   -4.7145   -0.0864 C.2       1 <0>        -0.2466
     29 C25         5.3531   -6.1350   -0.0967 C.2       1 <0>         0.5419
     30 O2          6.5223   -6.4745   -0.1026 O.2       1 <0>        -0.4479
     31 N3          4.3728   -7.0226   -0.0987 N.am      1 <0>        -0.5105
     32 C26         3.0788   -6.6424   -0.0921 C.2       1 <0>         0.2857
     33 S1          1.6801   -7.6296   -0.0934 S.2       1 <0>        -0.3220
     34 S2          3.1785   -4.8597   -0.0736 S.3       1 <0>         0.0132
     35 C27         4.6997   -8.4506   -0.1088 C.3       1 <0>         0.1077
     36 C28         4.8186   -8.9568    1.3302 C.3       1 <0>        -0.6916
     37 S3          5.2234  -10.7250    1.3177 S.o2      1 <0>         2.6424
     38 O3          5.3320  -11.1867    2.6928 O.2       1 <0>        -1.0578
     39 O4          4.1610  -11.4402    0.6278 O.2       1 <0>        -1.0502
     40 O5          6.4883  -10.9075    0.6228 O.3       1 <0>        -1.0560
     41 H1         -0.9598    1.9047    0.0260 H         1 <0>         0.1312
     42 H2          1.1517    3.1691    0.0080 H         1 <0>         0.1338
     43 H3          3.3035    1.9750   -0.0200 H         1 <0>         0.1393
     44 H4          1.2205   -1.7596   -0.0193 H         1 <0>         0.1331
     45 H5         -0.9261   -0.5562    0.0079 H         1 <0>         0.1378
     46 H6          2.9628   -2.7146   -0.0515 H         1 <0>         0.1888
     47 H7          7.6996   -2.4924    1.1350 H         1 <0>         0.1383
     48 H8         10.1315   -2.1298    1.1168 H         1 <0>         0.1414
     49 H9          9.6018    1.3697   -1.2811 H         1 <0>         0.1338
     50 H10         7.1694    1.0098   -1.2791 H         1 <0>         0.1321
     51 H11        11.5538    0.8944   -1.8577 H         1 <0>         0.0768
     52 H12        11.4173    1.8837   -0.3843 H         1 <0>         0.0762
     53 H13        13.3334    2.2144    1.0721 H         1 <0>         0.1353
     54 H14        15.7882    2.3062    1.2391 H         1 <0>         0.1372
     55 H15        16.1155   -0.0486   -2.3042 H         1 <0>         0.1378
     56 H16        13.6605   -0.1483   -2.4635 H         1 <0>         0.1362
     57 H17         6.8145   -3.6937   -0.0909 H         1 <0>         0.1668
     58 H18         3.9114   -9.0002   -0.6232 H         1 <0>         0.1238
     59 H19         5.6465   -8.6030   -0.6270 H         1 <0>         0.1165
     60 H20         5.6070   -8.4072    1.8446 H         1 <0>         0.1090
     61 H21         3.8719   -8.8044    1.8484 H         1 <0>         0.1136
@<TRIPOS>BOND
     1    1    6 ar
     2    1    2 ar
     3    1   41 1
     4    2    3 ar
     5    2   42 1
     6    3    4 ar
     7    3   43 1
     8    4    5 ar
     9    4    7 1
    10    5    6 ar
    11    5   44 1
    12    6   45 1
    13    7   11 1
    14    7    8 1
    15    8    9 2
    16    8   46 1
    17    9   10 1
    18    9   27 1
    19   10   11 2
    20   10   12 1
    21   12   17 ar
    22   12   13 ar
    23   13   14 ar
    24   13   47 1
    25   14   15 ar
    26   14   48 1
    27   15   16 ar
    28   15   18 1
    29   16   17 ar
    30   16   49 1
    31   17   50 1
    32   18   19 1
    33   19   20 1
    34   19   51 1
    35   19   52 1
    36   20   25 ar
    37   20   21 ar
    38   21   22 ar
    39   21   53 1
    40   22   23 ar
    41   22   54 1
    42   23   24 ar
    43   23   26 1
    44   24   25 ar
    45   24   55 1
    46   25   56 1
    47   27   28 2
    48   27   57 1
    49   28   34 1
    50   28   29 1
    51   29   30 2
    52   29   31 am
    53   31   32 1
    54   31   35 1
    55   32   33 2
    56   32   34 1
    57   35   36 1
    58   35   58 1
    59   35   59 1
    60   36   37 1
    61   36   60 1
    62   36   61 1
    63   37   38 2
    64   37   39 2
    65   37   40 1
@<TRIPOS>MOLECULE
ZINC49670037
   61    65     0     0     0
SMALL
USER_CHARGES

@<TRIPOS>ATOM
      1 C1         -0.0167    1.3781    0.0096 C.ar      1 <0>        -0.1090
      2 C2          1.1709    2.0855    0.0021 C.ar      1 <0>        -0.1229
      3 C3          2.3773    1.4107   -0.0130 C.ar      1 <0>        -0.0941
      4 C4          2.3960    0.0285   -0.0201 C.ar      1 <0>        -0.0987
      5 C5          1.2084   -0.6789   -0.0117 C.ar      1 <0>        -0.0949
      6 C6          0.0021   -0.0041    0.0020 C.ar      1 <0>        -0.1237
      7 C7          3.7112   -0.7071   -0.0376 C.3       1 <0>         0.1004
      8 O1          4.1410   -0.9464    1.3041 O.3       1 <0>        -0.3043
      9 C8          5.3183   -1.6048    1.4665 C.ar      1 <0>         0.1480
     10 C9          6.0465   -2.0064    0.3546 C.ar      1 <0>        -0.2110
     11 C10         7.2419   -2.6744    0.5158 C.ar      1 <0>        -0.0397
     12 C11         7.7194   -2.9465    1.7976 C.ar      1 <0>        -0.0666
     13 C12         6.9855   -2.5417    2.9124 C.ar      1 <0>        -0.0514
     14 C13         5.7935   -1.8695    2.7440 C.ar      1 <0>        -0.1461
     15 C14         9.0034   -3.6646    1.9748 C.2       1 <0>         0.1755
     16 C15         9.9846   -3.4473    3.0448 C.2       1 <0>        -0.2276
     17 C16        11.0186   -4.3350    2.8108 C.2       1 <0>         0.1104
     18 N1         10.7144   -5.0382    1.7036 N.pl3     1 <0>        -0.3034
     19 N2          9.4766   -4.6206    1.2067 N.2       1 <0>        -0.2717
     20 C17        11.5142   -6.0396    1.1387 C.ar      1 <0>         0.1462
     21 C18        12.7248   -6.3787    1.7287 C.ar      1 <0>        -0.1358
     22 C19        13.5113   -7.3666    1.1693 C.ar      1 <0>        -0.0894
     23 C20        13.0944   -8.0178    0.0228 C.ar      1 <0>        -0.1228
     24 C21        11.8895   -7.6825   -0.5671 C.ar      1 <0>        -0.0970
     25 C22        11.0957   -6.6995   -0.0093 C.ar      1 <0>        -0.1129
     26 C23         9.8874   -2.4808    4.1436 C.2       1 <0>         0.1244
     27 C24        10.8834   -2.3962    5.0641 C.2       1 <0>        -0.2470
     28 C25        11.0017   -1.5185    6.2422 C.2       1 <0>         0.5414
     29 O2         10.1359   -0.7113    6.5271 O.2       1 <0>        -0.4461
     30 N3         12.0946   -1.6515    6.9748 N.am      1 <0>        -0.5104
     31 C26        13.0514   -2.5469    6.6558 C.2       1 <0>         0.2868
     32 S1         14.5236   -2.8658    7.4694 S.2       1 <0>        -0.3261
     33 S2         12.4066   -3.3242    5.1833 S.3       1 <0>         0.0137
     34 C27        12.2701   -0.8070    8.1590 C.3       1 <0>         0.1095
     35 C28        11.6688   -1.5078    9.3788 C.3       1 <0>        -0.6916
     36 S3         11.8861   -0.4622   10.8451 S.o2      1 <0>         2.6426
     37 O3         11.3210   -1.1094   12.0189 O.2       1 <0>        -1.0556
     38 O4         13.2958   -0.1738   11.0590 O.2       1 <0>        -1.0484
     39 O5         11.1603    0.7623   10.5453 O.3       1 <0>        -1.0598
     40 H1         -0.9591    1.9053    0.0259 H         1 <0>         0.1244
     41 H2          1.1563    3.1654    0.0076 H         1 <0>         0.1260
     42 H3          3.3051    1.9634   -0.0196 H         1 <0>         0.1253
     43 H4          1.2231   -1.7588   -0.0176 H         1 <0>         0.1244
     44 H5         -0.9258   -0.5567    0.0082 H         1 <0>         0.1254
     45 H6          3.5884   -1.6586   -0.5549 H         1 <0>         0.0734
     46 H7          4.4573   -0.1052   -0.5563 H         1 <0>         0.0740
     47 H8          5.6760   -1.7957   -0.6377 H         1 <0>         0.1336
     48 H9          7.8076   -2.9868   -0.3495 H         1 <0>         0.1318
     49 H10         7.3525   -2.7509    3.9063 H         1 <0>         0.1381
     50 H11         5.2269   -1.5518    3.6068 H         1 <0>         0.1411
     51 H12        11.9109   -4.4447    3.4092 H         1 <0>         0.1887
     52 H13        13.0511   -5.8702    2.6239 H         1 <0>         0.1331
     53 H14        14.4530   -7.6305    1.6274 H         1 <0>         0.1377
     54 H15        13.7114   -8.7897   -0.4130 H         1 <0>         0.1311
     55 H16        11.5667   -8.1930   -1.4625 H         1 <0>         0.1338
     56 H17        10.1526   -6.4414   -0.4678 H         1 <0>         0.1393
     57 H18         9.0242   -1.8364    4.2212 H         1 <0>         0.1669
     58 H19        13.3329   -0.6332    8.3270 H         1 <0>         0.1224
     59 H20        11.7662    0.1469    8.0029 H         1 <0>         0.1188
     60 H21        10.6059   -1.6816    9.2108 H         1 <0>         0.1105
     61 H22        12.1726   -2.4617    9.5349 H         1 <0>         0.1098
@<TRIPOS>BOND
     1    1    6 ar
     2    1    2 ar
     3    1   40 1
     4    2    3 ar
     5    2   41 1
     6    3    4 ar
     7    3   42 1
     8    4    5 ar
     9    4    7 1
    10    5    6 ar
    11    5   43 1
    12    6   44 1
    13    7    8 1
    14    7   45 1
    15    7   46 1
    16    8    9 1
    17    9   14 ar
    18    9   10 ar
    19   10   11 ar
    20   10   47 1
    21   11   12 ar
    22   11   48 1
    23   12   13 ar
    24   12   15 1
    25   13   14 ar
    26   13   49 1
    27   14   50 1
    28   15   19 2
    29   15   16 1
    30   16   17 2
    31   16   26 1
    32   17   18 1
    33   17   51 1
    34   18   19 1
    35   18   20 1
    36   20   25 ar
    37   20   21 ar
    38   21   22 ar
    39   21   52 1
    40   22   23 ar
    41   22   53 1
    42   23   24 ar
    43   23   54 1
    44   24   25 ar
    45   24   55 1
    46   25   56 1
    47   26   27 2
    48   26   57 1
    49   27   33 1
    50   27   28 1
    51   28   29 2
    52   28   30 am
    53   30   31 1
    54   30   34 1
    55   31   32 2
    56   31   33 1
    57   34   35 1
    58   34   58 1
    59   34   59 1
    60   35   36 1
    61   35   60 1
    62   35   61 1
    63   36   37 2
    64   36   38 2
    65   36   39 1
@<TRIPOS>MOLECULE
ZINC49694485
   61    65     0     0     0
SMALL
USER_CHARGES

@<TRIPOS>ATOM
      1 C1         -0.0167    1.3786    0.0096 C.ar      1 <0>        -0.1226
      2 C2          1.1696    2.0892    0.0021 C.ar      1 <0>        -0.0970
      3 C3          2.3774    1.4195   -0.0134 C.ar      1 <0>        -0.1128
      4 C4          2.3996    0.0310   -0.0211 C.ar      1 <0>         0.1459
      5 C5          1.2065   -0.6797   -0.0130 C.ar      1 <0>        -0.1357
      6 C6          0.0021   -0.0041    0.0020 C.ar      1 <0>        -0.0894
      7 N1          3.6227   -0.6513   -0.0373 N.pl3     1 <0>        -0.3030
      8 C7          3.7638   -1.9902   -0.0512 C.2       1 <0>         0.1104
      9 C8          5.1174   -2.2722   -0.0646 C.2       1 <0>        -0.2274
     10 C9          5.8092   -0.9775   -0.0577 C.2       1 <0>         0.1744
     11 N2          4.8822   -0.0456   -0.0475 N.2       1 <0>        -0.2710
     12 C10         7.2752   -0.7618   -0.0668 C.ar      1 <0>        -0.0640
     13 C11         8.1161   -1.6479    0.6061 C.ar      1 <0>        -0.0519
     14 C12         9.4798   -1.4442    0.5957 C.ar      1 <0>        -0.1442
     15 C13        10.0160   -0.3585   -0.0837 C.ar      1 <0>         0.1480
     16 C14         9.1816    0.5258   -0.7542 C.ar      1 <0>        -0.2087
     17 C15         7.8175    0.3245   -0.7530 C.ar      1 <0>        -0.0396
     18 O1         11.3602   -0.1607   -0.0920 O.3       1 <0>        -0.3067
     19 C16        11.8443    0.9758   -0.8103 C.3       1 <0>         0.1007
     20 C17        13.3468    1.0317   -0.7086 C.ar      1 <0>        -0.0842
     21 C18        14.0284    0.0600   -0.0000 C.ar      1 <0>        -0.0848
     22 C19        15.4065    0.1110    0.0933 C.ar      1 <0>        -0.1124
     23 C20        16.1042    1.1339   -0.5220 C.ar      1 <0>        -0.1054
     24 C21        15.4239    2.1059   -1.2307 C.ar      1 <0>        -0.1086
     25 C22        14.0447    2.0521   -1.3292 C.ar      1 <0>        -0.0307
     26 Cl1        13.1900    3.2691   -2.2249 Cl        1 <0>        -0.0668
     27 C23         5.7385   -3.6007   -0.0818 C.2       1 <0>         0.1241
     28 C24         4.9602   -4.7145   -0.0864 C.2       1 <0>        -0.2467
     29 C25         5.3531   -6.1350   -0.0967 C.2       1 <0>         0.5415
     30 O2          6.5223   -6.4745   -0.1026 O.2       1 <0>        -0.4463
     31 N3          4.3728   -7.0226   -0.0987 N.am      1 <0>        -0.5104
     32 C26         3.0788   -6.6424   -0.0921 C.2       1 <0>         0.2866
     33 S1          1.6801   -7.6296   -0.0934 S.2       1 <0>        -0.3255
     34 S2          3.1785   -4.8597   -0.0736 S.3       1 <0>         0.0135
     35 C27         4.6997   -8.4506   -0.1088 C.3       1 <0>         0.1096
     36 C28         4.8186   -8.9568    1.3302 C.3       1 <0>        -0.6917
     37 S3          5.2234  -10.7250    1.3177 S.o2      1 <0>         2.6427
     38 O3          5.3927  -11.2169    2.6761 O.2       1 <0>        -1.0556
     39 O4          4.1836  -11.4793    0.6351 O.2       1 <0>        -1.0483
     40 O5          6.4776  -10.8190    0.5868 O.3       1 <0>        -1.0599
     41 H1         -0.9598    1.9047    0.0260 H         1 <0>         0.1312
     42 H2          1.1517    3.1691    0.0080 H         1 <0>         0.1338
     43 H3          3.3035    1.9750   -0.0200 H         1 <0>         0.1394
     44 H4          1.2205   -1.7596   -0.0193 H         1 <0>         0.1331
     45 H5         -0.9261   -0.5562    0.0079 H         1 <0>         0.1378
     46 H6          2.9628   -2.7146   -0.0515 H         1 <0>         0.1888
     47 H7          7.6996   -2.4924    1.1350 H         1 <0>         0.1388
     48 H8         10.1315   -2.1298    1.1168 H         1 <0>         0.1419
     49 H9          9.6018    1.3697   -1.2811 H         1 <0>         0.1340
     50 H10         7.1694    1.0098   -1.2791 H         1 <0>         0.1325
     51 H11        11.5538    0.8944   -1.8577 H         1 <0>         0.0837
     52 H12        11.4173    1.8837   -0.3843 H         1 <0>         0.0832
     53 H13        13.4839   -0.7391    0.4811 H         1 <0>         0.1437
     54 H14        15.9385   -0.6482    0.6474 H         1 <0>         0.1332
     55 H15        17.1809    1.1735   -0.4484 H         1 <0>         0.1341
     56 H16        15.9690    2.9051   -1.7110 H         1 <0>         0.1364
     57 H17         6.8145   -3.6937   -0.0909 H         1 <0>         0.1669
     58 H18         3.9114   -9.0002   -0.6232 H         1 <0>         0.1218
     59 H19         5.6465   -8.6030   -0.6270 H         1 <0>         0.1195
     60 H20         5.6070   -8.4072    1.8446 H         1 <0>         0.1104
     61 H21         3.8719   -8.8044    1.8484 H         1 <0>         0.1098
@<TRIPOS>BOND
     1    1    6 ar
     2    1    2 ar
     3    1   41 1
     4    2    3 ar
     5    2   42 1
     6    3    4 ar
     7    3   43 1
     8    4    5 ar
     9    4    7 1
    10    5    6 ar
    11    5   44 1
    12    6   45 1
    13    7   11 1
    14    7    8 1
    15    8    9 2
    16    8   46 1
    17    9   10 1
    18    9   27 1
    19   10   11 2
    20   10   12 1
    21   12   17 ar
    22   12   13 ar
    23   13   14 ar
    24   13   47 1
    25   14   15 ar
    26   14   48 1
    27   15   16 ar
    28   15   18 1
    29   16   17 ar
    30   16   49 1
    31   17   50 1
    32   18   19 1
    33   19   20 1
    34   19   51 1
    35   19   52 1
    36   20   25 ar
    37   20   21 ar
    38   21   22 ar
    39   21   53 1
    40   22   23 ar
    41   22   54 1
    42   23   24 ar
    43   23   55 1
    44   24   25 ar
    45   24   56 1
    46   25   26 1
    47   27   28 2
    48   27   57 1
    49   28   34 1
    50   28   29 1
    51   29   30 2
    52   29   31 am
    53   31   32 1
    54   31   35 1
    55   32   33 2
    56   32   34 1
    57   35   36 1
    58   35   58 1
    59   35   59 1
    60   36   37 1
    61   36   60 1
    62   36   61 1
    63   37   38 2
    64   37   39 2
    65   37   40 1
@<TRIPOS>MOLECULE
ZINC04213833
   61    64     0     0     0
SMALL
USER_CHARGES

@<TRIPOS>ATOM
      1 C1         -0.0390    1.5017   -0.0190 C.3       1 <0>        -0.1185
      2 C2         -0.0056   -0.0049   -0.0121 C.ar      1 <0>         0.0085
      3 C3          0.0606   -0.7148   -1.2110 C.ar      1 <0>        -0.1144
      4 C4          0.0900   -2.1179   -1.1529 C.ar      1 <0>         0.2740
      5 C5          0.0521   -2.7470    0.1012 C.ar      1 <0>         0.0969
      6 N1         -0.0105   -2.0327    1.2125 N.ar      1 <0>        -0.3689
      7 C6         -0.0345   -0.7054    1.1929 C.ar      1 <0>         0.0060
      8 C7         -0.0989    0.0404    2.4671 C.2       1 <0>         0.5335
      9 O1         -0.0220    1.2527    2.4658 O.2       1 <0>        -0.5075
     10 O2         -0.2428   -0.6242    3.6301 O.3       1 <0>        -0.3310
     11 C8         -0.2976    0.1604    4.8232 C.3       1 <0>         0.0332
     12 C9          0.0819   -4.2261    0.1809 C.ar      1 <0>         0.1480
     13 C10         0.6167   -4.8442    1.3168 C.ar      1 <0>        -0.1068
     14 C11         0.6443   -6.2219    1.3950 C.ar      1 <0>        -0.0550
     15 C12         0.1295   -6.9592    0.3196 C.ar      1 <0>        -0.0395
     16 C13        -0.3897   -6.2645   -0.7924 C.ar      1 <0>         0.0449
     17 N2         -0.4032   -4.9432   -0.8221 N.ar      1 <0>        -0.4421
     18 C14        -0.9227   -7.0608   -1.9268 C.2       1 <0>         0.4198
     19 O3         -1.7289   -6.6082   -2.7139 O.2       1 <0>        -0.4235
     20 C15        -0.3968   -8.4641   -2.0352 C.2       1 <0>         0.2305
     21 N3         -0.1959   -9.0365   -3.1904 N.2       1 <0>        -0.6538
     22 C16        -0.1194   -9.1593   -0.7628 C.2       1 <0>        -0.1456
     23 C17         0.1309   -8.4265    0.3515 C.2       1 <0>         0.2164
     24 O4          0.3879   -9.0648    1.5220 O.3       1 <0>        -0.6947
     25 O5         -0.1147  -10.5186   -0.7081 O.3       1 <0>        -0.3174
     26 C18         0.1624  -11.1159    0.5602 C.3       1 <0>         0.0720
     27 N4          0.1552   -2.8697   -2.3160 N.pl3     1 <0>        -0.8219
     28 C19         0.0982   -0.0070   -2.5125 C.ar      1 <0>        -0.0890
     29 C20         1.3215    0.3496   -3.0791 C.ar      1 <0>        -0.0493
     30 C21         1.3558    1.0088   -4.2901 C.ar      1 <0>        -0.2058
     31 C22         0.1748    1.3197   -4.9502 C.ar      1 <0>         0.1305
     32 C23        -1.0499    0.9685   -4.3937 C.ar      1 <0>         0.0352
     33 C24        -1.0923    0.2999   -3.1781 C.ar      1 <0>         0.1515
     34 O6         -2.2877   -0.0504   -2.6338 O.3       1 <0>        -0.4767
     35 O7         -2.2060    1.2755   -5.0429 O.3       1 <0>        -0.3188
     36 C25        -2.7127    0.3039   -5.9601 C.3       1 <0>         0.0368
     37 O8          0.2159    1.9696   -6.1437 O.3       1 <0>        -0.3039
     38 C26         1.5074    2.3010   -6.6578 C.3       1 <0>         0.0234
     39 H1          0.9676    1.8882    0.1407 H         1 <0>         0.0827
     40 H2         -0.4146    1.8524   -0.9803 H         1 <0>         0.0599
     41 H3         -0.6942    1.8543    0.7776 H         1 <0>         0.0984
     42 H4         -0.4147   -0.4966    5.6850 H         1 <0>         0.1019
     43 H5          0.6249    0.7321    4.9248 H         1 <0>         0.0592
     44 H6         -1.1448    0.8441    4.7698 H         1 <0>         0.0588
     45 H7          1.0062   -4.2464    2.1276 H         1 <0>         0.1465
     46 H8          1.0523   -6.7193    2.2625 H         1 <0>         0.1542
     47 H9         -0.3871   -8.5546   -4.0102 H         1 <0>         0.3254
     48 H10         0.1353  -12.2013    0.4644 H         1 <0>         0.0400
     49 H11         1.1506  -10.8056    0.8998 H         1 <0>         0.0513
     50 H12        -0.5874  -10.7962    1.2839 H         1 <0>         0.0510
     51 H13         0.2476   -2.4278   -3.1746 H         1 <0>         0.3962
     52 H14         0.1083   -3.8375   -2.2713 H         1 <0>         0.4206
     53 H15         2.2427    0.1097   -2.5690 H         1 <0>         0.1362
     54 H16         2.3047    1.2843   -4.7261 H         1 <0>         0.1389
     55 H17        -2.6691    0.6239   -2.0551 H         1 <0>         0.3956
     56 H18        -3.6357    0.6730   -6.4073 H         1 <0>         0.0932
     57 H19        -1.9760    0.1244   -6.7431 H         1 <0>         0.0445
     58 H20        -2.9131   -0.6269   -5.4294 H         1 <0>         0.0503
     59 H21         2.0234    2.9518   -5.9520 H         1 <0>         0.0584
     60 H22         2.0865    1.3887   -6.8010 H         1 <0>         0.0576
     61 H23         1.3974    2.8152   -7.6126 H         1 <0>         0.1022
@<TRIPOS>BOND
     1    1    2 1
     2    1   39 1
     3    1   40 1
     4    1   41 1
     5    2    7 ar
     6    2    3 ar
     7    3    4 ar
     8    3   28 1
     9    4    5 ar
    10    4   27 1
    11    5    6 ar
    12    5   12 1
    13    6    7 ar
    14    7    8 1
    15    8    9 2
    16    8   10 1
    17   10   11 1
    18   11   42 1
    19   11   43 1
    20   11   44 1
    21   12   17 ar
    22   12   13 ar
    23   13   14 ar
    24   13   45 1
    25   14   15 ar
    26   14   46 1
    27   15   23 1
    28   15   16 ar
    29   16   17 ar
    30   16   18 1
    31   18   19 2
    32   18   20 1
    33   20   21 2
    34   20   22 1
    35   21   47 1
    36   22   23 2
    37   22   25 1
    38   23   24 1
    39   25   26 1
    40   26   48 1
    41   26   49 1
    42   26   50 1
    43   27   51 1
    44   27   52 1
    45   28   33 ar
    46   28   29 ar
    47   29   30 ar
    48   29   53 1
    49   30   31 ar
    50   30   54 1
    51   31   32 ar
    52   31   37 1
    53   32   33 ar
    54   32   35 1
    55   33   34 1
    56   34   55 1
    57   35   36 1
    58   36   56 1
    59   36   57 1
    60   36   58 1
    61   37   38 1
    62   38   59 1
    63   38   60 1
    64   38   61 1
@<TRIPOS>MOLECULE
ZINC45262037
   80    85     0     0     0
SMALL
USER_CHARGES

@<TRIPOS>ATOM
      1 C1         -0.3015    1.5044    0.6245 C.3       1 <0>        -0.1517
      2 C2         -0.2305   -0.0266    0.5027 C.3       1 <0>        -0.0256
      3 C3          0.0195   -0.3895   -0.9573 C.3       1 <0>        -0.1118
      4 C4          1.4317    0.0417   -1.3775 C.3       1 <0>        -0.1137
      5 C5          2.4362   -0.7287   -0.5196 C.3       1 <0>        -0.0553
      6 H1          2.1449   -1.8037   -0.5776 H         1 <0>         0.0673
      7 C6          2.2919   -0.3203    0.9432 C.3       1 <0>        -0.0318
      8 C7          0.8591   -0.5640    1.4146 C.3       1 <0>        -0.0554
      9 H2          0.7477   -1.6684    1.4711 H         1 <0>         0.0605
     10 C8          0.6551   -0.0344    2.8339 C.3       1 <0>        -0.0725
     11 C9         -0.7780   -0.1865    3.2479 C.2       1 <0>        -0.1733
     12 C10        -1.7718   -0.4217    2.4314 C.2       1 <0>        -0.0498
     13 C11        -1.5894   -0.5846    0.9528 C.3       1 <0>         0.0086
     14 C12        -2.7241    0.0434    0.1547 C.3       1 <0>        -0.0987
     15 C13        -4.0890   -0.2534    0.7748 C.3       1 <0>        -0.0851
     16 C14        -4.1489    0.2458    2.2144 C.3       1 <0>        -0.1134
     17 C15        -3.1467   -0.5270    3.0670 C.3       1 <0>        -0.0160
     18 H3         -3.0998   -0.0642    4.0643 H         1 <0>         0.0695
     19 C16        -3.5492   -1.9890    3.2013 C.3       1 <0>        -0.0992
     20 C17        -4.9559   -2.1271    3.7843 C.3       1 <0>        -0.0624
     21 C18        -5.9522   -1.3709    2.9083 C.3       1 <0>        -0.1013
     22 C19        -5.5613    0.0948    2.7756 C.3       1 <0>        -0.0917
     23 C20        -5.3381   -3.6147    3.7967 C.3       1 <0>        -0.1397
     24 C21        -4.9930   -1.5996    5.2169 C.3       1 <0>        -0.1397
     25 C22        -3.7949    1.7156    2.2553 C.2       1 <0>         0.5069
     26 O1         -4.4680    2.5222    1.6367 O.co2     1 <0>        -0.7087
     27 O2         -2.8364    2.0938    2.9070 O.co2     1 <0>        -0.6829
     28 C23        -1.5962   -2.0894    0.6484 C.3       1 <0>        -0.1511
     29 C24         3.1911   -1.2527    1.7952 C.3       1 <0>        -0.0393
     30 C25         4.5988   -1.1022    1.2805 C.2       1 <0>        -0.2293
     31 C26         5.7972   -1.2218    1.9757 C.2       1 <0>         0.0568
     32 N1          6.7763   -1.0030    1.1322 N.2       1 <0>        -0.3050
     33 N2          6.2203   -0.7344   -0.1285 N.pl3     1 <0>        -0.4710
     34 H4          6.7179   -0.5338   -0.9356 H         1 <0>         0.4323
     35 C27         4.8832   -0.8055   -0.0129 C.2       1 <0>         0.1064
     36 C28         3.8438   -0.6108   -1.0860 C.3       1 <0>         0.0149
     37 C29         4.0460   -1.7265   -2.1331 C.3       1 <0>        -0.1443
     38 C30         4.0774    0.7312   -1.7821 C.3       1 <0>        -0.1469
     39 C31         2.7517    1.1142    1.1770 C.3       1 <0>        -0.1460
     40 H5          0.6356    1.9402    0.2780 H         1 <0>         0.0459
     41 H6         -1.1239    1.8796    0.0154 H         1 <0>         0.0517
     42 H7         -0.4665    1.7787    1.6664 H         1 <0>         0.0786
     43 H8         -0.0481   -1.4609   -1.1319 H         1 <0>         0.0619
     44 H9         -0.7048    0.1223   -1.5965 H         1 <0>         0.0619
     45 H10         1.5632   -0.2238   -2.4300 H         1 <0>         0.0558
     46 H11         1.5349    1.1122   -1.2581 H         1 <0>         0.0710
     47 H12         1.2781   -0.6174    3.5236 H         1 <0>         0.0539
     48 H13         0.9343    1.0107    2.9265 H         1 <0>         0.0725
     49 H14        -1.0125   -0.0993    4.3007 H         1 <0>         0.0904
     50 H15        -2.6171    1.1114    0.0167 H         1 <0>         0.0734
     51 H16        -2.7157   -0.4042   -0.8574 H         1 <0>         0.0381
     52 H17        -4.8622    0.2562    0.1891 H         1 <0>         0.0520
     53 H18        -4.2866   -1.3242    0.7444 H         1 <0>         0.0440
     54 H19        -3.5485   -2.4746    2.2227 H         1 <0>         0.0609
     55 H20        -2.8391   -2.5073    3.8498 H         1 <0>         0.0495
     56 H21        -5.9843   -1.8324    1.9179 H         1 <0>         0.0546
     57 H22        -6.9493   -1.4428    3.3535 H         1 <0>         0.0479
     58 H23        -5.6194    0.5921    3.7447 H         1 <0>         0.0506
     59 H24        -6.2632    0.5939    2.0972 H         1 <0>         0.0569
     60 H25        -4.6265   -4.1675    4.4100 H         1 <0>         0.0492
     61 H26        -6.3400   -3.7290    4.2104 H         1 <0>         0.0484
     62 H27        -5.3189   -4.0033    2.7785 H         1 <0>         0.0495
     63 H28        -4.7077   -0.5476    5.2242 H         1 <0>         0.0624
     64 H29        -6.0014   -1.7053    5.6170 H         1 <0>         0.0463
     65 H30        -4.2965   -2.1693    5.8320 H         1 <0>         0.0479
     66 H31        -0.8566   -2.5898    1.2735 H         1 <0>         0.0504
     67 H32        -2.5848   -2.4979    0.8574 H         1 <0>         0.0569
     68 H33        -1.3518   -2.2487   -0.4019 H         1 <0>         0.0531
     69 H34         3.1430   -0.9440    2.8344 H         1 <0>         0.0745
     70 H35         2.8579   -2.2786    1.6786 H         1 <0>         0.0667
     71 H36         5.9046   -1.4516    3.0261 H         1 <0>         0.1799
     72 H37         3.3131   -1.6123   -2.9318 H         1 <0>         0.0664
     73 H38         5.0509   -1.6563   -2.5493 H         1 <0>         0.0497
     74 H39         3.9167   -2.6987   -1.6576 H         1 <0>         0.0590
     75 H40         3.9316    1.5413   -1.0676 H         1 <0>         0.0666
     76 H41         5.0956    0.7672   -2.1694 H         1 <0>         0.0470
     77 H42         3.3714    0.8413   -2.6053 H         1 <0>         0.0706
     78 H43         2.2440    1.7772    0.4765 H         1 <0>         0.0615
     79 H44         2.5110    1.4111    2.1978 H         1 <0>         0.0604
     80 H45         3.8289    1.1800    1.0239 H         1 <0>         0.0512
@<TRIPOS>BOND
     1    1    2 1
     2    1   40 1
     3    1   41 1
     4    1   42 1
     5    2    8 1
     6    2   13 1
     7    2    3 1
     8    3    4 1
     9    3   43 1
    10    3   44 1
    11    4    5 1
    12    4   45 1
    13    4   46 1
    14    5    6 1
    15    5   36 1
    16    5    7 1
    17    7    8 1
    18    7   29 1
    19    7   39 1
    20    8    9 1
    21    8   10 1
    22   10   11 1
    23   10   47 1
    24   10   48 1
    25   11   12 2
    26   11   49 1
    27   12   17 1
    28   12   13 1
    29   13   14 1
    30   13   28 1
    31   14   15 1
    32   14   50 1
    33   14   51 1
    34   15   16 1
    35   15   52 1
    36   15   53 1
    37   16   22 1
    38   16   17 1
    39   16   25 1
    40   17   18 1
    41   17   19 1
    42   19   20 1
    43   19   54 1
    44   19   55 1
    45   20   21 1
    46   20   23 1
    47   20   24 1
    48   21   22 1
    49   21   56 1
    50   21   57 1
    51   22   58 1
    52   22   59 1
    53   23   60 1
    54   23   61 1
    55   23   62 1
    56   24   63 1
    57   24   64 1
    58   24   65 1
    59   25   26 2
    60   25   27 1
    61   28   66 1
    62   28   67 1
    63   28   68 1
    64   29   30 1
    65   29   69 1
    66   29   70 1
    67   30   35 2
    68   30   31 1
    69   31   32 2
    70   31   71 1
    71   32   33 1
    72   33   34 1
    73   33   35 1
    74   35   36 1
    75   36   37 1
    76   36   38 1
    77   37   72 1
    78   37   73 1
    79   37   74 1
    80   38   75 1
    81   38   76 1
    82   38   77 1
    83   39   78 1
    84   39   79 1
    85   39   80 1
@<TRIPOS>MOLECULE
ZINC45262037
   81    86     0     0     0
SMALL
USER_CHARGES

@<TRIPOS>ATOM
      1 C1         -0.2673    1.5034    0.6259 C.3       1 <0>        -0.1538
      2 C2         -0.2018   -0.0280    0.5046 C.3       1 <0>        -0.0270
      3 C3          0.0469   -0.3906   -0.9552 C.3       1 <0>        -0.1146
      4 C4          1.4643    0.0223   -1.3744 C.3       1 <0>        -0.1145
      5 C5          2.4616   -0.7496   -0.5103 C.3       1 <0>        -0.0668
      6 H1          2.1654   -1.8225   -0.5629 H         1 <0>         0.0842
      7 C6          2.3188   -0.3337    0.9508 C.3       1 <0>        -0.0353
      8 C7          0.8836   -0.5685    1.4201 C.3       1 <0>        -0.0571
      9 H2          0.7672   -1.6724    1.4802 H         1 <0>         0.0674
     10 C8          0.6760   -0.0340    2.8368 C.3       1 <0>        -0.0700
     11 C9         -0.7606   -0.1679    3.2451 C.2       1 <0>        -0.1844
     12 C10        -1.7544   -0.4017    2.4273 C.2       1 <0>        -0.0398
     13 C11        -1.5646   -0.5802    0.9520 C.3       1 <0>         0.0073
     14 C12        -2.6910    0.0415    0.1388 C.3       1 <0>        -0.0997
     15 C13        -4.0609   -0.2418    0.7546 C.3       1 <0>        -0.0873
     16 C14        -4.1279    0.2764    2.1870 C.3       1 <0>        -0.1134
     17 C15        -3.1342   -0.4878    3.0562 C.3       1 <0>        -0.0176
     18 H3         -3.0893   -0.0096    4.0468 H         1 <0>         0.0715
     19 C16        -3.5444   -1.9456    3.2140 C.3       1 <0>        -0.0976
     20 C17        -4.9574   -2.0691    3.7844 C.3       1 <0>        -0.0621
     21 C18        -5.9430   -1.3245    2.8866 C.3       1 <0>        -0.1028
     22 C19        -5.5468    0.1388    2.7364 C.3       1 <0>        -0.0931
     23 C20        -5.3452   -3.5553    3.8180 C.3       1 <0>        -0.1405
     24 C21        -5.0078   -1.5175    5.2080 C.3       1 <0>        -0.1405
     25 C22        -3.7699    1.7460    2.2107 C.2       1 <0>         0.5066
     26 O1         -4.4370    2.5462    1.5775 O.co2     1 <0>        -0.7042
     27 O2         -2.8142    2.1301    2.8631 O.co2     1 <0>        -0.6865
     28 C23        -1.5710   -2.0882    0.6643 C.3       1 <0>        -0.1518
     29 C24         3.2133   -1.2679    1.8063 C.3       1 <0>        -0.0560
     30 C25         4.6222   -1.1242    1.2933 C.2       1 <0>        -0.1946
     31 C26         5.8200   -1.2418    1.9900 C.2       1 <0>         0.2040
     32 N1          6.8011   -1.0301    1.1459 N.pl3     1 <0>        -0.3864
     33 N2          6.2467   -0.7715   -0.1172 N.pl3     1 <0>        -0.4208
     34 H4          6.7459   -0.5817   -0.9271 H         1 <0>         0.4692
     35 C27         4.9094   -0.8362   -0.0017 C.2       1 <0>         0.2383
     36 C28         3.8705   -0.6430   -1.0756 C.3       1 <0>         0.0054
     37 C29         4.0679   -1.7660   -2.1157 C.3       1 <0>        -0.1535
     38 C30         4.1128    0.6927   -1.7805 C.3       1 <0>        -0.1578
     39 C31         2.7847    1.0994    1.1787 C.3       1 <0>        -0.1542
     40 H5          0.6721    1.9357    0.2813 H         1 <0>         0.0427
     41 H6         -1.0870    1.8816    0.0151 H         1 <0>         0.0573
     42 H7         -0.4334    1.7786    1.6675 H         1 <0>         0.0819
     43 H8         -0.0407   -1.4600   -1.1360 H         1 <0>         0.0663
     44 H9         -0.6682    0.1365   -1.5934 H         1 <0>         0.0699
     45 H10         1.5953   -0.2549   -2.4243 H         1 <0>         0.0636
     46 H11         1.5778    1.0919   -1.2655 H         1 <0>         0.0765
     47 H12         1.2883   -0.6228    3.5322 H         1 <0>         0.0525
     48 H13         0.9683    1.0081    2.9298 H         1 <0>         0.0732
     49 H14        -1.0002   -0.0653    4.2966 H         1 <0>         0.0942
     50 H15        -2.5779    1.1069   -0.0146 H         1 <0>         0.0745
     51 H16        -2.6791   -0.4210   -0.8665 H         1 <0>         0.0396
     52 H17        -4.8281    0.2630    0.1576 H         1 <0>         0.0550
     53 H18        -4.2630   -1.3117    0.7375 H         1 <0>         0.0455
     54 H19        -3.5326   -2.4504    2.2460 H         1 <0>         0.0600
     55 H20        -2.8437   -2.4536    3.8817 H         1 <0>         0.0488
     56 H21        -5.9661   -1.8010    1.9031 H         1 <0>         0.0551
     57 H22        -6.9446   -1.3867    3.3227 H         1 <0>         0.0504
     58 H23        -5.6163    0.6530    3.6947 H         1 <0>         0.0523
     59 H24        -6.2390    0.6267    2.0395 H         1 <0>         0.0585
     60 H25        -4.6421   -4.1001    4.4481 H         1 <0>         0.0491
     61 H26        -6.3518   -3.6590    4.2231 H         1 <0>         0.0504
     62 H27        -5.3168   -3.9612    2.8068 H         1 <0>         0.0496
     63 H28        -4.7188   -0.4665    5.2008 H         1 <0>         0.0619
     64 H29        -6.0207   -1.6131    5.5991 H         1 <0>         0.0484
     65 H30        -4.3198   -2.0791    5.8399 H         1 <0>         0.0478
     66 H31        -0.8342   -2.5821    1.2977 H         1 <0>         0.0494
     67 H32        -2.5607   -2.4938    0.8740 H         1 <0>         0.0610
     68 H33        -1.3227   -2.2592   -0.3832 H         1 <0>         0.0536
     69 H34         3.1638   -0.9602    2.8458 H         1 <0>         0.1010
     70 H35         2.8772   -2.2930    1.6876 H         1 <0>         0.0964
     71 H36         5.9273   -1.4657    3.0411 H         1 <0>         0.2400
     72 H37         3.3367   -1.6527   -2.9160 H         1 <0>         0.0898
     73 H38         5.0738   -1.7039   -2.5310 H         1 <0>         0.0574
     74 H39         3.9328   -2.7347   -1.6345 H         1 <0>         0.0700
     75 H40         3.9705    1.5086   -1.0719 H         1 <0>         0.0768
     76 H41         5.1318    0.7202   -2.1665 H         1 <0>         0.0542
     77 H42         3.4088    0.8011   -2.6056 H         1 <0>         0.0933
     78 H43         2.2796    1.7617    0.4756 H         1 <0>         0.0757
     79 H44         2.5455    1.4014    2.1983 H         1 <0>         0.0733
     80 H45         3.8621    1.1599    1.0250 H         1 <0>         0.0384
     81 H46         7.7471   -1.0475    1.3583 H         1 <0>         0.4747
@<TRIPOS>BOND
     1    1    2 1
     2    1   40 1
     3    1   41 1
     4    1   42 1
     5    2    8 1
     6    2   13 1
     7    2    3 1
     8    3    4 1
     9    3   43 1
    10    3   44 1
    11    4    5 1
    12    4   45 1
    13    4   46 1
    14    5    6 1
    15    5   36 1
    16    5    7 1
    17    7    8 1
    18    7   29 1
    19    7   39 1
    20    8    9 1
    21    8   10 1
    22   10   11 1
    23   10   47 1
    24   10   48 1
    25   11   12 2
    26   11   49 1
    27   12   17 1
    28   12   13 1
    29   13   14 1
    30   13   28 1
    31   14   15 1
    32   14   50 1
    33   14   51 1
    34   15   16 1
    35   15   52 1
    36   15   53 1
    37   16   22 1
    38   16   17 1
    39   16   25 1
    40   17   18 1
    41   17   19 1
    42   19   20 1
    43   19   54 1
    44   19   55 1
    45   20   21 1
    46   20   23 1
    47   20   24 1
    48   21   22 1
    49   21   56 1
    50   21   57 1
    51   22   58 1
    52   22   59 1
    53   23   60 1
    54   23   61 1
    55   23   62 1
    56   24   63 1
    57   24   64 1
    58   24   65 1
    59   25   26 2
    60   25   27 1
    61   28   66 1
    62   28   67 1
    63   28   68 1
    64   29   30 1
    65   29   69 1
    66   29   70 1
    67   30   35 2
    68   30   31 1
    69   31   32 2
    70   31   71 1
    71   32   33 1
    72   32   81 1
    73   33   34 1
    74   33   35 1
    75   35   36 1
    76   36   37 1
    77   36   38 1
    78   37   72 1
    79   37   73 1
    80   37   74 1
    81   38   75 1
    82   38   76 1
    83   38   77 1
    84   39   78 1
    85   39   79 1
    86   39   80 1
@<TRIPOS>MOLECULE
ZINC35570622
   79    84     0     0     0
SMALL
USER_CHARGES

@<TRIPOS>ATOM
      1 C1         -0.2789    1.5058    0.6247 C.3       1 <0>        -0.1526
      2 C2         -0.2120   -0.0264    0.5032 C.3       1 <0>        -0.0261
      3 C3          0.0344   -0.3887   -0.9564 C.3       1 <0>        -0.1118
      4 C4          1.4510    0.0209   -1.3801 C.3       1 <0>        -0.1121
      5 C5          2.4523   -0.7471   -0.5170 C.3       1 <0>        -0.0603
      6 H1          2.1612   -1.8215   -0.5684 H         1 <0>         0.0716
      7 C6          2.3106   -0.3300    0.9436 C.3       1 <0>        -0.0339
      8 C7          0.8766   -0.5643    1.4171 C.3       1 <0>        -0.0552
      9 H2          0.7579   -1.6671    1.4836 H         1 <0>         0.0623
     10 C8          0.6739   -0.0203    2.8313 C.3       1 <0>        -0.0726
     11 C9         -0.7594   -0.1643    3.2483 C.2       1 <0>        -0.1746
     12 C10        -1.7552   -0.4029    2.4349 C.2       1 <0>        -0.0484
     13 C11        -1.5723   -0.5787    0.9578 C.3       1 <0>         0.0084
     14 C12        -2.7047    0.0455    0.1547 C.3       1 <0>        -0.0987
     15 C13        -4.0706   -0.2409    0.7779 C.3       1 <0>        -0.0854
     16 C14        -4.1310    0.2705    2.2126 C.3       1 <0>        -0.1130
     17 C15        -3.1304   -0.4974    3.0709 C.3       1 <0>        -0.0158
     18 H3         -3.0805   -0.0270    4.0658 H         1 <0>         0.0696
     19 C16        -3.5375   -1.9573    3.2196 C.3       1 <0>        -0.0990
     20 C17        -4.9456   -2.0868    3.8013 C.3       1 <0>        -0.0624
     21 C18        -5.9400   -1.3361    2.9180 C.3       1 <0>        -0.1015
     22 C19        -5.5449    0.1275    2.7716 C.3       1 <0>        -0.0916
     23 C20        -4.9842   -1.5480    5.2294 C.3       1 <0>        -0.1396
     24 C21        -5.3322   -3.5740    3.8247 C.3       1 <0>        -0.1398
     25 C22        -3.7741    1.7404    2.2415 C.2       1 <0>         0.5069
     26 O1         -4.4450    2.5430    1.6153 O.co2     1 <0>        -0.7080
     27 O2         -2.8155    2.1223    2.8910 O.co2     1 <0>        -0.6832
     28 C23        -1.5807   -2.0861    0.6661 C.3       1 <0>        -0.1512
     29 C24         3.2085   -1.2611    1.7982 C.3       1 <0>        -0.0459
     30 C25         4.6157   -1.1248    1.2785 C.2       1 <0>        -0.2504
     31 C26         5.8216   -1.2574    1.9761 C.2       1 <0>         0.0875
     32 N1          6.7970   -1.0492    1.1336 N.2       1 <0>        -0.3322
     33 O3          6.2289   -0.7754   -0.1355 O.3       1 <0>        -0.0780
     34 C27         4.8988   -0.8349   -0.0105 C.2       1 <0>         0.0890
     35 C28         3.8601   -0.6330   -1.0833 C.3       1 <0>         0.0223
     36 C29         4.0582   -1.7482   -2.1315 C.3       1 <0>        -0.1457
     37 C30         4.1042    0.7080   -1.7774 C.3       1 <0>        -0.1478
     38 C31         2.7743    1.1043    1.1703 C.3       1 <0>        -0.1493
     39 H4          0.6602    1.9390    0.2805 H         1 <0>         0.0458
     40 H5         -1.0987    1.8833    0.0136 H         1 <0>         0.0529
     41 H6         -0.4457    1.7807    1.6662 H         1 <0>         0.0794
     42 H7         -0.0595   -1.4575   -1.1412 H         1 <0>         0.0632
     43 H8         -0.6794    0.1421   -1.5935 H         1 <0>         0.0633
     44 H9          1.5806   -0.2586   -2.4297 H         1 <0>         0.0592
     45 H10         1.5657    1.0903   -1.2748 H         1 <0>         0.0726
     46 H11         1.2946   -0.6011    3.5261 H         1 <0>         0.0527
     47 H12         0.9595    1.0241    2.9146 H         1 <0>         0.0734
     48 H13        -0.9923   -0.0675    4.3020 H         1 <0>         0.0911
     49 H14        -2.5936    1.1117    0.0035 H         1 <0>         0.0737
     50 H15        -2.6989   -0.4137   -0.8519 H         1 <0>         0.0386
     51 H16        -4.8413    0.2677    0.1874 H         1 <0>         0.0524
     52 H17        -4.2724   -1.3104    0.7550 H         1 <0>         0.0442
     53 H18        -3.5335   -2.4539    2.2472 H         1 <0>         0.0610
     54 H19        -2.8312   -2.4702    3.8773 H         1 <0>         0.0491
     55 H20        -5.9751   -1.8062    1.9316 H         1 <0>         0.0549
     56 H21        -6.9364   -1.4011    3.3657 H         1 <0>         0.0481
     57 H22        -5.6101    0.6376    3.7328 H         1 <0>         0.0508
     58 H23        -6.2442    0.6186    2.0838 H         1 <0>         0.0567
     59 H24        -4.6960   -0.4968    5.2290 H         1 <0>         0.0623
     60 H25        -5.9936   -1.6479    5.6283 H         1 <0>         0.0466
     61 H26        -4.2904   -2.1147    5.8504 H         1 <0>         0.0478
     62 H27        -4.6233   -4.1240    4.4435 H         1 <0>         0.0491
     63 H28        -6.3352   -3.6822    4.2375 H         1 <0>         0.0486
     64 H29        -5.3124   -3.9705    2.8096 H         1 <0>         0.0496
     65 H30        -0.8415   -2.5820    1.2952 H         1 <0>         0.0502
     66 H31        -2.5697   -2.4918    0.8787 H         1 <0>         0.0575
     67 H32        -1.3367   -2.2545   -0.3829 H         1 <0>         0.0536
     68 H33         3.1658   -0.9472    2.8364 H         1 <0>         0.0806
     69 H34         2.8698   -2.2862    1.6884 H         1 <0>         0.0741
     70 H35         5.9308   -1.4893    3.0256 H         1 <0>         0.1956
     71 H36         3.3254   -1.6307   -2.9299 H         1 <0>         0.0710
     72 H37         5.0632   -1.6810   -2.5480 H         1 <0>         0.0615
     73 H38         3.9258   -2.7205   -1.6570 H         1 <0>         0.0588
     74 H39         3.9631    1.5183   -1.0622 H         1 <0>         0.0661
     75 H40         5.1232    0.7373   -2.1632 H         1 <0>         0.0601
     76 H41         3.4002    0.8240   -2.6015 H         1 <0>         0.0737
     77 H42         2.2675    1.7654    0.4673 H         1 <0>         0.0666
     78 H43         2.5355    1.4065    2.1899 H         1 <0>         0.0636
     79 H44         3.8515    1.1666    1.0157 H         1 <0>         0.0486
@<TRIPOS>BOND
     1    1    2 1
     2    1   39 1
     3    1   40 1
     4    1   41 1
     5    2    8 1
     6    2   13 1
     7    2    3 1
     8    3    4 1
     9    3   42 1
    10    3   43 1
    11    4    5 1
    12    4   44 1
    13    4   45 1
    14    5    6 1
    15    5   35 1
    16    5    7 1
    17    7    8 1
    18    7   29 1
    19    7   38 1
    20    8    9 1
    21    8   10 1
    22   10   11 1
    23   10   46 1
    24   10   47 1
    25   11   12 2
    26   11   48 1
    27   12   17 1
    28   12   13 1
    29   13   14 1
    30   13   28 1
    31   14   15 1
    32   14   49 1
    33   14   50 1
    34   15   16 1
    35   15   51 1
    36   15   52 1
    37   16   22 1
    38   16   17 1
    39   16   25 1
    40   17   18 1
    41   17   19 1
    42   19   20 1
    43   19   53 1
    44   19   54 1
    45   20   21 1
    46   20   23 1
    47   20   24 1
    48   21   22 1
    49   21   55 1
    50   21   56 1
    51   22   57 1
    52   22   58 1
    53   23   59 1
    54   23   60 1
    55   23   61 1
    56   24   62 1
    57   24   63 1
    58   24   64 1
    59   25   26 2
    60   25   27 1
    61   28   65 1
    62   28   66 1
    63   28   67 1
    64   29   30 1
    65   29   68 1
    66   29   69 1
    67   30   34 2
    68   30   31 1
    69   31   32 2
    70   31   70 1
    71   32   33 1
    72   33   34 1
    73   34   35 1
    74   35   36 1
    75   35   37 1
    76   36   71 1
    77   36   72 1
    78   36   73 1
    79   37   74 1
    80   37   75 1
    81   37   76 1
    82   38   77 1
    83   38   78 1
    84   38   79 1
@<TRIPOS>MOLECULE
ZINC14955016
   26    28     0     0     0
SMALL
USER_CHARGES
3-(carboxymethyloxy)thieno[4,5-b]benzothiophene-2-carboxylic acid
@<TRIPOS>ATOM
      1 C1         -2.0968   -6.5912   -3.8179 C.ar      1 <0>        -0.1263
      2 C2         -2.0138   -5.7964   -4.9528 C.ar      1 <0>        -0.1123
      3 C3         -1.8510   -4.4318   -4.8176 C.ar      1 <0>        -0.0735
      4 C4         -1.7731   -3.8776   -3.5554 C.ar      1 <0>        -0.1210
      5 C5         -1.8546   -4.6619   -2.3905 C.ar      1 <0>        -0.0158
      6 C6         -2.0217   -6.0556   -2.5699 C.ar      1 <0>        -0.0830
      7 C7         -1.7549   -3.9234   -1.1297 C.2       1 <0>        -0.2002
      8 C8         -1.5981   -2.5429   -1.1950 C.2       1 <0>        -0.1358
      9 S1         -1.5715   -2.2227   -2.9550 S.3       1 <0>         0.0976
     10 C9         -1.4982   -1.8470    0.0064 C.2       1 <0>         0.1104
     11 C10        -1.5701   -2.5531    1.1966 C.2       1 <0>        -0.1327
     12 S2         -1.7742   -4.2318    0.6324 S.3       1 <0>         0.1538
     13 C11        -1.5000   -2.0657    2.5224 C.2       1 <0>         0.5139
     14 O1         -1.3574   -0.8742    2.7259 O.co2     1 <0>        -0.5721
     15 O2         -1.3386   -0.4987    0.0122 O.3       1 <0>        -0.2811
     16 C12         0.0021   -0.0041    0.0020 C.3       1 <0>         0.0386
     17 C13        -0.0184    1.5028    0.0103 C.2       1 <0>         0.4803
     18 O3         -1.0728    2.0926    0.0185 O.co2     1 <0>        -0.6154
     19 H1         -2.2240   -7.6580   -3.9282 H         1 <0>         0.1217
     20 H2         -2.0758   -6.2421   -5.9346 H         1 <0>         0.1278
     21 H3         -1.7848   -3.8026   -5.6929 H         1 <0>         0.1295
     22 H4         -2.0896   -6.7009   -1.7066 H         1 <0>         0.1228
     23 H5          0.5123   -0.3556   -0.8948 H         1 <0>         0.0423
     24 H6          0.5293   -0.3651    0.8851 H         1 <0>         0.0615
     25 O4         -1.5911   -2.9219    3.5620 O.co2     1 <0>        -0.7573
     26 O5          1.1348    2.1897    0.0030 O.co2     1 <0>        -0.7740
@<TRIPOS>BOND
     1    1    6 ar
     2    1    2 ar
     3    1   19 1
     4    2    3 ar
     5    2   20 1
     6    3    4 ar
     7    3   21 1
     8    4    9 1
     9    4    5 ar
    10    5    6 ar
    11    5    7 1
    12    6   22 1
    13    7   12 1
    14    7    8 2
    15    8    9 1
    16    8   10 1
    17   10   11 2
    18   10   15 1
    19   11   12 1
    20   11   13 1
    21   13   14 2
    22   13   25 1
    23   15   16 1
    24   16   17 1
    25   16   23 1
    26   16   24 1
    27   17   18 2
    28   17   26 1
@<TRIPOS>MOLECULE
ZINC49723001
   61    65     0     0     0
SMALL
USER_CHARGES

@<TRIPOS>ATOM
      1 C1         -0.0167    1.3786    0.0096 C.ar      1 <0>        -0.1226
      2 C2          1.1696    2.0892    0.0021 C.ar      1 <0>        -0.0970
      3 C3          2.3774    1.4195   -0.0134 C.ar      1 <0>        -0.1128
      4 C4          2.3996    0.0310   -0.0211 C.ar      1 <0>         0.1458
      5 C5          1.2065   -0.6797   -0.0130 C.ar      1 <0>        -0.1356
      6 C6          0.0021   -0.0041    0.0020 C.ar      1 <0>        -0.0894
      7 N1          3.6227   -0.6513   -0.0373 N.pl3     1 <0>        -0.3030
      8 C7          3.7638   -1.9902   -0.0512 C.2       1 <0>         0.1104
      9 C8          5.1174   -2.2722   -0.0646 C.2       1 <0>        -0.2274
     10 C9          5.8092   -0.9775   -0.0577 C.2       1 <0>         0.1743
     11 N2          4.8822   -0.0456   -0.0475 N.2       1 <0>        -0.2710
     12 C10         7.2752   -0.7618   -0.0668 C.ar      1 <0>        -0.0638
     13 C11         8.1161   -1.6479    0.6061 C.ar      1 <0>        -0.0520
     14 C12         9.4798   -1.4442    0.5957 C.ar      1 <0>        -0.1439
     15 C13        10.0160   -0.3585   -0.0837 C.ar      1 <0>         0.1475
     16 C14         9.1816    0.5258   -0.7542 C.ar      1 <0>        -0.2089
     17 C15         7.8175    0.3245   -0.7530 C.ar      1 <0>        -0.0397
     18 O1         11.3602   -0.1607   -0.0920 O.3       1 <0>        -0.3059
     19 C16        11.8443    0.9758   -0.8103 C.3       1 <0>         0.1044
     20 C17        13.3468    1.0317   -0.7086 C.ar      1 <0>        -0.1275
     21 C18        14.0284    0.0601   -0.0001 C.ar      1 <0>        -0.0687
     22 C19        15.4066    0.1111    0.0933 C.ar      1 <0>        -0.1275
     23 C20        16.1049    1.1338   -0.5218 C.ar      1 <0>        -0.0888
     24 C21        15.4257    2.1058   -1.2310 C.ar      1 <0>        -0.1521
     25 C22        14.0454    2.0529   -1.3297 C.ar      1 <0>         0.1043
     26 F1         13.3806    3.0002   -2.0267 F         1 <0>        -0.1373
     27 C23         5.7385   -3.6007   -0.0818 C.2       1 <0>         0.1241
     28 C24         4.9602   -4.7145   -0.0864 C.2       1 <0>        -0.2466
     29 C25         5.3531   -6.1350   -0.0967 C.2       1 <0>         0.5415
     30 O2          6.5223   -6.4745   -0.1026 O.2       1 <0>        -0.4462
     31 N3          4.3728   -7.0226   -0.0987 N.am      1 <0>        -0.5104
     32 C26         3.0788   -6.6424   -0.0921 C.2       1 <0>         0.2866
     33 S1          1.6801   -7.6296   -0.0934 S.2       1 <0>        -0.3254
     34 S2          3.1785   -4.8597   -0.0736 S.3       1 <0>         0.0136
     35 C27         4.6997   -8.4506   -0.1088 C.3       1 <0>         0.1095
     36 C28         4.8186   -8.9568    1.3302 C.3       1 <0>        -0.6916
     37 S3          5.2234  -10.7250    1.3177 S.o2      1 <0>         2.6427
     38 O3          5.3672  -11.2228    2.6769 O.2       1 <0>        -1.0556
     39 O4          4.1965  -11.4762    0.6125 O.2       1 <0>        -1.0484
     40 O5          6.4910  -10.8161    0.6100 O.3       1 <0>        -1.0599
     41 H1         -0.9598    1.9047    0.0260 H         1 <0>         0.1312
     42 H2          1.1517    3.1691    0.0080 H         1 <0>         0.1339
     43 H3          3.3035    1.9750   -0.0200 H         1 <0>         0.1394
     44 H4          1.2205   -1.7596   -0.0193 H         1 <0>         0.1331
     45 H5         -0.9261   -0.5562    0.0079 H         1 <0>         0.1378
     46 H6          2.9628   -2.7146   -0.0515 H         1 <0>         0.1888
     47 H7          7.6996   -2.4924    1.1350 H         1 <0>         0.1389
     48 H8         10.1315   -2.1298    1.1168 H         1 <0>         0.1421
     49 H9          9.6018    1.3697   -1.2811 H         1 <0>         0.1340
     50 H10         7.1694    1.0098   -1.2791 H         1 <0>         0.1326
     51 H11        11.5538    0.8944   -1.8577 H         1 <0>         0.0820
     52 H12        11.4173    1.8837   -0.3843 H         1 <0>         0.0814
     53 H13        13.4840   -0.7389    0.4810 H         1 <0>         0.1441
     54 H14        15.9383   -0.6483    0.6474 H         1 <0>         0.1337
     55 H15        17.1816    1.1730   -0.4475 H         1 <0>         0.1347
     56 H16        15.9713    2.9047   -1.7111 H         1 <0>         0.1384
     57 H17         6.8145   -3.6937   -0.0909 H         1 <0>         0.1669
     58 H18         3.9114   -9.0002   -0.6232 H         1 <0>         0.1221
     59 H19         5.6465   -8.6030   -0.6270 H         1 <0>         0.1191
     60 H20         5.6070   -8.4072    1.8446 H         1 <0>         0.1105
     61 H21         3.8719   -8.8044    1.8484 H         1 <0>         0.1098
@<TRIPOS>BOND
     1    1    6 ar
     2    1    2 ar
     3    1   41 1
     4    2    3 ar
     5    2   42 1
     6    3    4 ar
     7    3   43 1
     8    4    5 ar
     9    4    7 1
    10    5    6 ar
    11    5   44 1
    12    6   45 1
    13    7   11 1
    14    7    8 1
    15    8    9 2
    16    8   46 1
    17    9   10 1
    18    9   27 1
    19   10   11 2
    20   10   12 1
    21   12   17 ar
    22   12   13 ar
    23   13   14 ar
    24   13   47 1
    25   14   15 ar
    26   14   48 1
    27   15   16 ar
    28   15   18 1
    29   16   17 ar
    30   16   49 1
    31   17   50 1
    32   18   19 1
    33   19   20 1
    34   19   51 1
    35   19   52 1
    36   20   25 ar
    37   20   21 ar
    38   21   22 ar
    39   21   53 1
    40   22   23 ar
    41   22   54 1
    42   23   24 ar
    43   23   55 1
    44   24   25 ar
    45   24   56 1
    46   25   26 1
    47   27   28 2
    48   27   57 1
    49   28   34 1
    50   28   29 1
    51   29   30 2
    52   29   31 am
    53   31   32 1
    54   31   35 1
    55   32   33 2
    56   32   34 1
    57   35   36 1
    58   35   58 1
    59   35   59 1
    60   36   37 1
    61   36   60 1
    62   36   61 1
    63   37   38 2
    64   37   39 2
    65   37   40 1
@<TRIPOS>MOLECULE
ZINC45339167
   60    61     0     0     0
SMALL
USER_CHARGES

@<TRIPOS>ATOM
      1 C1         -0.0187    1.5258    0.0104 C.3       1 <0>        -0.1450
      2 C2          0.0021   -0.0041    0.0020 C.3       1 <0>        -0.0506
      3 C3         -1.4117   -0.5257    0.0127 C.2       1 <0>         0.0709
      4 C4         -2.1216   -0.6760   -1.1347 C.2       1 <0>        -0.2394
      5 S1         -3.6621   -1.3065   -0.4884 S.3       1 <0>         0.0991
      6 C5         -3.2442   -1.3108    1.1419 C.2       1 <0>         0.0591
      7 N1         -2.0137   -0.8621    1.1360 N.2       1 <0>        -0.5016
      8 C6         -4.0808   -1.7337    2.3218 C.3       1 <0>         0.2401
      9 H1         -3.6229   -1.3691    3.2413 H         1 <0>         0.1248
     10 C7         -4.1662   -3.2607    2.3653 C.3       1 <0>        -0.0691
     11 C8         -4.8982   -3.6876    3.6115 C.ar      1 <0>        -0.1297
     12 C9         -4.1950   -3.9186    4.7796 C.ar      1 <0>        -0.0912
     13 C10        -4.8627   -4.3100    5.9235 C.ar      1 <0>        -0.1542
     14 C11        -6.2422   -4.4714    5.8997 C.ar      1 <0>         0.2005
     15 C12        -6.9455   -4.2384    4.7246 C.ar      1 <0>        -0.1456
     16 C13        -6.2722   -3.8419    3.5859 C.ar      1 <0>        -0.0628
     17 N2         -6.9206   -4.8675    7.0546 N.pl3     1 <0>        -1.0882
     18 S2         -8.3196   -4.1000    7.4975 S.o2      1 <0>         2.7714
     19 O1         -8.7134   -4.6497    8.7854 O.2       1 <0>        -1.0827
     20 O2         -8.0136   -2.6804    7.5832 O.2       1 <0>        -1.0707
     21 O3         -9.3022   -4.3825    6.4627 O.3       1 <0>        -1.0787
     22 N3         -5.4279   -1.1728    2.1914 N.am      1 <0>        -0.7078
     23 C14        -5.6818    0.0781    2.6242 C.2       1 <0>         0.5403
     24 O4         -4.7951    0.7394    3.1215 O.2       1 <0>        -0.5132
     25 C15        -7.0675    0.6551    2.4900 C.3       1 <0>        -0.1031
     26 H2         -7.3513    0.6778    1.4378 H         1 <0>         0.1321
     27 C16        -7.0845    2.0774    3.0535 C.3       1 <0>        -0.0919
     28 C17        -8.4561    2.7081    2.8051 C.3       1 <0>        -0.1129
     29 C18        -8.5151    4.0816    3.4767 C.3       1 <0>        -0.1443
     30 C19        -8.6796    2.8664    1.2998 C.3       1 <0>        -0.1452
     31 C20        -8.0440   -0.2002    3.2554 C.2       1 <0>         0.4513
     32 O5         -7.6548   -1.1779    3.8490 O.2       1 <0>        -0.4572
     33 O6         -9.3464    0.1243    3.2778 O.3       1 <0>        -0.3471
     34 C21       -10.2153   -0.7310    4.0231 C.3       1 <0>         0.0271
     35 H3          1.0039    1.9031    0.0027 H         1 <0>         0.0607
     36 H4         -0.5459    1.8868   -0.8726 H         1 <0>         0.0535
     37 H5         -0.5289    1.8773    0.9072 H         1 <0>         0.0585
     38 H6          0.5123   -0.3556   -0.8948 H         1 <0>         0.0775
     39 H7          0.5293   -0.3651    0.8851 H         1 <0>         0.0803
     40 H8         -1.8343   -0.4709   -2.1554 H         1 <0>         0.1927
     41 H9         -4.7034   -3.6197    1.4875 H         1 <0>         0.0783
     42 H10        -3.1604   -3.6808    2.3728 H         1 <0>         0.0910
     43 H11        -3.1225   -3.7933    4.7973 H         1 <0>         0.1170
     44 H12        -4.3129   -4.4906    6.8353 H         1 <0>         0.1194
     45 H13        -8.0180   -4.3634    4.7026 H         1 <0>         0.1461
     46 H14        -6.8188   -3.6563    2.6731 H         1 <0>         0.1112
     47 H15        -6.5723   -5.5922    7.5972 H         1 <0>         0.4037
     48 H16        -6.1371   -1.7017    1.7936 H         1 <0>         0.4042
     49 H17        -6.8877    2.0460    4.1252 H         1 <0>         0.0778
     50 H18        -6.3161    2.6729    2.5603 H         1 <0>         0.0851
     51 H19        -9.2321    2.0661    3.2221 H         1 <0>         0.0991
     52 H20        -7.7392    4.7235    3.0598 H         1 <0>         0.0520
     53 H21        -9.4923    4.5309    3.2998 H         1 <0>         0.0550
     54 H22        -8.3559    3.9688    4.5491 H         1 <0>         0.0554
     55 H23        -9.6568    3.3157    1.1229 H         1 <0>         0.0555
     56 H24        -7.9036    3.5084    0.8829 H         1 <0>         0.0514
     57 H25        -8.6376    1.8880    0.8214 H         1 <0>         0.0533
     58 H26       -11.2368   -0.3563    3.9587 H         1 <0>         0.0993
     59 H27       -10.1718   -1.7399    3.6127 H         1 <0>         0.0659
     60 H28        -9.9000   -0.7492    5.0664 H         1 <0>         0.0718
@<TRIPOS>BOND
     1    1    2 1
     2    1   35 1
     3    1   36 1
     4    1   37 1
     5    2    3 1
     6    2   38 1
     7    2   39 1
     8    3    7 1
     9    3    4 2
    10    4    5 1
    11    4   40 1
    12    5    6 1
    13    6    7 2
    14    6    8 1
    15    8    9 1
    16    8   10 1
    17    8   22 1
    18   10   11 1
    19   10   41 1
    20   10   42 1
    21   11   16 ar
    22   11   12 ar
    23   12   13 ar
    24   12   43 1
    25   13   14 ar
    26   13   44 1
    27   14   15 ar
    28   14   17 1
    29   15   16 ar
    30   15   45 1
    31   16   46 1
    32   17   18 1
    33   17   47 1
    34   18   19 2
    35   18   20 2
    36   18   21 1
    37   22   23 am
    38   22   48 1
    39   23   24 2
    40   23   25 1
    41   25   26 1
    42   25   27 1
    43   25   31 1
    44   27   28 1
    45   27   49 1
    46   27   50 1
    47   28   29 1
    48   28   30 1
    49   28   51 1
    50   29   52 1
    51   29   53 1
    52   29   54 1
    53   30   55 1
    54   30   56 1
    55   30   57 1
    56   31   32 2
    57   31   33 1
    58   33   34 1
    59   34   58 1
    60   34   59 1
    61   34   60 1
@<TRIPOS>MOLECULE
ZINC45338320
   51    55     0     0     0
SMALL
USER_CHARGES

@<TRIPOS>ATOM
      1 C1          0.0111    1.3763    0.2564 C.ar      1 <0>        -0.1014
      2 C2          1.1674    2.0882    0.0054 C.ar      1 <0>        -0.1093
      3 C3          2.3583    1.4139   -0.2579 C.ar      1 <0>        -0.0348
      4 C4          2.3787    0.0218   -0.2666 C.ar      1 <0>        -0.1123
      5 C5          1.2133   -0.6863   -0.0131 C.ar      1 <0>         0.1613
      6 C6          0.0298   -0.0052    0.2480 C.ar      1 <0>        -0.1207
      7 N1          1.2285   -2.0835   -0.0212 N.pl3     1 <0>        -0.5813
      8 C7          1.9312   -2.9210    0.9545 C.3       1 <0>         0.1215
      9 C8          1.6462   -4.3687    0.5224 C.3       1 <0>        -0.0810
     10 C9          0.7746   -4.2340   -0.7060 C.ar      1 <0>        -0.1754
     11 C10         0.5715   -2.8852   -0.9565 C.ar      1 <0>         0.2220
     12 C11        -0.2135   -2.5089   -2.0479 C.ar      1 <0>        -0.2097
     13 C12        -0.7806   -3.4699   -2.8613 C.ar      1 <0>         0.1430
     14 C13        -0.5744   -4.8140   -2.5990 C.ar      1 <0>        -0.1994
     15 C14         0.2086   -5.1923   -1.5243 C.ar      1 <0>        -0.0337
     16 F1         -1.5391   -3.0979   -3.9156 F         1 <0>        -0.1368
     17 C15         3.6014    2.1778   -0.5287 C.ar      1 <0>        -0.0352
     18 C16         4.7913    1.5045   -0.7977 C.ar      1 <0>        -0.1127
     19 C17         5.9444    2.2199   -1.0494 C.ar      1 <0>        -0.0954
     20 C18         5.9203    3.6029   -1.0349 C.ar      1 <0>        -0.1236
     21 C19         4.7420    4.2764   -0.7680 C.ar      1 <0>        -0.0893
     22 C20         3.5818    3.5710   -0.5206 C.ar      1 <0>        -0.1063
     23 C21         7.1826    4.3786   -1.3105 C.3       1 <0>         0.2055
     24 N2          7.2919    4.6388   -2.7480 N.pl3     1 <0>        -0.9880
     25 C22         7.8444    3.7604   -3.7882 C.3       1 <0>         0.0456
     26 C23         7.7715    4.3980   -5.1380 C.2       1 <0>         0.5137
     27 O1          8.1721    3.8476   -6.1418 O.2       1 <0>        -0.4617
     28 N3          7.2292    5.6246   -5.1555 N.am      1 <0>        -1.0430
     29 S1          6.8110    5.9997   -3.5872 S.o2      1 <0>         2.7547
     30 O2          5.3923    6.0539   -3.5272 O.2       1 <0>        -0.9420
     31 O3          7.6492    7.0698   -3.1730 O.2       1 <0>        -0.9477
     32 H1         -0.9097    1.9009    0.4642 H         1 <0>         0.1318
     33 H2          1.1488    3.1680    0.0127 H         1 <0>         0.1308
     34 H3          3.2992   -0.5051   -0.4704 H         1 <0>         0.1285
     35 H4         -0.8772   -0.5574    0.4449 H         1 <0>         0.1263
     36 H5          3.0022   -2.7209    0.9228 H         1 <0>         0.0727
     37 H6          1.5418   -2.7419    1.9566 H         1 <0>         0.0742
     38 H7          2.5755   -4.8817    0.2750 H         1 <0>         0.0893
     39 H8          1.1139   -4.9027    1.3096 H         1 <0>         0.0897
     40 H9         -0.3782   -1.4622   -2.2566 H         1 <0>         0.1299
     41 H10        -1.0192   -5.5645   -3.2357 H         1 <0>         0.1371
     42 H11         0.3701   -6.2400   -1.3181 H         1 <0>         0.1337
     43 H12         4.8112    0.4247   -0.8089 H         1 <0>         0.1258
     44 H13         6.8673    1.6990   -1.2576 H         1 <0>         0.1271
     45 H14         4.7289    5.3563   -0.7576 H         1 <0>         0.1267
     46 H15         2.6613    4.0979   -0.3172 H         1 <0>         0.1295
     47 H16         7.1523    5.3253   -0.7711 H         1 <0>         0.0994
     48 H17         8.0446    3.7993   -0.9795 H         1 <0>         0.1027
     49 H18         8.8859    3.5411   -3.5533 H         1 <0>         0.1355
     50 H19         7.2805    2.8277   -3.8036 H         1 <0>         0.1321
     51 H20         7.1011    6.1865   -5.9357 H         1 <0>         0.4503
@<TRIPOS>BOND
     1    1    6 ar
     2    1    2 ar
     3    1   32 1
     4    2    3 ar
     5    2   33 1
     6    3    4 ar
     7    3   17 1
     8    4    5 ar
     9    4   34 1
    10    5    6 ar
    11    5    7 1
    12    6   35 1
    13    7   11 1
    14    7    8 1
    15    8    9 1
    16    8   36 1
    17    8   37 1
    18    9   10 1
    19    9   38 1
    20    9   39 1
    21   10   15 ar
    22   10   11 ar
    23   11   12 ar
    24   12   13 ar
    25   12   40 1
    26   13   14 ar
    27   13   16 1
    28   14   15 ar
    29   14   41 1
    30   15   42 1
    31   17   22 ar
    32   17   18 ar
    33   18   19 ar
    34   18   43 1
    35   19   20 ar
    36   19   44 1
    37   20   21 ar
    38   20   23 1
    39   21   22 ar
    40   21   45 1
    41   22   46 1
    42   23   24 1
    43   23   47 1
    44   23   48 1
    45   24   29 1
    46   24   25 1
    47   25   26 1
    48   25   49 1
    49   25   50 1
    50   26   27 2
    51   26   28 am
    52   28   29 1
    53   28   51 1
    54   29   30 2
    55   29   31 2
@<TRIPOS>MOLECULE
ZINC45338320
   50    54     0     0     0
SMALL
USER_CHARGES

@<TRIPOS>ATOM
      1 C1          0.0111    1.3763    0.2564 C.ar      1 <0>        -0.1020
      2 C2          1.1674    2.0882    0.0054 C.ar      1 <0>        -0.1123
      3 C3          2.3583    1.4139   -0.2579 C.ar      1 <0>        -0.0195
      4 C4          2.3787    0.0218   -0.2666 C.ar      1 <0>        -0.1153
      5 C5          1.2133   -0.6863   -0.0131 C.ar      1 <0>         0.1576
      6 C6          0.0298   -0.0052    0.2480 C.ar      1 <0>        -0.1277
      7 N1          1.2285   -2.0835   -0.0212 N.pl3     1 <0>        -0.5787
      8 C7          1.9312   -2.9210    0.9545 C.3       1 <0>         0.1208
      9 C8          1.6462   -4.3687    0.5224 C.3       1 <0>        -0.0797
     10 C9          0.7746   -4.2340   -0.7060 C.ar      1 <0>        -0.1782
     11 C10         0.5715   -2.8852   -0.9565 C.ar      1 <0>         0.2255
     12 C11        -0.2135   -2.5089   -2.0479 C.ar      1 <0>        -0.2094
     13 C12        -0.7806   -3.4699   -2.8613 C.ar      1 <0>         0.1435
     14 C13        -0.5744   -4.8140   -2.5990 C.ar      1 <0>        -0.2028
     15 C14         0.2086   -5.1923   -1.5243 C.ar      1 <0>        -0.0344
     16 F1         -1.5391   -3.0979   -3.9156 F         1 <0>        -0.1374
     17 C15         3.6014    2.1778   -0.5287 C.ar      1 <0>        -0.0559
     18 C16         4.7913    1.5045   -0.7977 C.ar      1 <0>        -0.1109
     19 C17         5.9444    2.2199   -1.0494 C.ar      1 <0>        -0.1000
     20 C18         5.9203    3.6029   -1.0349 C.ar      1 <0>        -0.0995
     21 C19         4.7420    4.2764   -0.7680 C.ar      1 <0>        -0.0903
     22 C20         3.5818    3.5710   -0.5206 C.ar      1 <0>        -0.1041
     23 C21         7.1826    4.3786   -1.3105 C.3       1 <0>         0.2093
     24 N2          7.2919    4.6388   -2.7480 N.pl3     1 <0>        -1.0061
     25 C22         7.8434    3.7675   -3.7987 C.3       1 <0>         0.0386
     26 C23         7.7601    4.4264   -5.1376 C.2       1 <0>         0.4490
     27 O1          8.2040    3.8211   -6.2587 O.3       1 <0>        -0.6489
     28 N3          7.2430    5.5985   -5.1605 N.2       1 <0>        -0.9372
     29 S1          6.8145    5.9951   -3.6001 S.o2      1 <0>         2.6433
     30 O2          5.3955    6.0505   -3.5485 O.2       1 <0>        -1.0086
     31 O3          7.6520    7.0683   -3.1927 O.2       1 <0>        -1.0154
     32 H1         -0.9097    1.9009    0.4642 H         1 <0>         0.1293
     33 H2          1.1488    3.1680    0.0127 H         1 <0>         0.1310
     34 H3          3.2992   -0.5051   -0.4704 H         1 <0>         0.1284
     35 H4         -0.8772   -0.5574    0.4449 H         1 <0>         0.1232
     36 H5          3.0022   -2.7209    0.9228 H         1 <0>         0.0734
     37 H6          1.5418   -2.7419    1.9566 H         1 <0>         0.0733
     38 H7          2.5755   -4.8817    0.2750 H         1 <0>         0.0885
     39 H8          1.1139   -4.9027    1.3096 H         1 <0>         0.0878
     40 H9         -0.3782   -1.4622   -2.2566 H         1 <0>         0.1311
     41 H10        -1.0192   -5.5645   -3.2357 H         1 <0>         0.1355
     42 H11         0.3701   -6.2400   -1.3181 H         1 <0>         0.1320
     43 H12         4.8112    0.4247   -0.8089 H         1 <0>         0.1215
     44 H13         6.8673    1.6990   -1.2576 H         1 <0>         0.1250
     45 H14         4.7289    5.3563   -0.7576 H         1 <0>         0.1261
     46 H15         2.6613    4.0979   -0.3172 H         1 <0>         0.1254
     47 H16         7.1523    5.3253   -0.7711 H         1 <0>         0.0840
     48 H17         8.0446    3.7993   -0.9795 H         1 <0>         0.0826
     49 H18         8.8867    3.5484   -3.5714 H         1 <0>         0.0956
     50 H19         7.2801    2.8346   -3.8228 H         1 <0>         0.0929
@<TRIPOS>BOND
     1    1    6 ar
     2    1    2 ar
     3    1   32 1
     4    2    3 ar
     5    2   33 1
     6    3    4 ar
     7    3   17 1
     8    4    5 ar
     9    4   34 1
    10    5    6 ar
    11    5    7 1
    12    6   35 1
    13    7   11 1
    14    7    8 1
    15    8    9 1
    16    8   36 1
    17    8   37 1
    18    9   10 1
    19    9   38 1
    20    9   39 1
    21   10   15 ar
    22   10   11 ar
    23   11   12 ar
    24   12   13 ar
    25   12   40 1
    26   13   14 ar
    27   13   16 1
    28   14   15 ar
    29   14   41 1
    30   15   42 1
    31   17   22 ar
    32   17   18 ar
    33   18   19 ar
    34   18   43 1
    35   19   20 ar
    36   19   44 1
    37   20   21 ar
    38   20   23 1
    39   21   22 ar
    40   21   45 1
    41   22   46 1
    42   23   24 1
    43   23   47 1
    44   23   48 1
    45   24   29 1
    46   24   25 1
    47   25   26 1
    48   25   49 1
    49   25   50 1
    50   26   27 1
    51   26   28 2
    52   28   29 1
    53   29   30 2
    54   29   31 2
@<TRIPOS>MOLECULE
ZINC43201585
   33    35     0     0     0
SMALL
USER_CHARGES

@<TRIPOS>ATOM
      1 C1         -0.0173    1.4248    0.0099 C.3       1 <0>         0.0246
      2 O1          0.0021   -0.0041    0.0020 O.3       1 <0>        -0.3153
      3 C2         -1.2004   -0.6375    0.0101 C.ar      1 <0>         0.1317
      4 C3         -2.3775    0.1167    0.0196 C.ar      1 <0>        -0.1771
      5 C4         -3.5958   -0.4888    0.0273 C.ar      1 <0>        -0.0663
      6 C5         -3.6775   -1.8918    0.0258 C.ar      1 <0>        -0.0599
      7 C6         -4.9220   -2.5467    0.0331 C.ar      1 <0>        -0.1120
      8 C7         -4.9693   -3.9091    0.0311 C.ar      1 <0>         0.1059
      9 C8         -3.7886   -4.6699    0.0221 C.ar      1 <0>         0.1484
     10 C9         -2.5655   -4.0622    0.0149 C.ar      1 <0>        -0.0731
     11 C10        -2.4854   -2.6589    0.0163 C.ar      1 <0>        -0.0188
     12 C11        -1.2432   -2.0026    0.0032 C.ar      1 <0>        -0.1449
     13 N1         -3.8664   -6.0654    0.0212 N.pl3     1 <0>        -0.9415
     14 C12        -3.8147   -6.9764    1.1729 C.3       1 <0>         0.0477
     15 C13        -3.9330   -8.4040    0.7468 C.2       1 <0>         0.5167
     16 O2         -3.9145   -9.3241    1.5367 O.2       1 <0>        -0.4579
     17 N2         -4.0615   -8.5909   -0.5751 N.am      1 <0>        -1.0416
     18 S1         -4.0471   -7.0854   -1.2882 S.o2      1 <0>         2.7589
     19 O3         -5.3425   -6.8575   -1.8259 O.2       1 <0>        -0.9430
     20 O4         -2.8572   -6.9971   -2.0600 O.2       1 <0>        -0.9400
     21 O5         -6.1742   -4.5392    0.0382 O.3       1 <0>        -0.4905
     22 H1          1.0053    1.8021    0.0021 H         1 <0>         0.1031
     23 H2         -0.5445    1.7859   -0.8732 H         1 <0>         0.0576
     24 H3         -0.5275    1.7763    0.9067 H         1 <0>         0.0575
     25 H4         -2.3188    1.1951    0.0211 H         1 <0>         0.1353
     26 H5         -4.4968    0.1066    0.0350 H         1 <0>         0.1376
     27 H6         -5.8367   -1.9725    0.0407 H         1 <0>         0.1441
     28 H7         -1.6641   -4.6571    0.0084 H         1 <0>         0.1458
     29 H8         -0.3271   -2.5745   -0.0087 H         1 <0>         0.1405
     30 H9         -2.8681   -6.8374    1.6950 H         1 <0>         0.1371
     31 H10        -4.6328   -6.7383    1.8527 H         1 <0>         0.1396
     32 H11        -4.1501   -9.4428   -1.0303 H         1 <0>         0.4513
     33 H12        -6.5287   -4.7199   -0.8432 H         1 <0>         0.3985
@<TRIPOS>BOND
     1    1    2 1
     2    1   22 1
     3    1   23 1
     4    1   24 1
     5    2    3 1
     6    3   12 ar
     7    3    4 ar
     8    4    5 ar
     9    4   25 1
    10    5    6 ar
    11    5   26 1
    12    6   11 ar
    13    6    7 ar
    14    7    8 ar
    15    7   27 1
    16    8    9 ar
    17    8   21 1
    18    9   10 ar
    19    9   13 1
    20   10   11 ar
    21   10   28 1
    22   11   12 ar
    23   12   29 1
    24   13   18 1
    25   13   14 1
    26   14   15 1
    27   14   30 1
    28   14   31 1
    29   15   16 2
    30   15   17 am
    31   17   18 1
    32   17   32 1
    33   18   19 2
    34   18   20 2
    35   21   33 1
@<TRIPOS>MOLECULE
ZINC43201585
   32    34     0     0     0
SMALL
USER_CHARGES

@<TRIPOS>ATOM
      1 C1         -0.0173    1.4248    0.0099 C.3       1 <0>         0.0335
      2 O1          0.0021   -0.0041    0.0020 O.3       1 <0>        -0.3284
      3 C2          0.6259   -0.6184    1.0416 C.ar      1 <0>         0.0494
      4 C3          1.2034    0.1540    2.0536 C.ar      1 <0>        -0.1726
      5 C4          1.8341   -0.4321    3.1069 C.ar      1 <0>        -0.1060
      6 C5          1.9089   -1.8334    3.1834 C.ar      1 <0>         0.0051
      7 C6          2.5535   -2.4685    4.2598 C.ar      1 <0>        -0.2924
      8 C7          2.6095   -3.8298    4.3065 C.ar      1 <0>         0.2696
      9 C8          2.0309   -4.6090    3.2912 C.ar      1 <0>         0.0703
     10 C9          1.3981   -4.0206    2.2334 C.ar      1 <0>        -0.0586
     11 C10         1.3241   -2.6190    2.1584 C.ar      1 <0>        -0.1185
     12 C11         0.6755   -1.9826    1.0869 C.ar      1 <0>        -0.1038
     13 N1          2.1040   -6.0028    3.3639 N.pl3     1 <0>        -0.9080
     14 C12         3.0982   -6.8913    2.7465 C.3       1 <0>         0.0468
     15 C13         2.8242   -8.3251    3.0670 C.2       1 <0>         0.5218
     16 O2          3.5220   -9.2294    2.6592 O.2       1 <0>        -0.4828
     17 N2          1.7486   -8.5364    3.8399 N.am      1 <0>        -1.0466
     18 S1          1.0862   -7.0458    4.1786 S.o2      1 <0>         2.7440
     19 O3          1.2623   -6.8086    5.5685 O.2       1 <0>        -0.9284
     20 O4         -0.1789   -6.9915    3.5337 O.2       1 <0>        -0.9620
     21 O5          3.2336   -4.4408    5.3487 O.3       1 <0>        -0.6919
     22 H1          1.0053    1.8021    0.0021 H         1 <0>         0.0475
     23 H2         -0.5445    1.7859   -0.8732 H         1 <0>         0.0889
     24 H3         -0.5275    1.7763    0.9067 H         1 <0>         0.0477
     25 H4          1.1483    1.2312    1.9983 H         1 <0>         0.1138
     26 H5          2.2760    0.1773    3.8814 H         1 <0>         0.1174
     27 H6          3.0028   -1.8801    5.0462 H         1 <0>         0.1072
     28 H7          0.9570   -4.6295    1.4581 H         1 <0>         0.1168
     29 H8          0.2219   -2.5688    0.3014 H         1 <0>         0.1189
     30 H9          3.0737   -6.7567    1.6652 H         1 <0>         0.1266
     31 H10         4.0896   -6.6270    3.1143 H         1 <0>         0.1322
     32 H11         1.4201   -9.3958    4.1471 H         1 <0>         0.4426
@<TRIPOS>BOND
     1    1    2 1
     2    1   22 1
     3    1   23 1
     4    1   24 1
     5    2    3 1
     6    3   12 ar
     7    3    4 ar
     8    4    5 ar
     9    4   25 1
    10    5    6 ar
    11    5   26 1
    12    6   11 ar
    13    6    7 ar
    14    7    8 ar
    15    7   27 1
    16    8    9 ar
    17    8   21 1
    18    9   10 ar
    19    9   13 1
    20   10   11 ar
    21   10   28 1
    22   11   12 ar
    23   12   29 1
    24   13   18 1
    25   13   14 1
    26   14   15 1
    27   14   30 1
    28   14   31 1
    29   15   16 2
    30   15   17 am
    31   17   18 1
    32   17   32 1
    33   18   19 2
    34   18   20 2
@<TRIPOS>MOLECULE
ZINC43201585
   32    34     0     0     0
SMALL
USER_CHARGES

@<TRIPOS>ATOM
      1 C1         -0.0173    1.4248    0.0099 C.3       1 <0>         0.0276
      2 O1          0.0021   -0.0041    0.0020 O.3       1 <0>        -0.3185
      3 C2         -1.2004   -0.6375    0.0101 C.ar      1 <0>         0.1198
      4 C3         -2.3775    0.1167    0.0196 C.ar      1 <0>        -0.1889
      5 C4         -3.5958   -0.4888    0.0273 C.ar      1 <0>        -0.0651
      6 C5         -3.6775   -1.8918    0.0258 C.ar      1 <0>        -0.0683
      7 C6         -4.9220   -2.5467    0.0331 C.ar      1 <0>        -0.1267
      8 C7         -4.9693   -3.9091    0.0311 C.ar      1 <0>         0.1106
      9 C8         -3.7886   -4.6699    0.0221 C.ar      1 <0>         0.1867
     10 C9         -2.5655   -4.0622    0.0149 C.ar      1 <0>        -0.0983
     11 C10        -2.4854   -2.6589    0.0163 C.ar      1 <0>        -0.0142
     12 C11        -1.2432   -2.0026    0.0032 C.ar      1 <0>        -0.1411
     13 N1         -3.8664   -6.0654    0.0212 N.pl3     1 <0>        -0.9670
     14 C12        -3.8154   -6.9878    1.1674 C.3       1 <0>         0.0434
     15 C13        -3.9347   -8.4077    0.7164 C.2       1 <0>         0.4523
     16 O2         -3.9145   -9.4367    1.5888 O.3       1 <0>        -0.6429
     17 N2         -4.0577   -8.5924   -0.5455 N.2       1 <0>        -0.9302
     18 S1         -4.0476   -7.0975   -1.2809 S.o2      1 <0>         2.6433
     19 O3         -5.3445   -6.8780   -1.8186 O.2       1 <0>        -1.0088
     20 O4         -2.8587   -7.0163   -2.0549 O.2       1 <0>        -1.0071
     21 O5         -6.1742   -4.5392    0.0382 O.3       1 <0>        -0.4894
     22 H1          1.0053    1.8021    0.0021 H         1 <0>         0.0982
     23 H2         -0.5445    1.7859   -0.8732 H         1 <0>         0.0543
     24 H3         -0.5275    1.7763    0.9067 H         1 <0>         0.0542
     25 H4         -2.3188    1.1951    0.0211 H         1 <0>         0.1290
     26 H5         -4.4968    0.1066    0.0350 H         1 <0>         0.1319
     27 H6         -5.8367   -1.9725    0.0407 H         1 <0>         0.1375
     28 H7         -1.6641   -4.6571    0.0084 H         1 <0>         0.1417
     29 H8         -0.3271   -2.5745   -0.0087 H         1 <0>         0.1370
     30 H9         -2.8684   -6.8566    1.6911 H         1 <0>         0.0987
     31 H10        -4.6345   -6.7582    1.8489 H         1 <0>         0.1015
     32 H11        -6.5287   -4.7199   -0.8432 H         1 <0>         0.3987
@<TRIPOS>BOND
     1    1    2 1
     2    1   22 1
     3    1   23 1
     4    1   24 1
     5    2    3 1
     6    3   12 ar
     7    3    4 ar
     8    4    5 ar
     9    4   25 1
    10    5    6 ar
    11    5   26 1
    12    6   11 ar
    13    6    7 ar
    14    7    8 ar
    15    7   27 1
    16    8    9 ar
    17    8   21 1
    18    9   10 ar
    19    9   13 1
    20   10   11 ar
    21   10   28 1
    22   11   12 ar
    23   12   29 1
    24   13   18 1
    25   13   14 1
    26   14   15 1
    27   14   30 1
    28   14   31 1
    29   15   16 1
    30   15   17 2
    31   17   18 1
    32   18   19 2
    33   18   20 2
    34   21   32 1
@<TRIPOS>MOLECULE
ZINC02277650
   54    57     0     0     0
SMALL
USER_CHARGES
2-[[3-ethoxycarbonyl-4-(4-phenylphenyl)-2-thienyl]carbamoyl]benzoic acid
@<TRIPOS>ATOM
      1 C1          3.4598    2.0242    0.0692 C.3       1 <0>        -0.1531
      2 C2          2.2540    1.0827    0.0498 C.3       1 <0>         0.0592
      3 O1          1.0300    1.8639    0.0464 O.3       1 <0>        -0.3465
      4 C3         -0.1328    1.1802    0.0299 C.2       1 <0>         0.5446
      5 O2         -0.1231   -0.0363    0.0186 O.2       1 <0>        -0.5026
      6 C4         -1.4052    1.9015    0.0194 C.2       1 <0>        -0.2394
      7 C5         -2.0840    2.2653    1.2489 C.2       1 <0>        -0.0281
      8 C6         -3.2594    2.9341    1.1224 C.2       1 <0>        -0.2436
      9 S1         -3.4607    3.0788   -0.6408 S.3       1 <0>         0.2738
     10 C7         -2.0201    2.2770   -1.1681 C.2       1 <0>         0.1181
     11 N1         -1.5854    2.0601   -2.4643 N.am      1 <0>        -0.6219
     12 C8         -2.3208    2.5006   -3.5043 C.2       1 <0>         0.5716
     13 O3         -3.3658    3.0882   -3.3040 O.2       1 <0>        -0.4437
     14 C9         -1.8564    2.2689   -4.8890 C.ar      1 <0>        -0.1087
     15 C10        -1.5626    0.9788   -5.3227 C.ar      1 <0>        -0.1067
     16 C11        -1.1330    0.7666   -6.6191 C.ar      1 <0>        -0.1283
     17 C12        -0.9826    1.8312   -7.4903 C.ar      1 <0>        -0.1121
     18 C13        -1.2644    3.1192   -7.0762 C.ar      1 <0>        -0.0826
     19 C14        -1.7030    3.3519   -5.7750 C.ar      1 <0>        -0.0623
     20 C15        -2.0053    4.7277   -5.3270 C.2       1 <0>         0.4807
     21 O4         -2.2794    4.9410   -4.1631 O.co2     1 <0>        -0.6009
     22 C16        -1.5232    1.9237    2.5768 C.ar      1 <0>        -0.0238
     23 C17        -1.1131    0.6173    2.8460 C.ar      1 <0>        -0.1062
     24 C18        -0.5877    0.3011    4.0792 C.ar      1 <0>        -0.1067
     25 C19        -0.4745    1.2842    5.0620 C.ar      1 <0>        -0.0519
     26 C20        -0.8892    2.5888    4.7950 C.ar      1 <0>        -0.1083
     27 C21        -1.4102    2.9068    3.5605 C.ar      1 <0>        -0.0975
     28 C22         0.0865    0.9421    6.3915 C.ar      1 <0>        -0.0389
     29 C23         0.2057    1.9235    7.3741 C.ar      1 <0>        -0.1124
     30 C24         0.7232    1.5981    8.6114 C.ar      1 <0>        -0.1178
     31 C25         1.1337    0.3034    8.8735 C.ar      1 <0>        -0.1234
     32 C26         1.0231   -0.6735    7.9003 C.ar      1 <0>        -0.1177
     33 C27         0.5018   -0.3609    6.6613 C.ar      1 <0>        -0.1129
     34 H1          3.4377    2.6611   -0.8151 H         1 <0>         0.0687
     35 H2          3.4221    2.6445    0.9647 H         1 <0>         0.0665
     36 H3          4.3786    1.4378    0.0717 H         1 <0>         0.0784
     37 H4          2.2761    0.4458    0.9342 H         1 <0>         0.0685
     38 H5          2.2916    0.4624   -0.8457 H         1 <0>         0.0691
     39 H6         -3.9141    3.2920    1.9032 H         1 <0>         0.1890
     40 H7         -0.7515    1.5912   -2.6241 H         1 <0>         0.4147
     41 H8         -1.6740    0.1435   -4.6471 H         1 <0>         0.1227
     42 H9         -0.9093   -0.2358   -6.9530 H         1 <0>         0.1239
     43 H10        -0.6427    1.6544   -8.5000 H         1 <0>         0.1241
     44 H11        -1.1441    3.9453   -7.7614 H         1 <0>         0.1399
     45 H12        -1.2045   -0.1449    2.0863 H         1 <0>         0.1324
     46 H13        -0.2671   -0.7092    4.2865 H         1 <0>         0.1248
     47 H14        -0.8014    3.3497    5.5564 H         1 <0>         0.1269
     48 H15        -1.7316    3.9170    3.3540 H         1 <0>         0.1303
     49 H16        -0.1100    2.9357    7.1689 H         1 <0>         0.1259
     50 H17         0.8119    2.3567    9.3750 H         1 <0>         0.1232
     51 H18         1.5426    0.0543    9.8416 H         1 <0>         0.1210
     52 H19         1.3455   -1.6826    8.1104 H         1 <0>         0.1229
     53 H20         0.4162   -1.1242    5.9021 H         1 <0>         0.1251
     54 O5         -1.9767    5.7451   -6.2095 O.co2     1 <0>        -0.7478
@<TRIPOS>BOND
     1    1    2 1
     2    1   34 1
     3    1   35 1
     4    1   36 1
     5    2    3 1
     6    2   37 1
     7    2   38 1
     8    3    4 1
     9    4    5 2
    10    4    6 1
    11    6   10 2
    12    6    7 1
    13    7    8 2
    14    7   22 1
    15    8    9 1
    16    8   39 1
    17    9   10 1
    18   10   11 1
    19   11   12 am
    20   11   40 1
    21   12   13 2
    22   12   14 1
    23   14   19 ar
    24   14   15 ar
    25   15   16 ar
    26   15   41 1
    27   16   17 ar
    28   16   42 1
    29   17   18 ar
    30   17   43 1
    31   18   19 ar
    32   18   44 1
    33   19   20 1
    34   20   21 2
    35   20   54 1
    36   22   27 ar
    37   22   23 ar
    38   23   24 ar
    39   23   45 1
    40   24   25 ar
    41   24   46 1
    42   25   26 ar
    43   25   28 1
    44   26   27 ar
    45   26   47 1
    46   27   48 1
    47   28   33 ar
    48   28   29 ar
    49   29   30 ar
    50   29   49 1
    51   30   31 ar
    52   30   50 1
    53   31   32 ar
    54   31   51 1
    55   32   33 ar
    56   32   52 1
    57   33   53 1
@<TRIPOS>MOLECULE
ZINC33395186
   37    39     0     0     0
SMALL
USER_CHARGES
(5Z)-3-(3-chlorophenyl)-5-[(4-hydroxy-3-methoxy-5-nitro-phenyl)methylene]-2-thioxo-thiazolidin-4-one
@<TRIPOS>ATOM
      1 C1          2.3037    5.6503    0.5230 C.3       1 <0>         0.0186
      2 O1          2.4084    4.2263    0.4639 O.3       1 <0>        -0.2913
      3 C2          1.2453    3.5216    0.4536 C.ar      1 <0>         0.0385
      4 C3          0.0356    4.1857    0.5049 C.ar      1 <0>        -0.1287
      5 C4         -1.1600    3.4568    0.4883 C.ar      1 <0>        -0.2135
      6 C5         -1.1214    2.0583    0.4313 C.ar      1 <0>         0.0430
      7 C6          0.0903    1.4046    0.3861 C.ar      1 <0>        -0.1877
      8 C7          1.2750    2.1288    0.3969 C.ar      1 <0>         0.3292
      9 O2          2.4667    1.4782    0.3517 O.3       1 <0>        -0.5737
     10 N1          0.1296   -0.0739    0.3263 N.pl3     1 <0>         0.0647
     11 O3         -0.9086   -0.7108    0.3168 O.2       1 <0>        -0.2429
     12 O4          1.2000   -0.6536    0.2867 O.3       1 <0>        -0.1507
     13 C8         -2.4499    4.1567    0.5365 C.2       1 <0>         0.1560
     14 C9         -2.4942    5.5078    0.4118 C.2       1 <0>        -0.3174
     15 C10        -3.6382    6.4294    0.5580 C.2       1 <0>         0.5480
     16 O5         -4.7537    6.0256    0.8303 O.2       1 <0>        -0.4685
     17 N2         -3.3890    7.7162    0.3822 N.am      1 <0>        -0.4781
     18 C11        -2.1528    8.1587    0.0744 C.2       1 <0>         0.2568
     19 S1         -1.6365    9.7684   -0.1963 S.2       1 <0>        -0.3787
     20 S2         -1.1849    6.6593    0.0176 S.3       1 <0>         0.0994
     21 C12        -4.4342    8.6402    0.5129 C.ar      1 <0>         0.1145
     22 C13        -5.4638    8.6622   -0.4188 C.ar      1 <0>        -0.0821
     23 C14        -6.4932    9.5735   -0.2877 C.ar      1 <0>        -0.0966
     24 C15        -6.5002   10.4637    0.7704 C.ar      1 <0>        -0.0934
     25 C16        -5.4760   10.4447    1.7007 C.ar      1 <0>        -0.0250
     26 C17        -4.4455    9.5314    1.5770 C.ar      1 <0>        -0.0740
     27 Cl1        -5.4884   11.5640    3.0276 Cl        1 <0>        -0.0584
     28 H1          3.3110    6.0922    0.5251 H         1 <0>         0.1009
     29 H2          1.7737    5.9411    1.4420 H         1 <0>         0.0521
     30 H3          1.7458    6.0136   -0.3526 H         1 <0>         0.0521
     31 H4          0.0116    5.2643    0.5533 H         1 <0>         0.1273
     32 H5         -2.0412    1.4924    0.4231 H         1 <0>         0.1424
     33 H6         -3.3804    3.5862    0.6737 H         1 <0>         0.1618
     34 H7         -5.4597    7.9668   -1.2452 H         1 <0>         0.1328
     35 H8         -7.2939    9.5906   -1.0122 H         1 <0>         0.1436
     36 H9         -7.3067   11.1749    0.8711 H         1 <0>         0.1414
     37 H10        -3.6482    9.5138    2.3053 H         1 <0>         0.1378
@<TRIPOS>BOND
     1    1    2 1
     2    1   28 1
     3    1   29 1
     4    1   30 1
     5    2    3 1
     6    3    8 ar
     7    3    4 ar
     8    4    5 ar
     9    4   31 1
    10    5    6 ar
    11    5   13 1
    12    6    7 ar
    13    6   32 1
    14    7    8 ar
    15    7   10 1
    16    8    9 1
    17   10   11 2
    18   10   12 1
    19   13   14 2
    20   13   33 1
    21   14   20 1
    22   14   15 1
    23   15   16 2
    24   15   17 am
    25   17   18 1
    26   17   21 1
    27   18   19 2
    28   18   20 1
    29   21   26 ar
    30   21   22 ar
    31   22   23 ar
    32   22   34 1
    33   23   24 ar
    34   23   35 1
    35   24   25 ar
    36   24   36 1
    37   25   26 ar
    38   25   27 1
    39   26   37 1
