@<TRIPOS>MOLECULE
ZINC02007908
   27    28     0     0     0
SMALL
USER_CHARGES
2-(oxaloamino)-4,5,6,7-tetrahydrobenzothiophene-3-carboxylic acid
@<TRIPOS>ATOM
      1 C1         -6.0112    7.4985   -0.3842 C.3       1 <0>        -0.1130
      2 C2         -6.8851    6.5592    0.4520 C.3       1 <0>        -0.1113
      3 C3         -6.5643    5.1085    0.0638 C.3       1 <0>        -0.0181
      4 C4         -5.0760    4.9408    0.0544 C.2       1 <0>        -0.2574
      5 C5         -4.1457    5.9208    0.0549 C.2       1 <0>        -0.0513
      6 C6         -2.7665    5.4647    0.0506 C.2       1 <0>        -0.2026
      7 C7         -2.5445    4.0931    0.0364 C.2       1 <0>         0.0680
      8 S1         -4.1468    3.4339    0.0410 S.3       1 <0>         0.1549
      9 N1         -1.3372    3.4177    0.0270 N.am      1 <0>        -0.6008
     10 C8         -1.3189    2.0701    0.0196 C.2       1 <0>         0.4691
     11 O1         -2.3618    1.4490    0.0211 O.2       1 <0>        -0.5108
     12 C9         -0.0162    1.3414    0.0094 C.2       1 <0>         0.4722
     13 O2          1.0257    1.9620    0.0028 O.co2     1 <0>        -0.6029
     14 C10        -1.6518    6.4150    0.0569 C.2       1 <0>         0.5164
     15 O3         -1.1922    6.8203   -0.9938 O.co2     1 <0>        -0.6361
     16 C11        -4.5528    7.3891    0.0644 C.3       1 <0>        -0.0570
     17 H1         -6.0879    7.2237   -1.4363 H         1 <0>         0.0614
     18 H2         -6.3534    8.5249   -0.2522 H         1 <0>         0.0585
     19 H3         -7.9368    6.7662    0.2544 H         1 <0>         0.0604
     20 H4         -6.6760    6.7087    1.5112 H         1 <0>         0.0642
     21 H5         -6.9639    4.8968   -0.9279 H         1 <0>         0.0675
     22 H6         -7.0060    4.4270    0.7908 H         1 <0>         0.0678
     23 H7         -0.5038    3.9141    0.0257 H         1 <0>         0.4284
     24 H8         -3.9167    7.9492   -0.6209 H         1 <0>         0.0737
     25 H9         -4.4491    7.7927    1.0716 H         1 <0>         0.0718
     26 O4          0.0021   -0.0041    0.0020 O.co2     1 <0>        -0.7132
     27 O5         -1.1351    6.8406    1.2278 O.co2     1 <0>        -0.7599
@<TRIPOS>BOND
     1    1   16 1
     2    1    2 1
     3    1   17 1
     4    1   18 1
     5    2    3 1
     6    2   19 1
     7    2   20 1
     8    3    4 1
     9    3   21 1
    10    3   22 1
    11    4    8 1
    12    4    5 2
    13    5    6 1
    14    5   16 1
    15    6    7 2
    16    6   14 1
    17    7    8 1
    18    7    9 1
    19    9   10 am
    20    9   23 1
    21   10   11 2
    22   10   12 1
    23   12   13 2
    24   12   26 1
    25   14   15 2
    26   14   27 1
    27   16   24 1
    28   16   25 1
@<TRIPOS>MOLECULE
ZINC01551920
   27    28     0     0     0
SMALL
USER_CHARGES
2-(oxaloamino)-4,5,6,7-tetrahydrothieno[5,4-c]pyridine-3-carboxylic acid
@<TRIPOS>ATOM
      1 C1         -1.1174    3.0060   -0.9004 C.3       1 <0>        -0.0860
      2 C2         -0.7889    1.5272   -1.1250 C.3       1 <0>         0.0073
      3 C3          1.3582    1.5522   -0.0026 C.3       1 <0>         0.1260
      4 C4          1.2672    3.0369   -0.1686 C.2       1 <0>        -0.3786
      5 C5          0.1788    3.7352   -0.5666 C.2       1 <0>        -0.0268
      6 C6          0.3582    5.1723   -0.6429 C.2       1 <0>        -0.2154
      7 C7          1.6084    5.6801   -0.3071 C.2       1 <0>         0.1056
      8 S1          2.5156    4.2606    0.1002 S.3       1 <0>         0.2529
      9 N1          2.0266    6.9987   -0.2995 N.am      1 <0>        -0.5994
     10 C8          3.2898    7.3031    0.0587 C.2       1 <0>         0.4748
     11 O1          4.0604    6.4201    0.3748 O.2       1 <0>        -0.5038
     12 C9          3.7410    8.7259    0.0669 C.2       1 <0>         0.4700
     13 O2          2.9710    9.6081   -0.2489 O.co2     1 <0>        -0.5937
     14 C10        -0.7353    6.0546   -1.0570 C.2       1 <0>         0.5066
     15 O3         -1.4956    6.5124   -0.2252 O.co2     1 <0>        -0.6244
     16 H1         -1.8191    3.1053   -0.0722 H         1 <0>         0.0993
     17 H2         -1.5544    3.4281   -1.8053 H         1 <0>         0.1247
     18 H3         -0.2084    1.4211   -2.0414 H         1 <0>         0.1293
     19 H4         -1.7157    0.9613   -1.2189 H         1 <0>         0.1297
     20 H5          1.8551    1.3172    0.9387 H         1 <0>         0.1314
     21 H6          1.9198    1.1225   -0.8321 H         1 <0>         0.1300
     22 H7          1.4108    7.7043   -0.5521 H         1 <0>         0.4364
     23 N2         -0.0147    0.9992    0.0136 N.4       1 <0>        -0.5128
     24 H8          0.0310   -0.0244   -0.0527 H         1 <0>         0.4294
     25 H9         -0.4773    1.2650    0.8909 H         1 <0>         0.4333
     26 O4          5.0021    9.0298    0.4246 O.co2     1 <0>        -0.6993
     27 O5         -0.8990    6.3594   -2.3606 O.co2     1 <0>        -0.7466
@<TRIPOS>BOND
     1    1    5 1
     2    1    2 1
     3    1   16 1
     4    1   17 1
     5    2   18 1
     6    2   19 1
     7    2   23 1
     8    3    4 1
     9    3   20 1
    10    3   21 1
    11    3   23 1
    12    4    8 1
    13    4    5 2
    14    5    6 1
    15    6    7 2
    16    6   14 1
    17    7    8 1
    18    7    9 1
    19    9   10 am
    20    9   22 1
    21   10   11 2
    22   10   12 1
    23   12   13 2
    24   12   26 1
    25   14   15 2
    26   14   27 1
    27   23   24 1
    28   23   25 1
@<TRIPOS>MOLECULE
ZINC38140516
   80    84     0     0     0
SMALL
USER_CHARGES

@<TRIPOS>ATOM
      1 C1          1.0496    1.4744   -0.2424 C.3       1 <0>        -0.1544
      2 C2          0.9776   -0.0468   -0.1716 C.3       1 <0>        -0.0344
      3 C3         -0.4414   -0.4320    0.2852 C.3       1 <0>        -0.1100
      4 C4         -0.6897    0.1067    1.6909 C.3       1 <0>        -0.1479
      5 C5          0.2812   -0.5259    2.6789 C.3       1 <0>         0.1192
      6 H1          0.0837   -1.6021    2.7373 H         1 <0>         0.0462
      7 C6          1.7401   -0.3149    2.2727 C.3       1 <0>        -0.0370
      8 C7          1.9789   -0.6323    0.8152 C.3       1 <0>        -0.0576
      9 H2          1.8838   -1.7444    0.7165 H         1 <0>         0.0567
     10 C8          3.3983   -0.3014    0.3539 C.3       1 <0>        -0.1127
     11 C9          3.6415   -1.0889   -0.9453 C.3       1 <0>        -0.1111
     12 C10         2.6563   -0.6599   -2.0262 C.3       1 <0>        -0.0258
     13 C11         1.2136   -0.6828   -1.5431 C.3       1 <0>        -0.0554
     14 H3          0.8926   -1.7402   -1.4417 H         1 <0>         0.0588
     15 C12         0.3116   -0.0483   -2.6021 C.3       1 <0>        -0.0723
     16 C13         0.6022   -0.6520   -3.9456 C.2       1 <0>        -0.1754
     17 C14         1.6958   -1.3013   -4.2436 C.2       1 <0>        -0.0465
     18 C15         2.7840   -1.5827   -3.2502 C.3       1 <0>         0.0076
     19 C16         4.1715   -1.4761   -3.8675 C.3       1 <0>        -0.0993
     20 C17         4.2334   -2.1439   -5.2427 C.3       1 <0>        -0.0860
     21 C18         3.2141   -1.5179   -6.1889 C.3       1 <0>        -0.1131
     22 C19         1.8056   -1.8053   -5.6737 C.3       1 <0>        -0.0179
     23 H4          1.0844   -1.2438   -6.2878 H         1 <0>         0.0687
     24 C20         1.4872   -3.2910   -5.7424 C.3       1 <0>        -0.0990
     25 C21         1.6418   -3.8241   -7.1678 C.3       1 <0>        -0.0627
     26 C22         3.0578   -3.5504   -7.6696 C.3       1 <0>        -0.1012
     27 C23         3.3860   -2.0656   -7.6041 C.3       1 <0>        -0.0919
     28 C24         0.6108   -3.1802   -8.0925 C.3       1 <0>        -0.1396
     29 C25         1.4091   -5.3427   -7.1506 C.3       1 <0>        -0.1397
     30 C26         3.4206   -0.0218   -6.2447 C.2       1 <0>         0.5073
     31 O1          4.4867    0.4328   -6.6234 O.co2     1 <0>        -0.7086
     32 O2          2.5212    0.7307   -5.9109 O.co2     1 <0>        -0.6827
     33 C27         2.6055   -3.0264   -2.7623 C.3       1 <0>        -0.1509
     34 C28         3.0344    0.7562   -2.4903 C.3       1 <0>        -0.1529
     35 C29         2.5744   -1.3054    3.1239 C.3       1 <0>        -0.1461
     36 C30         2.1912    1.0937    2.6572 C.3       1 <0>        -0.1324
     37 O3          0.0720    0.0412    3.9783 O.3       1 <0>        -0.5663
     38 H5          2.0840    1.7824   -0.3946 H         1 <0>         0.0654
     39 H6          0.4390    1.8287   -1.0729 H         1 <0>         0.0591
     40 H7          0.6772    1.8995    0.6896 H         1 <0>         0.0551
     41 H8         -1.1651   -0.0028   -0.4063 H         1 <0>         0.0681
     42 H9         -0.5304   -1.5174    0.2840 H         1 <0>         0.0591
     43 H10        -0.6146    1.1895    1.7190 H         1 <0>         0.0756
     44 H11        -1.7152   -0.1601    1.9877 H         1 <0>         0.0527
     45 H12         3.5355    0.7555    0.1833 H         1 <0>         0.0698
     46 H13         4.1252   -0.6437    1.0936 H         1 <0>         0.0562
     47 H14         4.6626   -0.8894   -1.2809 H         1 <0>         0.0598
     48 H15         3.5506   -2.1435   -0.6978 H         1 <0>         0.0615
     49 H16        -0.7358   -0.2597   -2.3499 H         1 <0>         0.0505
     50 H17         0.4350    1.0275   -2.6637 H         1 <0>         0.0736
     51 H18        -0.1434   -0.5441   -4.7229 H         1 <0>         0.0900
     52 H19         4.5381   -0.4615   -3.9450 H         1 <0>         0.0747
     53 H20         4.8786   -2.0149   -3.2085 H         1 <0>         0.0379
     54 H21         5.2371   -2.0027   -5.6578 H         1 <0>         0.0520
     55 H22         4.0472   -3.2116   -5.1475 H         1 <0>         0.0448
     56 H23         2.1681   -3.8584   -5.1047 H         1 <0>         0.0615
     57 H24         0.4628   -3.4656   -5.4046 H         1 <0>         0.0491
     58 H25         3.7720   -4.1106   -7.0604 H         1 <0>         0.0548
     59 H26         3.1439   -3.8952   -8.7049 H         1 <0>         0.0481
     60 H27         2.7473   -1.5053   -8.2880 H         1 <0>         0.0507
     61 H28         4.4266   -1.9146   -7.9138 H         1 <0>         0.0570
     62 H29         0.7544   -2.0997   -8.1004 H         1 <0>         0.0623
     63 H30         0.7347   -3.5705   -9.1026 H         1 <0>         0.0466
     64 H31        -0.3926   -3.4107   -7.7344 H         1 <0>         0.0478
     65 H32         0.4047   -5.5522   -6.7827 H         1 <0>         0.0490
     66 H33         1.5159   -5.7381   -8.1607 H         1 <0>         0.0486
     67 H34         2.1417   -5.8150   -6.4961 H         1 <0>         0.0496
     68 H35         1.5831   -3.1677   -2.4120 H         1 <0>         0.0497
     69 H36         2.8068   -3.7148   -3.5830 H         1 <0>         0.0574
     70 H37         3.2999   -3.2222   -1.9452 H         1 <0>         0.0536
     71 H38         4.0220    0.7360   -2.9511 H         1 <0>         0.0541
     72 H39         2.3017    1.1083   -3.2165 H         1 <0>         0.0769
     73 H40         3.0474    1.4284   -1.6323 H         1 <0>         0.0461
     74 H41         2.2528   -2.3255    2.9138 H         1 <0>         0.0476
     75 H42         3.6302   -1.1987    2.8748 H         1 <0>         0.0558
     76 H43         2.4271   -1.0887    4.1820 H         1 <0>         0.0574
     77 H44         2.2161    1.1834    3.7433 H         1 <0>         0.0562
     78 H45         3.1870    1.2789    2.2545 H         1 <0>         0.0526
     79 H46         1.4923    1.8233    2.2483 H         1 <0>         0.0566
     80 H47        -0.8199   -0.0929    4.3270 H         1 <0>         0.3711
@<TRIPOS>BOND
     1    1    2 1
     2    1   38 1
     3    1   39 1
     4    1   40 1
     5    2    8 1
     6    2   13 1
     7    2    3 1
     8    3    4 1
     9    3   41 1
    10    3   42 1
    11    4    5 1
    12    4   43 1
    13    4   44 1
    14    5    6 1
    15    5    7 1
    16    5   37 1
    17    7    8 1
    18    7   35 1
    19    7   36 1
    20    8    9 1
    21    8   10 1
    22   10   11 1
    23   10   45 1
    24   10   46 1
    25   11   12 1
    26   11   47 1
    27   11   48 1
    28   12   18 1
    29   12   13 1
    30   12   34 1
    31   13   14 1
    32   13   15 1
    33   15   16 1
    34   15   49 1
    35   15   50 1
    36   16   17 2
    37   16   51 1
    38   17   22 1
    39   17   18 1
    40   18   19 1
    41   18   33 1
    42   19   20 1
    43   19   52 1
    44   19   53 1
    45   20   21 1
    46   20   54 1
    47   20   55 1
    48   21   27 1
    49   21   22 1
    50   21   30 1
    51   22   23 1
    52   22   24 1
    53   24   25 1
    54   24   56 1
    55   24   57 1
    56   25   26 1
    57   25   28 1
    58   25   29 1
    59   26   27 1
    60   26   58 1
    61   26   59 1
    62   27   60 1
    63   27   61 1
    64   28   62 1
    65   28   63 1
    66   28   64 1
    67   29   65 1
    68   29   66 1
    69   29   67 1
    70   30   31 2
    71   30   32 1
    72   33   68 1
    73   33   69 1
    74   33   70 1
    75   34   71 1
    76   34   72 1
    77   34   73 1
    78   35   74 1
    79   35   75 1
    80   35   76 1
    81   36   77 1
    82   36   78 1
    83   36   79 1
    84   37   80 1
@<TRIPOS>MOLECULE
ZINC03978827
   80    84     0     0     0
SMALL
USER_CHARGES

@<TRIPOS>ATOM
      1 C1         -2.2499    1.7395    1.5965 C.3       1 <0>        -0.1448
      2 C2         -2.3630    0.2147    1.6179 C.3       1 <0>        -0.0886
      3 H1         -2.1511   -0.1868    0.6297 H         1 <0>         0.0647
      4 C3         -3.7754   -0.1882    2.0495 C.3       1 <0>        -0.1142
      5 C4         -3.8831   -1.7109    2.0243 C.3       1 <0>        -0.0863
      6 C5         -2.8712   -2.3453    2.9771 C.3       1 <0>        -0.1168
      7 C6         -3.2034   -1.9924    4.4220 C.3       1 <0>        -0.0858
      8 C7         -2.2907   -2.7490    5.3888 C.3       1 <0>        -0.0975
      9 C8         -0.8207   -2.4481    5.1311 C.3       1 <0>         0.0200
     10 C9         -0.4927   -2.4623    3.6663 C.2       1 <0>        -0.0271
     11 C10         0.6115   -2.9748    3.1888 C.2       1 <0>        -0.1945
     12 C11         1.6871   -3.6146    4.0173 C.3       1 <0>        -0.0682
     13 C12         1.5217   -3.2085    5.4824 C.3       1 <0>        -0.0549
     14 H2          1.7443   -2.1224    5.5395 H         1 <0>         0.0556
     15 C13         0.0772   -3.4243    5.9096 C.3       1 <0>        -0.0252
     16 C14        -0.1263   -3.2338    7.4071 C.3       1 <0>        -0.1101
     17 C15         0.9033   -4.0493    8.2060 C.3       1 <0>        -0.1119
     18 C16         2.2898   -3.5411    7.8160 C.3       1 <0>        -0.0569
     19 H3          2.2178   -2.4232    7.8479 H         1 <0>         0.0555
     20 C17         2.5695   -3.8926    6.3613 C.3       1 <0>        -0.0335
     21 C18         3.9485   -3.3245    5.9787 C.3       1 <0>        -0.1101
     22 C19         5.0165   -3.9216    6.8907 C.3       1 <0>        -0.1478
     23 C20         4.7602   -3.5214    8.3374 C.3       1 <0>         0.1195
     24 H4          4.8674   -2.4352    8.4331 H         1 <0>         0.0460
     25 C21         3.3625   -3.9218    8.8099 C.3       1 <0>        -0.0368
     26 C22         3.3394   -5.4064    9.1716 C.3       1 <0>        -0.1352
     27 C23         3.1067   -3.1345   10.1199 C.3       1 <0>        -0.1462
     28 O1          5.7353   -4.1464    9.1809 O.3       1 <0>        -0.5663
     29 C24         2.6012   -5.3981    6.1216 C.3       1 <0>        -0.1547
     30 C25        -0.3721   -4.8467    5.5369 C.3       1 <0>        -0.1382
     31 C26        -1.4543   -1.8772    2.6495 C.3       1 <0>        -0.0155
     32 H5         -1.1832   -2.2584    1.6510 H         1 <0>         0.0546
     33 C27        -1.3629   -0.3562    2.6314 C.3       1 <0>        -0.0770
     34 H6         -1.6059    0.0562    3.6092 H         1 <0>         0.0715
     35 C28         0.0468    0.0829    2.2258 C.3       1 <0>        -0.1463
     36 C29        -0.5399   -1.0348    5.6568 C.3       1 <0>        -0.1536
     37 C30        -2.9445   -3.8442    2.7896 C.2       1 <0>         0.4993
     38 O2         -3.7239   -4.3202    1.9818 O.co2     1 <0>        -0.7070
     39 O3         -2.2243   -4.5767    3.4463 O.co2     1 <0>        -0.6696
     40 H7         -1.2399    2.0248    1.3019 H         1 <0>         0.0532
     41 H8         -2.9654    2.1470    0.8823 H         1 <0>         0.0474
     42 H9         -2.4636    2.1337    2.5900 H         1 <0>         0.0494
     43 H10        -3.9698    0.1803    3.0558 H         1 <0>         0.0549
     44 H11        -4.5022    0.2419    1.3592 H         1 <0>         0.0487
     45 H12        -4.8906   -2.0096    2.3196 H         1 <0>         0.0523
     46 H13        -3.6916   -2.0691    1.0098 H         1 <0>         0.0574
     47 H14        -3.1028   -0.9193    4.5760 H         1 <0>         0.0430
     48 H15        -4.2426   -2.2738    4.6258 H         1 <0>         0.0414
     49 H16        -2.5347   -2.4030    6.4107 H         1 <0>         0.0259
     50 H17        -2.5341   -3.8025    5.3536 H         1 <0>         0.0990
     51 H18         0.7546   -2.9368    2.1160 H         1 <0>         0.0852
     52 H19         1.6485   -4.6899    3.8782 H         1 <0>         0.0722
     53 H20         2.6596   -3.2560    3.6562 H         1 <0>         0.0490
     54 H21        -0.0128   -2.1972    7.7151 H         1 <0>         0.0590
     55 H22        -1.1267   -3.5776    7.6859 H         1 <0>         0.0595
     56 H23         0.7201   -3.8720    9.2680 H         1 <0>         0.0543
     57 H24         0.7855   -5.1037    8.0015 H         1 <0>         0.0688
     58 H25         4.1631   -3.5839    4.9433 H         1 <0>         0.0672
     59 H26         3.9302   -2.2417    6.0898 H         1 <0>         0.0588
     60 H27         5.0618   -5.0017    6.7929 H         1 <0>         0.0755
     61 H28         5.9952   -3.5229    6.5845 H         1 <0>         0.0520
     62 H29         3.6150   -5.9975    8.2982 H         1 <0>         0.0582
     63 H30         4.0494   -5.5953    9.9768 H         1 <0>         0.0579
     64 H31         2.3375   -5.6854    9.4977 H         1 <0>         0.0518
     65 H32         2.1229   -3.3919   10.5123 H         1 <0>         0.0557
     66 H33         3.8698   -3.3932   10.8541 H         1 <0>         0.0571
     67 H34         3.1476   -2.0648    9.9148 H         1 <0>         0.0475
     68 H35         6.6482   -3.9040    8.9733 H         1 <0>         0.3709
     69 H36         2.6560   -5.5945    5.0508 H         1 <0>         0.0577
     70 H37         3.4740   -5.8262    6.6146 H         1 <0>         0.0548
     71 H38         1.6963   -5.8499    6.5280 H         1 <0>         0.0675
     72 H39        -0.1640   -5.0289    4.4826 H         1 <0>         0.0772
     73 H40         0.1712   -5.5703    6.1448 H         1 <0>         0.0333
     74 H41        -1.4418   -4.9494    5.7192 H         1 <0>         0.0634
     75 H42         0.1016    1.1715    2.2228 H         1 <0>         0.0481
     76 H43         0.7702   -0.3153    2.9372 H         1 <0>         0.0561
     77 H44         0.2722   -0.2949    1.2285 H         1 <0>         0.0471
     78 H45        -0.6486   -1.0223    6.7413 H         1 <0>         0.0530
     79 H46         0.4759   -0.7431    5.3901 H         1 <0>         0.0476
     80 H47        -1.2475   -0.3347    5.2127 H         1 <0>         0.0547
@<TRIPOS>BOND
     1    1    2 1
     2    1   40 1
     3    1   41 1
     4    1   42 1
     5    2    3 1
     6    2   33 1
     7    2    4 1
     8    4    5 1
     9    4   43 1
    10    4   44 1
    11    5    6 1
    12    5   45 1
    13    5   46 1
    14    6   31 1
    15    6    7 1
    16    6   37 1
    17    7    8 1
    18    7   47 1
    19    7   48 1
    20    8    9 1
    21    8   49 1
    22    8   50 1
    23    9   15 1
    24    9   10 1
    25    9   36 1
    26   10   11 2
    27   10   31 1
    28   11   12 1
    29   11   51 1
    30   12   13 1
    31   12   52 1
    32   12   53 1
    33   13   14 1
    34   13   20 1
    35   13   15 1
    36   15   16 1
    37   15   30 1
    38   16   17 1
    39   16   54 1
    40   16   55 1
    41   17   18 1
    42   17   56 1
    43   17   57 1
    44   18   19 1
    45   18   25 1
    46   18   20 1
    47   20   21 1
    48   20   29 1
    49   21   22 1
    50   21   58 1
    51   21   59 1
    52   22   23 1
    53   22   60 1
    54   22   61 1
    55   23   24 1
    56   23   25 1
    57   23   28 1
    58   25   26 1
    59   25   27 1
    60   26   62 1
    61   26   63 1
    62   26   64 1
    63   27   65 1
    64   27   66 1
    65   27   67 1
    66   28   68 1
    67   29   69 1
    68   29   70 1
    69   29   71 1
    70   30   72 1
    71   30   73 1
    72   30   74 1
    73   31   32 1
    74   31   33 1
    75   33   34 1
    76   33   35 1
    77   35   75 1
    78   35   76 1
    79   35   77 1
    80   36   78 1
    81   36   79 1
    82   36   80 1
    83   37   38 2
    84   37   39 1
@<TRIPOS>MOLECULE
ZINC14952759
   56    58     0     0     0
SMALL
USER_CHARGES

@<TRIPOS>ATOM
      1 C1         -0.4758    1.4574   -1.6124 C.3       1 <0>         0.0993
      2 N1         -0.4488   -0.0074   -1.6164 N.am      1 <0>        -0.7322
      3 C2          0.5695   -0.6641   -1.0263 C.2       1 <0>         0.5424
      4 O1          1.4634   -0.0426   -0.4920 O.2       1 <0>        -0.5311
      5 C3          0.5974   -2.1709   -1.0303 C.3       1 <0>         0.1258
      6 H1         -0.4170   -2.5586   -0.9369 H         1 <0>         0.0965
      7 C4          1.4525   -2.6752    0.1310 C.3       1 <0>        -0.0719
      8 C5          1.7567   -4.1422   -0.0245 C.ar      1 <0>        -0.1031
      9 C6          2.1395   -4.8437    1.1135 C.ar      1 <0>        -0.0942
     10 C7          2.4424   -6.1858    1.0435 C.ar      1 <0>        -0.1531
     11 C8          2.3662   -6.8471   -0.1761 C.ar      1 <0>         0.1949
     12 C9          1.9808   -6.1485   -1.3098 C.ar      1 <0>        -0.1443
     13 C10         1.6719   -4.7984   -1.2326 C.ar      1 <0>        -0.0848
     14 C11         1.2346   -4.1048   -2.4985 C.3       1 <0>         0.1524
     15 N2          1.2021   -2.6545   -2.2825 N.am      1 <0>        -0.6044
     16 C12         1.7067   -1.7989   -3.1935 C.2       1 <0>         0.5157
     17 O2          1.7576   -0.6123   -2.9479 O.2       1 <0>        -0.5114
     18 C13         2.2076   -2.3166   -4.5172 C.3       1 <0>        -0.1339
     19 C14         2.7238   -1.1482   -5.3594 C.3       1 <0>        -0.0554
     20 C15         3.2247   -1.6659   -6.6831 C.ar      1 <0>        -0.0731
     21 C16         4.5457   -2.0526   -6.8184 C.ar      1 <0>        -0.1469
     22 C17         5.0095   -2.5278   -8.0312 C.ar      1 <0>        -0.0955
     23 C18         4.1541   -2.6181   -9.1120 C.ar      1 <0>        -0.1631
     24 C19         2.8269   -2.2311   -8.9795 C.ar      1 <0>         0.1920
     25 C20         2.3629   -1.7590   -7.7579 C.ar      1 <0>        -0.1469
     26 N3          1.9592   -2.3211  -10.0703 N.pl3     1 <0>        -1.0870
     27 S1          1.9521   -3.6830  -11.0124 S.o2      1 <0>         2.7741
     28 O3          1.0440   -3.4262  -12.1194 O.2       1 <0>        -1.0817
     29 O4          3.3184   -3.8892  -11.4672 O.2       1 <0>        -1.0777
     30 O5          1.4886   -4.7758  -10.1716 O.3       1 <0>        -1.0754
     31 N4          2.6762   -8.2064   -0.2594 N.pl3     1 <0>        -1.0858
     32 S2          2.0863   -9.2612    0.8727 S.o2      1 <0>         2.7750
     33 O6          2.6750  -10.5603    0.5870 O.2       1 <0>        -1.0795
     34 O7          2.4930   -8.7547    2.1743 O.2       1 <0>        -1.0784
     35 O8          0.6394   -9.2755    0.7232 O.3       1 <0>        -1.0775
     36 H2         -0.4910    1.8177   -0.5838 H         1 <0>         0.0516
     37 H3          0.4115    1.8385   -2.1179 H         1 <0>         0.0603
     38 H4         -1.3681    1.8057   -2.1326 H         1 <0>         0.0663
     39 H5         -1.1637   -0.5045   -2.0437 H         1 <0>         0.3954
     40 H6          2.3878   -2.1160    0.1567 H         1 <0>         0.0918
     41 H7          0.9156   -2.5176    1.0664 H         1 <0>         0.0828
     42 H8          2.2003   -4.3310    2.0620 H         1 <0>         0.1221
     43 H9          2.7376   -6.7220    1.9333 H         1 <0>         0.1589
     44 H10         1.9211   -6.6588   -2.2598 H         1 <0>         0.1266
     45 H11         1.9359   -4.3368   -3.3000 H         1 <0>         0.1019
     46 H12         0.2393   -4.4515   -2.7768 H         1 <0>         0.0871
     47 H13         3.0165   -3.0270   -4.3469 H         1 <0>         0.0992
     48 H14         1.3931   -2.8129   -5.0449 H         1 <0>         0.1007
     49 H15         1.9148   -0.4378   -5.5297 H         1 <0>         0.0754
     50 H16         3.5382   -0.6519   -4.8317 H         1 <0>         0.0769
     51 H17         5.2165   -1.9830   -5.9749 H         1 <0>         0.1161
     52 H18         6.0417   -2.8282   -8.1336 H         1 <0>         0.1207
     53 H19         4.5171   -2.9890  -10.0591 H         1 <0>         0.1564
     54 H20         1.3304   -1.4610   -7.6504 H         1 <0>         0.1195
     55 H21         1.3609   -1.5859  -10.2761 H         1 <0>         0.4038
     56 H22         3.2371   -8.5326   -0.9805 H         1 <0>         0.4065
@<TRIPOS>BOND
     1    1    2 1
     2    1   36 1
     3    1   37 1
     4    1   38 1
     5    2    3 am
     6    2   39 1
     7    3    4 2
     8    3    5 1
     9    5    6 1
    10    5   15 1
    11    5    7 1
    12    7    8 1
    13    7   40 1
    14    7   41 1
    15    8   13 ar
    16    8    9 ar
    17    9   10 ar
    18    9   42 1
    19   10   11 ar
    20   10   43 1
    21   11   12 ar
    22   11   31 1
    23   12   13 ar
    24   12   44 1
    25   13   14 1
    26   14   15 1
    27   14   45 1
    28   14   46 1
    29   15   16 am
    30   16   17 2
    31   16   18 1
    32   18   19 1
    33   18   47 1
    34   18   48 1
    35   19   20 1
    36   19   49 1
    37   19   50 1
    38   20   25 ar
    39   20   21 ar
    40   21   22 ar
    41   21   51 1
    42   22   23 ar
    43   22   52 1
    44   23   24 ar
    45   23   53 1
    46   24   25 ar
    47   24   26 1
    48   25   54 1
    49   26   27 1
    50   26   55 1
    51   27   28 2
    52   27   29 2
    53   27   30 1
    54   31   32 1
    55   31   56 1
    56   32   33 2
    57   32   34 2
    58   32   35 1
@<TRIPOS>MOLECULE
ZINC26920345
   50    53     0     0     0
SMALL
USER_CHARGES
4-[[(5Z)-5-[(4-benzyloxyphenyl)methylene]-2,4-dioxo-thiazolidin-3-yl]methyl]benzoic acid
@<TRIPOS>ATOM
      1 C1          0.1606   -0.0659    0.0095 C.ar      1 <0>        -0.1091
      2 C2          1.4483   -0.4946   -0.2533 C.ar      1 <0>        -0.1238
      3 C3          2.4901    0.4139   -0.2666 C.ar      1 <0>        -0.0949
      4 C4          2.2450    1.7503   -0.0117 C.ar      1 <0>        -0.0979
      5 C5          0.9582    2.1781    0.2568 C.ar      1 <0>        -0.0942
      6 C6         -0.0836    1.2696    0.2695 C.ar      1 <0>        -0.1231
      7 C7          3.3807    2.7408   -0.0262 C.3       1 <0>         0.0959
      8 O1          3.5368    3.2673   -1.3454 O.3       1 <0>        -0.3034
      9 C8          4.5243    4.1801   -1.5319 C.ar      1 <0>         0.1554
     10 C9          5.3233    4.5644   -0.4612 C.ar      1 <0>        -0.2096
     11 C10         6.3292    5.4860   -0.6456 C.ar      1 <0>        -0.0453
     12 C11         6.5400    6.0444   -1.9124 C.ar      1 <0>        -0.1301
     13 C12         5.7287    5.6575   -2.9863 C.ar      1 <0>        -0.0372
     14 C13         4.7291    4.7312   -2.7916 C.ar      1 <0>        -0.1557
     15 C14         7.6081    7.0317   -2.1141 C.2       1 <0>         0.0694
     16 C15         8.2753    7.5374   -1.0459 C.2       1 <0>        -0.2115
     17 C16         9.4776    8.3934   -1.0063 C.2       1 <0>         0.5586
     18 O2         10.0350    8.7602   -2.0241 O.2       1 <0>        -0.4658
     19 N1          9.9180    8.7416    0.1910 N.am      1 <0>        -0.5701
     20 C17         9.2974    8.3329    1.3163 C.2       1 <0>         0.5375
     21 O3          9.5911    8.5752    2.4716 O.2       1 <0>        -0.4163
     22 S1          7.9353    7.3567    0.6998 S.3       1 <0>        -0.0588
     23 C18        11.1074    9.5903    0.2973 C.3       1 <0>         0.1388
     24 C19        10.6922   11.0390    0.2997 C.ar      1 <0>        -0.1351
     25 C20        10.5956   11.7297   -0.8953 C.ar      1 <0>        -0.1106
     26 C21        10.2106   13.0543   -0.9008 C.ar      1 <0>        -0.0828
     27 C22         9.9297   13.7013    0.3042 C.ar      1 <0>        -0.0987
     28 C23        10.0347   12.9999    1.5069 C.ar      1 <0>        -0.0912
     29 C24        10.4149   11.6739    1.4974 C.ar      1 <0>        -0.1141
     30 C25         9.5236   15.1217    0.3066 C.2       1 <0>         0.4872
     31 O4          9.2802   15.6820    1.3566 O.co2     1 <0>        -0.6293
     32 O5          9.4232   15.7955   -0.8555 O.co2     1 <0>        -0.7520
     33 H1         -0.6539   -0.7750    0.0155 H         1 <0>         0.1244
     34 H2          1.6397   -1.5386   -0.4527 H         1 <0>         0.1255
     35 H3          3.4954    0.0797   -0.4763 H         1 <0>         0.1247
     36 H4          0.7668    3.2221    0.4562 H         1 <0>         0.1255
     37 H5         -1.0890    1.6039    0.4789 H         1 <0>         0.1260
     38 H6          3.1604    3.5614    0.6724 H         1 <0>         0.0772
     39 H7          4.3098    2.2379    0.2802 H         1 <0>         0.0764
     40 H8          5.1572    4.1361    0.5163 H         1 <0>         0.1358
     41 H9          6.9521    5.7807    0.1860 H         1 <0>         0.1396
     42 H10         5.8871    6.0848   -3.9654 H         1 <0>         0.1423
     43 H11         4.1030    4.4319   -3.6191 H         1 <0>         0.1387
     44 H12         7.8674    7.3614   -3.1310 H         1 <0>         0.1676
     45 H13        11.6399    9.3599    1.2319 H         1 <0>         0.1034
     46 H14        11.7711    9.4005   -0.5592 H         1 <0>         0.1080
     47 H15        10.8181   11.2294   -1.8263 H         1 <0>         0.1223
     48 H16        10.1313   13.5911   -1.8346 H         1 <0>         0.1326
     49 H17         9.8185   13.4943    2.4425 H         1 <0>         0.1287
     50 H18        10.4965   11.1302    2.4270 H         1 <0>         0.1192
@<TRIPOS>BOND
     1    1    6 ar
     2    1    2 ar
     3    1   33 1
     4    2    3 ar
     5    2   34 1
     6    3    4 ar
     7    3   35 1
     8    4    5 ar
     9    4    7 1
    10    5    6 ar
    11    5   36 1
    12    6   37 1
    13    7    8 1
    14    7   38 1
    15    7   39 1
    16    8    9 1
    17    9   14 ar
    18    9   10 ar
    19   10   11 ar
    20   10   40 1
    21   11   12 ar
    22   11   41 1
    23   12   13 ar
    24   12   15 1
    25   13   14 ar
    26   13   42 1
    27   14   43 1
    28   15   16 2
    29   15   44 1
    30   16   22 1
    31   16   17 1
    32   17   18 2
    33   17   19 am
    34   19   20 am
    35   19   23 1
    36   20   21 2
    37   20   22 1
    38   23   24 1
    39   23   45 1
    40   23   46 1
    41   24   29 ar
    42   24   25 ar
    43   25   26 ar
    44   25   47 1
    45   26   27 ar
    46   26   48 1
    47   27   28 ar
    48   27   30 1
    49   28   29 ar
    50   28   49 1
    51   29   50 1
    52   30   31 2
    53   30   32 1
@<TRIPOS>MOLECULE
ZINC29047504
   25    26     0     0     0
SMALL
USER_CHARGES
[(3-bromo-7-cyano-2-naphthyl)-difluoro-methyl]phosphonic acid
@<TRIPOS>ATOM
      1 C1         -5.7641    1.2815    4.6611 C.ar      1 <0>        -0.0793
      2 C2         -4.5087    0.7732    4.7499 C.ar      1 <0>        -0.1090
      3 C3         -3.8069    0.4224    3.5822 C.ar      1 <0>        -0.0206
      4 C4         -2.5070   -0.1057    3.6496 C.ar      1 <0>        -0.1218
      5 C5         -1.8544   -0.4420    2.5021 C.ar      1 <0>        -0.0286
      6 C6         -2.4529   -0.2594    1.2557 C.ar      1 <0>        -0.1208
      7 C7         -3.7104    0.2494    1.1512 C.ar      1 <0>        -0.0244
      8 C8         -4.4177    0.6027    2.3148 C.ar      1 <0>        -0.0587
      9 C9         -5.7155    1.1292    2.2420 C.ar      1 <0>        -0.0009
     10 C10        -6.3810    1.4652    3.4103 C.ar      1 <0>        -0.0598
     11 C11        -7.7063    2.0032    3.3436 C.1       1 <0>         0.2733
     12 N1         -8.7578    2.4301    3.2907 N.1       1 <0>        -0.4406
     13 C12        -1.6982   -0.6368    0.0070 C.3       1 <0>        -0.2353
     14 F1         -1.4897   -2.0201   -0.0116 F         1 <0>        -0.2045
     15 F2         -0.4637    0.0211   -0.0086 F         1 <0>        -0.2024
     16 P1         -2.6658   -0.1483   -1.4587 P.3       1 <0>         2.1358
     17 O1         -1.9339   -0.5371   -2.6850 O.2       1 <0>        -1.1121
     18 O2         -4.0951   -0.8887   -1.4295 O.3       1 <0>        -1.1398
     19 O3         -2.8870    1.4464   -1.4486 O.3       1 <0>        -1.1427
     20 Br1        -0.1076   -1.1596    2.6002 Br        1 <0>        -0.0512
     21 H1         -6.2964    1.5480    5.5623 H         1 <0>         0.1269
     22 H2         -4.0481    0.6384    5.7174 H         1 <0>         0.1318
     23 H3         -2.0287   -0.2484    4.6073 H         1 <0>         0.1353
     24 H4         -4.1633    0.3817    0.1797 H         1 <0>         0.1974
     25 H5         -6.1924    1.2715    1.2835 H         1 <0>         0.1522
@<TRIPOS>BOND
     1    1   10 ar
     2    1    2 ar
     3    1   21 1
     4    2    3 ar
     5    2   22 1
     6    3    8 ar
     7    3    4 ar
     8    4    5 ar
     9    4   23 1
    10    5    6 ar
    11    5   20 1
    12    6    7 ar
    13    6   13 1
    14    7    8 ar
    15    7   24 1
    16    8    9 ar
    17    9   10 ar
    18    9   25 1
    19   10   11 1
    20   11   12 3
    21   13   14 1
    22   13   15 1
    23   13   16 1
    24   16   17 2
    25   16   18 1
    26   16   19 1
@<TRIPOS>MOLECULE
ZINC13558220
   78    82     0     0     0
SMALL
USER_CHARGES

@<TRIPOS>ATOM
      1 C1          0.1698    1.4507   -0.0449 C.3       1 <0>        -0.1556
      2 C2          0.1997   -0.0730   -0.0541 C.3       1 <0>        -0.0380
      3 C3         -1.2394   -0.5812    0.1716 C.3       1 <0>        -0.1101
      4 C4         -1.7762   -0.0340    1.4916 C.3       1 <0>        -0.1673
      5 C5         -0.8528   -0.4311    2.6148 C.2       1 <0>         0.3719
      6 O1         -1.3203   -0.8355    3.6631 O.2       1 <0>        -0.4681
      7 C6          0.6462   -0.3302    2.4625 C.3       1 <0>        -0.0918
      8 C7          1.0866   -0.6389    1.0452 C.3       1 <0>        -0.0590
      9 H1          1.0502   -1.7504    0.9324 H         1 <0>         0.0646
     10 C8          2.5399   -0.2365    0.7924 C.3       1 <0>        -0.1132
     11 C9          2.9947   -0.9563   -0.4873 C.3       1 <0>        -0.1122
     12 C10         2.1555   -0.5045   -1.6779 C.3       1 <0>        -0.0261
     13 C11         0.6628   -0.6224   -1.4052 C.3       1 <0>        -0.0556
     14 H2          0.3915   -1.6982   -1.4027 H         1 <0>         0.0612
     15 C12        -0.1172    0.0259   -2.5502 C.3       1 <0>        -0.0734
     16 C13         0.3840   -0.4974   -3.8650 C.2       1 <0>        -0.1741
     17 C14         1.5420   -1.0768   -4.0356 C.2       1 <0>        -0.0475
     18 C15         2.5040   -1.3465   -2.9156 C.3       1 <0>         0.0081
     19 C16         3.9499   -1.1241   -3.3364 C.3       1 <0>        -0.0991
     20 C17         4.2390   -1.7144   -4.7181 C.3       1 <0>        -0.0862
     21 C18         3.3131   -1.1054   -5.7659 C.3       1 <0>        -0.1131
     22 C19         1.8714   -1.5067   -5.4558 C.3       1 <0>        -0.0183
     23 H3          1.2005   -0.9641   -6.1394 H         1 <0>         0.0689
     24 C20         1.6710   -3.0044   -5.6242 C.3       1 <0>        -0.0992
     25 C21         2.0422   -3.4527   -7.0389 C.3       1 <0>        -0.0625
     26 C22         3.4873   -3.0654   -7.3422 C.3       1 <0>        -0.1012
     27 C23         3.7033   -1.5687   -7.1671 C.3       1 <0>        -0.0920
     28 C24         1.9156   -4.9822   -7.1159 C.3       1 <0>        -0.1400
     29 C25         1.0942   -2.8310   -8.0618 C.3       1 <0>        -0.1396
     30 C26         3.4211    0.4017   -5.7303 C.2       1 <0>         0.5075
     31 O2          4.4938    0.9411   -5.9420 O.co2     1 <0>        -0.7085
     32 O3          2.4356    1.0780   -5.4899 O.co2     1 <0>        -0.6828
     33 C27         2.3577   -2.8239   -2.5259 C.3       1 <0>        -0.1520
     34 C28         2.5175    0.9539   -2.0039 C.3       1 <0>        -0.1528
     35 C29         1.1272    1.0389    2.9459 C.3       1 <0>        -0.1394
     36 C30         1.2623   -1.3926    3.4048 C.3       1 <0>        -0.1389
     37 H4          1.1901    1.8342   -0.0517 H         1 <0>         0.0689
     38 H5         -0.3589    1.8091   -0.9281 H         1 <0>         0.0643
     39 H6         -0.3431    1.7987    0.8517 H         1 <0>         0.0522
     40 H7         -1.8685   -0.2406   -0.6487 H         1 <0>         0.0790
     41 H8         -1.2297   -1.6705    0.2002 H         1 <0>         0.0645
     42 H9         -1.8964    1.0452    1.4553 H         1 <0>         0.1034
     43 H10        -2.7685   -0.4718    1.6775 H         1 <0>         0.0822
     44 H11         2.6530    0.8316    0.6784 H         1 <0>         0.0722
     45 H12         3.1712   -0.5832    1.6141 H         1 <0>         0.0574
     46 H13         4.0445   -0.7130   -0.6664 H         1 <0>         0.0616
     47 H14         2.9051   -2.0231   -0.2974 H         1 <0>         0.0627
     48 H15        -1.1773   -0.2410   -2.4555 H         1 <0>         0.0525
     49 H16        -0.0360    1.1076   -2.5482 H         1 <0>         0.0749
     50 H17        -0.2556   -0.3917   -4.7311 H         1 <0>         0.0908
     51 H18         4.2550   -0.0873   -3.3202 H         1 <0>         0.0748
     52 H19         4.5989   -1.6519   -2.6131 H         1 <0>         0.0379
     53 H20         5.2766   -1.4893   -4.9873 H         1 <0>         0.0521
     54 H21         4.1165   -2.7949   -4.6958 H         1 <0>         0.0450
     55 H22         2.3086   -3.5559   -4.9307 H         1 <0>         0.0619
     56 H23         0.6287   -3.2644   -5.4267 H         1 <0>         0.0497
     57 H24         4.1577   -3.6124   -6.6738 H         1 <0>         0.0546
     58 H25         3.7259   -3.3477   -8.3735 H         1 <0>         0.0481
     59 H26         3.1217   -1.0144   -7.9055 H         1 <0>         0.0504
     60 H27         4.7618   -1.3367   -7.3296 H         1 <0>         0.0569
     61 H28         0.8897   -5.2737   -6.8909 H         1 <0>         0.0491
     62 H29         2.1771   -5.3184   -8.1192 H         1 <0>         0.0486
     63 H30         2.5903   -5.4395   -6.3921 H         1 <0>         0.0495
     64 H31         1.1607   -1.7445   -8.0055 H         1 <0>         0.0623
     65 H32         1.3729   -3.1607   -9.0627 H         1 <0>         0.0465
     66 H33         0.0724   -3.1441   -7.8475 H         1 <0>         0.0479
     67 H34         1.3092   -3.0447   -2.3256 H         1 <0>         0.0499
     68 H35         2.7115   -3.4521   -3.3434 H         1 <0>         0.0582
     69 H36         2.9484   -3.0242   -1.6320 H         1 <0>         0.0539
     70 H37         3.5598    1.0079   -2.3183 H         1 <0>         0.0547
     71 H38         1.8764    1.3165   -2.8073 H         1 <0>         0.0772
     72 H39         2.3731    1.5710   -1.1171 H         1 <0>         0.0465
     73 H40         0.8630    1.1671    3.9955 H         1 <0>         0.0556
     74 H41         2.2094    1.1044    2.8330 H         1 <0>         0.0727
     75 H42         0.6521    1.8209    2.3535 H         1 <0>         0.0665
     76 H43         0.9092   -2.3827    3.1162 H         1 <0>         0.0530
     77 H44         2.3491   -1.3583    3.3297 H         1 <0>         0.0629
     78 H45         0.9623   -1.1850    4.4319 H         1 <0>         0.0622
@<TRIPOS>BOND
     1    1    2 1
     2    1   37 1
     3    1   38 1
     4    1   39 1
     5    2    8 1
     6    2   13 1
     7    2    3 1
     8    3    4 1
     9    3   40 1
    10    3   41 1
    11    4    5 1
    12    4   42 1
    13    4   43 1
    14    5    6 2
    15    5    7 1
    16    7    8 1
    17    7   35 1
    18    7   36 1
    19    8    9 1
    20    8   10 1
    21   10   11 1
    22   10   44 1
    23   10   45 1
    24   11   12 1
    25   11   46 1
    26   11   47 1
    27   12   18 1
    28   12   13 1
    29   12   34 1
    30   13   14 1
    31   13   15 1
    32   15   16 1
    33   15   48 1
    34   15   49 1
    35   16   17 2
    36   16   50 1
    37   17   22 1
    38   17   18 1
    39   18   19 1
    40   18   33 1
    41   19   20 1
    42   19   51 1
    43   19   52 1
    44   20   21 1
    45   20   53 1
    46   20   54 1
    47   21   27 1
    48   21   22 1
    49   21   30 1
    50   22   23 1
    51   22   24 1
    52   24   25 1
    53   24   55 1
    54   24   56 1
    55   25   26 1
    56   25   28 1
    57   25   29 1
    58   26   27 1
    59   26   57 1
    60   26   58 1
    61   27   59 1
    62   27   60 1
    63   28   61 1
    64   28   62 1
    65   28   63 1
    66   29   64 1
    67   29   65 1
    68   29   66 1
    69   30   31 2
    70   30   32 1
    71   33   67 1
    72   33   68 1
    73   33   69 1
    74   34   70 1
    75   34   71 1
    76   34   72 1
    77   35   73 1
    78   35   74 1
    79   35   75 1
    80   36   76 1
    81   36   77 1
    82   36   78 1
@<TRIPOS>MOLECULE
ZINC38545497
   80    84     0     0     0
SMALL
USER_CHARGES

@<TRIPOS>ATOM
      1 C1          0.9093    1.5058    0.1038 C.3       1 <0>        -0.1547
      2 C2          0.8376   -0.0172    0.1230 C.3       1 <0>        -0.0329
      3 C3         -0.5809   -0.4170    0.5681 C.3       1 <0>        -0.1071
      4 C4         -0.8309    0.0775    1.9888 C.3       1 <0>        -0.1479
      5 C5          0.1425   -0.5743    2.9612 C.3       1 <0>         0.1205
      6 H1         -0.0112   -0.1422    3.9582 H         1 <0>         0.0431
      7 C6          1.6013   -0.3627    2.5579 C.3       1 <0>        -0.0368
      8 C7          1.8380   -0.6339    1.0909 C.3       1 <0>        -0.0560
      9 H2          1.7448   -1.7422    0.9566 H         1 <0>         0.0626
     10 C8          3.2568   -0.2876    0.6377 C.3       1 <0>        -0.1158
     11 C9          3.4983   -1.0374   -0.6844 C.3       1 <0>        -0.1108
     12 C10         2.5149   -0.5713   -1.7515 C.3       1 <0>        -0.0249
     13 C11         1.0728   -0.6083   -1.2680 C.3       1 <0>        -0.0546
     14 H3          0.7493   -1.6685   -1.1988 H         1 <0>         0.0592
     15 C12         0.1705    0.0609   -2.3047 C.3       1 <0>        -0.0721
     16 C13         0.4596   -0.4999   -3.6674 C.2       1 <0>        -0.1759
     17 C14         1.5525   -1.1404   -3.9873 C.2       1 <0>        -0.0463
     18 C15         2.6407   -1.4545   -3.0039 C.3       1 <0>         0.0076
     19 C16         4.0274   -1.3301   -3.6179 C.3       1 <0>        -0.0993
     20 C17         4.0880   -1.9536   -5.0140 C.3       1 <0>        -0.0859
     21 C18         3.0697   -1.2959   -5.9405 C.3       1 <0>        -0.1129
     22 C19         1.6606   -1.5979   -5.4326 C.3       1 <0>        -0.0180
     23 H4          0.9406   -1.0155   -6.0281 H         1 <0>         0.0685
     24 C20         1.3378   -3.0799   -5.5481 C.3       1 <0>        -0.0995
     25 C21         1.4884   -3.5667   -6.9911 C.3       1 <0>        -0.0624
     26 C22         2.9055   -3.2809   -7.4834 C.3       1 <0>        -0.1011
     27 C23         3.2385   -1.7991   -7.3726 C.3       1 <0>        -0.0915
     28 C24         0.4579   -2.8889   -7.8910 C.3       1 <0>        -0.1393
     29 C25         1.2511   -5.0838   -7.0202 C.3       1 <0>        -0.1396
     30 C26         3.2779    0.2009   -5.9489 C.2       1 <0>         0.5073
     31 O1          4.3446    0.6660   -6.3127 O.co2     1 <0>        -0.7088
     32 O2          2.3792    0.9434   -5.5918 O.co2     1 <0>        -0.6828
     33 C27         2.4611   -2.9134   -2.5632 C.3       1 <0>        -0.1506
     34 C28         2.8955    0.8582   -2.1684 C.3       1 <0>        -0.1522
     35 C29         2.4278   -1.3884    3.3760 C.3       1 <0>        -0.1391
     36 C30         2.0680    1.0281    2.9872 C.3       1 <0>        -0.1458
     37 O3         -0.1277   -1.9779    3.0385 O.3       1 <0>        -0.5619
     38 H5          1.9437    1.8191   -0.0374 H         1 <0>         0.0648
     39 H6          0.2990    1.8880   -0.7145 H         1 <0>         0.0586
     40 H7          0.5364    1.8991    1.0495 H         1 <0>         0.0523
     41 H8         -1.3020    0.0350   -0.1108 H         1 <0>         0.0618
     42 H9         -0.6704   -1.5013    0.5298 H         1 <0>         0.0644
     43 H10        -0.7632    1.1605    2.0462 H         1 <0>         0.0736
     44 H11        -1.8557   -0.2009    2.2773 H         1 <0>         0.0536
     45 H12         3.3903    0.7741    0.4956 H         1 <0>         0.0677
     46 H13         3.9851   -0.6500    1.3660 H         1 <0>         0.0548
     47 H14         4.5214   -0.8344   -1.0133 H         1 <0>         0.0584
     48 H15         3.4009   -2.0960   -0.4667 H         1 <0>         0.0613
     49 H16        -0.8766   -0.1593   -2.0607 H         1 <0>         0.0501
     50 H17         0.2944    1.1377   -2.3340 H         1 <0>         0.0728
     51 H18        -0.2871   -0.3680   -4.4388 H         1 <0>         0.0894
     52 H19         4.3965   -0.3146   -3.6634 H         1 <0>         0.0743
     53 H20         4.7345   -1.8913   -2.9760 H         1 <0>         0.0378
     54 H21         5.0910   -1.8025   -5.4252 H         1 <0>         0.0520
     55 H22         3.8958   -3.0240   -4.9515 H         1 <0>         0.0448
     56 H23         2.0163   -3.6697   -4.9279 H         1 <0>         0.0618
     57 H24         0.3132   -3.2603   -5.2139 H         1 <0>         0.0490
     58 H25         3.6185   -3.8602   -6.8907 H         1 <0>         0.0547
     59 H26         2.9926   -3.5965   -8.5272 H         1 <0>         0.0479
     60 H27         2.6005   -1.2170   -8.0386 H         1 <0>         0.0503
     61 H28         4.2783   -1.6395   -7.6804 H         1 <0>         0.0569
     62 H29         0.6053   -1.8093   -7.8631 H         1 <0>         0.0623
     63 H30         0.5781   -3.2458   -8.9139 H         1 <0>         0.0465
     64 H31        -0.5455   -3.1278   -7.5383 H         1 <0>         0.0478
     65 H32         0.2468   -5.3015   -6.6569 H         1 <0>         0.0492
     66 H33         1.3547   -5.4482   -8.0423 H         1 <0>         0.0484
     67 H34         1.9835   -5.5784   -6.3822 H         1 <0>         0.0497
     68 H35         1.4393   -3.0647   -2.2152 H         1 <0>         0.0500
     69 H36         2.6593   -3.5748   -3.4067 H         1 <0>         0.0570
     70 H37         3.1572   -3.1370   -1.7548 H         1 <0>         0.0535
     71 H38         3.8830    0.8514   -2.6297 H         1 <0>         0.0537
     72 H39         2.1635    1.2354   -2.8825 H         1 <0>         0.0764
     73 H40         2.9098    1.5016   -1.2887 H         1 <0>         0.0456
     74 H41         2.0961   -2.3980    3.1339 H         1 <0>         0.0643
     75 H42         3.4841   -1.2838    3.1284 H         1 <0>         0.0505
     76 H43         2.2841   -1.2042    4.4406 H         1 <0>         0.0454
     77 H44         2.0879    1.0848    4.0755 H         1 <0>         0.0499
     78 H45         3.0682    1.2127    2.5953 H         1 <0>         0.0646
     79 H46         1.3806    1.7785    2.5968 H         1 <0>         0.0600
     80 H47        -1.0205   -2.1904    3.3433 H         1 <0>         0.3697
@<TRIPOS>BOND
     1    1    2 1
     2    1   38 1
     3    1   39 1
     4    1   40 1
     5    2    8 1
     6    2   13 1
     7    2    3 1
     8    3    4 1
     9    3   41 1
    10    3   42 1
    11    4    5 1
    12    4   43 1
    13    4   44 1
    14    5    6 1
    15    5    7 1
    16    5   37 1
    17    7    8 1
    18    7   35 1
    19    7   36 1
    20    8    9 1
    21    8   10 1
    22   10   11 1
    23   10   45 1
    24   10   46 1
    25   11   12 1
    26   11   47 1
    27   11   48 1
    28   12   18 1
    29   12   13 1
    30   12   34 1
    31   13   14 1
    32   13   15 1
    33   15   16 1
    34   15   49 1
    35   15   50 1
    36   16   17 2
    37   16   51 1
    38   17   22 1
    39   17   18 1
    40   18   19 1
    41   18   33 1
    42   19   20 1
    43   19   52 1
    44   19   53 1
    45   20   21 1
    46   20   54 1
    47   20   55 1
    48   21   27 1
    49   21   22 1
    50   21   30 1
    51   22   23 1
    52   22   24 1
    53   24   25 1
    54   24   56 1
    55   24   57 1
    56   25   26 1
    57   25   28 1
    58   25   29 1
    59   26   27 1
    60   26   58 1
    61   26   59 1
    62   27   60 1
    63   27   61 1
    64   28   62 1
    65   28   63 1
    66   28   64 1
    67   29   65 1
    68   29   66 1
    69   29   67 1
    70   30   31 2
    71   30   32 1
    72   33   68 1
    73   33   69 1
    74   33   70 1
    75   34   71 1
    76   34   72 1
    77   34   73 1
    78   35   74 1
    79   35   75 1
    80   35   76 1
    81   36   77 1
    82   36   78 1
    83   36   79 1
    84   37   80 1
@<TRIPOS>MOLECULE
ZINC45262037
   80    85     0     0     0
SMALL
USER_CHARGES

@<TRIPOS>ATOM
      1 C1         -0.3015    1.5044    0.6245 C.3       1 <0>        -0.1517
      2 C2         -0.2305   -0.0266    0.5027 C.3       1 <0>        -0.0256
      3 C3          0.0195   -0.3895   -0.9573 C.3       1 <0>        -0.1118
      4 C4          1.4317    0.0417   -1.3775 C.3       1 <0>        -0.1137
      5 C5          2.4362   -0.7287   -0.5196 C.3       1 <0>        -0.0553
      6 H1          2.1449   -1.8037   -0.5776 H         1 <0>         0.0673
      7 C6          2.2919   -0.3203    0.9432 C.3       1 <0>        -0.0318
      8 C7          0.8591   -0.5640    1.4146 C.3       1 <0>        -0.0554
      9 H2          0.7477   -1.6684    1.4711 H         1 <0>         0.0605
     10 C8          0.6551   -0.0344    2.8339 C.3       1 <0>        -0.0725
     11 C9         -0.7780   -0.1865    3.2479 C.2       1 <0>        -0.1733
     12 C10        -1.7718   -0.4217    2.4314 C.2       1 <0>        -0.0498
     13 C11        -1.5894   -0.5846    0.9528 C.3       1 <0>         0.0086
     14 C12        -2.7241    0.0434    0.1547 C.3       1 <0>        -0.0987
     15 C13        -4.0890   -0.2534    0.7748 C.3       1 <0>        -0.0851
     16 C14        -4.1489    0.2458    2.2144 C.3       1 <0>        -0.1134
     17 C15        -3.1467   -0.5270    3.0670 C.3       1 <0>        -0.0160
     18 H3         -3.0998   -0.0642    4.0643 H         1 <0>         0.0695
     19 C16        -3.5492   -1.9890    3.2013 C.3       1 <0>        -0.0992
     20 C17        -4.9559   -2.1271    3.7843 C.3       1 <0>        -0.0624
     21 C18        -5.9522   -1.3709    2.9083 C.3       1 <0>        -0.1013
     22 C19        -5.5613    0.0948    2.7756 C.3       1 <0>        -0.0917
     23 C20        -5.3381   -3.6147    3.7967 C.3       1 <0>        -0.1397
     24 C21        -4.9930   -1.5996    5.2169 C.3       1 <0>        -0.1397
     25 C22        -3.7949    1.7156    2.2553 C.2       1 <0>         0.5069
     26 O1         -4.4680    2.5222    1.6367 O.co2     1 <0>        -0.7087
     27 O2         -2.8364    2.0938    2.9070 O.co2     1 <0>        -0.6829
     28 C23        -1.5962   -2.0894    0.6484 C.3       1 <0>        -0.1511
     29 C24         3.1911   -1.2527    1.7952 C.3       1 <0>        -0.0393
     30 C25         4.5988   -1.1022    1.2805 C.2       1 <0>        -0.2293
     31 C26         5.7972   -1.2218    1.9757 C.2       1 <0>         0.0568
     32 N1          6.7763   -1.0030    1.1322 N.2       1 <0>        -0.3050
     33 N2          6.2203   -0.7344   -0.1285 N.pl3     1 <0>        -0.4710
     34 H4          6.7179   -0.5338   -0.9356 H         1 <0>         0.4323
     35 C27         4.8832   -0.8055   -0.0129 C.2       1 <0>         0.1064
     36 C28         3.8438   -0.6108   -1.0860 C.3       1 <0>         0.0149
     37 C29         4.0460   -1.7265   -2.1331 C.3       1 <0>        -0.1443
     38 C30         4.0774    0.7312   -1.7821 C.3       1 <0>        -0.1469
     39 C31         2.7517    1.1142    1.1770 C.3       1 <0>        -0.1460
     40 H5          0.6356    1.9402    0.2780 H         1 <0>         0.0459
     41 H6         -1.1239    1.8796    0.0154 H         1 <0>         0.0517
     42 H7         -0.4665    1.7787    1.6664 H         1 <0>         0.0786
     43 H8         -0.0481   -1.4609   -1.1319 H         1 <0>         0.0619
     44 H9         -0.7048    0.1223   -1.5965 H         1 <0>         0.0619
     45 H10         1.5632   -0.2238   -2.4300 H         1 <0>         0.0558
     46 H11         1.5349    1.1122   -1.2581 H         1 <0>         0.0710
     47 H12         1.2781   -0.6174    3.5236 H         1 <0>         0.0539
     48 H13         0.9343    1.0107    2.9265 H         1 <0>         0.0725
     49 H14        -1.0125   -0.0993    4.3007 H         1 <0>         0.0904
     50 H15        -2.6171    1.1114    0.0167 H         1 <0>         0.0734
     51 H16        -2.7157   -0.4042   -0.8574 H         1 <0>         0.0381
     52 H17        -4.8622    0.2562    0.1891 H         1 <0>         0.0520
     53 H18        -4.2866   -1.3242    0.7444 H         1 <0>         0.0440
     54 H19        -3.5485   -2.4746    2.2227 H         1 <0>         0.0609
     55 H20        -2.8391   -2.5073    3.8498 H         1 <0>         0.0495
     56 H21        -5.9843   -1.8324    1.9179 H         1 <0>         0.0546
     57 H22        -6.9493   -1.4428    3.3535 H         1 <0>         0.0479
     58 H23        -5.6194    0.5921    3.7447 H         1 <0>         0.0506
     59 H24        -6.2632    0.5939    2.0972 H         1 <0>         0.0569
     60 H25        -4.6265   -4.1675    4.4100 H         1 <0>         0.0492
     61 H26        -6.3400   -3.7290    4.2104 H         1 <0>         0.0484
     62 H27        -5.3189   -4.0033    2.7785 H         1 <0>         0.0495
     63 H28        -4.7077   -0.5476    5.2242 H         1 <0>         0.0624
     64 H29        -6.0014   -1.7053    5.6170 H         1 <0>         0.0463
     65 H30        -4.2965   -2.1693    5.8320 H         1 <0>         0.0479
     66 H31        -0.8566   -2.5898    1.2735 H         1 <0>         0.0504
     67 H32        -2.5848   -2.4979    0.8574 H         1 <0>         0.0569
     68 H33        -1.3518   -2.2487   -0.4019 H         1 <0>         0.0531
     69 H34         3.1430   -0.9440    2.8344 H         1 <0>         0.0745
     70 H35         2.8579   -2.2786    1.6786 H         1 <0>         0.0667
     71 H36         5.9046   -1.4516    3.0261 H         1 <0>         0.1799
     72 H37         3.3131   -1.6123   -2.9318 H         1 <0>         0.0664
     73 H38         5.0509   -1.6563   -2.5493 H         1 <0>         0.0497
     74 H39         3.9167   -2.6987   -1.6576 H         1 <0>         0.0590
     75 H40         3.9316    1.5413   -1.0676 H         1 <0>         0.0666
     76 H41         5.0956    0.7672   -2.1694 H         1 <0>         0.0470
     77 H42         3.3714    0.8413   -2.6053 H         1 <0>         0.0706
     78 H43         2.2440    1.7772    0.4765 H         1 <0>         0.0615
     79 H44         2.5110    1.4111    2.1978 H         1 <0>         0.0604
     80 H45         3.8289    1.1800    1.0239 H         1 <0>         0.0512
@<TRIPOS>BOND
     1    1    2 1
     2    1   40 1
     3    1   41 1
     4    1   42 1
     5    2    8 1
     6    2   13 1
     7    2    3 1
     8    3    4 1
     9    3   43 1
    10    3   44 1
    11    4    5 1
    12    4   45 1
    13    4   46 1
    14    5    6 1
    15    5   36 1
    16    5    7 1
    17    7    8 1
    18    7   29 1
    19    7   39 1
    20    8    9 1
    21    8   10 1
    22   10   11 1
    23   10   47 1
    24   10   48 1
    25   11   12 2
    26   11   49 1
    27   12   17 1
    28   12   13 1
    29   13   14 1
    30   13   28 1
    31   14   15 1
    32   14   50 1
    33   14   51 1
    34   15   16 1
    35   15   52 1
    36   15   53 1
    37   16   22 1
    38   16   17 1
    39   16   25 1
    40   17   18 1
    41   17   19 1
    42   19   20 1
    43   19   54 1
    44   19   55 1
    45   20   21 1
    46   20   23 1
    47   20   24 1
    48   21   22 1
    49   21   56 1
    50   21   57 1
    51   22   58 1
    52   22   59 1
    53   23   60 1
    54   23   61 1
    55   23   62 1
    56   24   63 1
    57   24   64 1
    58   24   65 1
    59   25   26 2
    60   25   27 1
    61   28   66 1
    62   28   67 1
    63   28   68 1
    64   29   30 1
    65   29   69 1
    66   29   70 1
    67   30   35 2
    68   30   31 1
    69   31   32 2
    70   31   71 1
    71   32   33 1
    72   33   34 1
    73   33   35 1
    74   35   36 1
    75   36   37 1
    76   36   38 1
    77   37   72 1
    78   37   73 1
    79   37   74 1
    80   38   75 1
    81   38   76 1
    82   38   77 1
    83   39   78 1
    84   39   79 1
    85   39   80 1
@<TRIPOS>MOLECULE
ZINC45262037
   81    86     0     0     0
SMALL
USER_CHARGES

@<TRIPOS>ATOM
      1 C1         -0.2673    1.5034    0.6259 C.3       1 <0>        -0.1538
      2 C2         -0.2018   -0.0280    0.5046 C.3       1 <0>        -0.0270
      3 C3          0.0469   -0.3906   -0.9552 C.3       1 <0>        -0.1146
      4 C4          1.4643    0.0223   -1.3744 C.3       1 <0>        -0.1145
      5 C5          2.4616   -0.7496   -0.5103 C.3       1 <0>        -0.0668
      6 H1          2.1654   -1.8225   -0.5629 H         1 <0>         0.0842
      7 C6          2.3188   -0.3337    0.9508 C.3       1 <0>        -0.0353
      8 C7          0.8836   -0.5685    1.4201 C.3       1 <0>        -0.0571
      9 H2          0.7672   -1.6724    1.4802 H         1 <0>         0.0674
     10 C8          0.6760   -0.0340    2.8368 C.3       1 <0>        -0.0700
     11 C9         -0.7606   -0.1679    3.2451 C.2       1 <0>        -0.1844
     12 C10        -1.7544   -0.4017    2.4273 C.2       1 <0>        -0.0398
     13 C11        -1.5646   -0.5802    0.9520 C.3       1 <0>         0.0073
     14 C12        -2.6910    0.0415    0.1388 C.3       1 <0>        -0.0997
     15 C13        -4.0609   -0.2418    0.7546 C.3       1 <0>        -0.0873
     16 C14        -4.1279    0.2764    2.1870 C.3       1 <0>        -0.1134
     17 C15        -3.1342   -0.4878    3.0562 C.3       1 <0>        -0.0176
     18 H3         -3.0893   -0.0096    4.0468 H         1 <0>         0.0715
     19 C16        -3.5444   -1.9456    3.2140 C.3       1 <0>        -0.0976
     20 C17        -4.9574   -2.0691    3.7844 C.3       1 <0>        -0.0621
     21 C18        -5.9430   -1.3245    2.8866 C.3       1 <0>        -0.1028
     22 C19        -5.5468    0.1388    2.7364 C.3       1 <0>        -0.0931
     23 C20        -5.3452   -3.5553    3.8180 C.3       1 <0>        -0.1405
     24 C21        -5.0078   -1.5175    5.2080 C.3       1 <0>        -0.1405
     25 C22        -3.7699    1.7460    2.2107 C.2       1 <0>         0.5066
     26 O1         -4.4370    2.5462    1.5775 O.co2     1 <0>        -0.7042
     27 O2         -2.8142    2.1301    2.8631 O.co2     1 <0>        -0.6865
     28 C23        -1.5710   -2.0882    0.6643 C.3       1 <0>        -0.1518
     29 C24         3.2133   -1.2679    1.8063 C.3       1 <0>        -0.0560
     30 C25         4.6222   -1.1242    1.2933 C.2       1 <0>        -0.1946
     31 C26         5.8200   -1.2418    1.9900 C.2       1 <0>         0.2040
     32 N1          6.8011   -1.0301    1.1459 N.pl3     1 <0>        -0.3864
     33 N2          6.2467   -0.7715   -0.1172 N.pl3     1 <0>        -0.4208
     34 H4          6.7459   -0.5817   -0.9271 H         1 <0>         0.4692
     35 C27         4.9094   -0.8362   -0.0017 C.2       1 <0>         0.2383
     36 C28         3.8705   -0.6430   -1.0756 C.3       1 <0>         0.0054
     37 C29         4.0679   -1.7660   -2.1157 C.3       1 <0>        -0.1535
     38 C30         4.1128    0.6927   -1.7805 C.3       1 <0>        -0.1578
     39 C31         2.7847    1.0994    1.1787 C.3       1 <0>        -0.1542
     40 H5          0.6721    1.9357    0.2813 H         1 <0>         0.0427
     41 H6         -1.0870    1.8816    0.0151 H         1 <0>         0.0573
     42 H7         -0.4334    1.7786    1.6675 H         1 <0>         0.0819
     43 H8         -0.0407   -1.4600   -1.1360 H         1 <0>         0.0663
     44 H9         -0.6682    0.1365   -1.5934 H         1 <0>         0.0699
     45 H10         1.5953   -0.2549   -2.4243 H         1 <0>         0.0636
     46 H11         1.5778    1.0919   -1.2655 H         1 <0>         0.0765
     47 H12         1.2883   -0.6228    3.5322 H         1 <0>         0.0525
     48 H13         0.9683    1.0081    2.9298 H         1 <0>         0.0732
     49 H14        -1.0002   -0.0653    4.2966 H         1 <0>         0.0942
     50 H15        -2.5779    1.1069   -0.0146 H         1 <0>         0.0745
     51 H16        -2.6791   -0.4210   -0.8665 H         1 <0>         0.0396
     52 H17        -4.8281    0.2630    0.1576 H         1 <0>         0.0550
     53 H18        -4.2630   -1.3117    0.7375 H         1 <0>         0.0455
     54 H19        -3.5326   -2.4504    2.2460 H         1 <0>         0.0600
     55 H20        -2.8437   -2.4536    3.8817 H         1 <0>         0.0488
     56 H21        -5.9661   -1.8010    1.9031 H         1 <0>         0.0551
     57 H22        -6.9446   -1.3867    3.3227 H         1 <0>         0.0504
     58 H23        -5.6163    0.6530    3.6947 H         1 <0>         0.0523
     59 H24        -6.2390    0.6267    2.0395 H         1 <0>         0.0585
     60 H25        -4.6421   -4.1001    4.4481 H         1 <0>         0.0491
     61 H26        -6.3518   -3.6590    4.2231 H         1 <0>         0.0504
     62 H27        -5.3168   -3.9612    2.8068 H         1 <0>         0.0496
     63 H28        -4.7188   -0.4665    5.2008 H         1 <0>         0.0619
     64 H29        -6.0207   -1.6131    5.5991 H         1 <0>         0.0484
     65 H30        -4.3198   -2.0791    5.8399 H         1 <0>         0.0478
     66 H31        -0.8342   -2.5821    1.2977 H         1 <0>         0.0494
     67 H32        -2.5607   -2.4938    0.8740 H         1 <0>         0.0610
     68 H33        -1.3227   -2.2592   -0.3832 H         1 <0>         0.0536
     69 H34         3.1638   -0.9602    2.8458 H         1 <0>         0.1010
     70 H35         2.8772   -2.2930    1.6876 H         1 <0>         0.0964
     71 H36         5.9273   -1.4657    3.0411 H         1 <0>         0.2400
     72 H37         3.3367   -1.6527   -2.9160 H         1 <0>         0.0898
     73 H38         5.0738   -1.7039   -2.5310 H         1 <0>         0.0574
     74 H39         3.9328   -2.7347   -1.6345 H         1 <0>         0.0700
     75 H40         3.9705    1.5086   -1.0719 H         1 <0>         0.0768
     76 H41         5.1318    0.7202   -2.1665 H         1 <0>         0.0542
     77 H42         3.4088    0.8011   -2.6056 H         1 <0>         0.0933
     78 H43         2.2796    1.7617    0.4756 H         1 <0>         0.0757
     79 H44         2.5455    1.4014    2.1983 H         1 <0>         0.0733
     80 H45         3.8621    1.1599    1.0250 H         1 <0>         0.0384
     81 H46         7.7471   -1.0475    1.3583 H         1 <0>         0.4747
@<TRIPOS>BOND
     1    1    2 1
     2    1   40 1
     3    1   41 1
     4    1   42 1
     5    2    8 1
     6    2   13 1
     7    2    3 1
     8    3    4 1
     9    3   43 1
    10    3   44 1
    11    4    5 1
    12    4   45 1
    13    4   46 1
    14    5    6 1
    15    5   36 1
    16    5    7 1
    17    7    8 1
    18    7   29 1
    19    7   39 1
    20    8    9 1
    21    8   10 1
    22   10   11 1
    23   10   47 1
    24   10   48 1
    25   11   12 2
    26   11   49 1
    27   12   17 1
    28   12   13 1
    29   13   14 1
    30   13   28 1
    31   14   15 1
    32   14   50 1
    33   14   51 1
    34   15   16 1
    35   15   52 1
    36   15   53 1
    37   16   22 1
    38   16   17 1
    39   16   25 1
    40   17   18 1
    41   17   19 1
    42   19   20 1
    43   19   54 1
    44   19   55 1
    45   20   21 1
    46   20   23 1
    47   20   24 1
    48   21   22 1
    49   21   56 1
    50   21   57 1
    51   22   58 1
    52   22   59 1
    53   23   60 1
    54   23   61 1
    55   23   62 1
    56   24   63 1
    57   24   64 1
    58   24   65 1
    59   25   26 2
    60   25   27 1
    61   28   66 1
    62   28   67 1
    63   28   68 1
    64   29   30 1
    65   29   69 1
    66   29   70 1
    67   30   35 2
    68   30   31 1
    69   31   32 2
    70   31   71 1
    71   32   33 1
    72   32   81 1
    73   33   34 1
    74   33   35 1
    75   35   36 1
    76   36   37 1
    77   36   38 1
    78   37   72 1
    79   37   73 1
    80   37   74 1
    81   38   75 1
    82   38   76 1
    83   38   77 1
    84   39   78 1
    85   39   79 1
    86   39   80 1
@<TRIPOS>MOLECULE
ZINC35570622
   79    84     0     0     0
SMALL
USER_CHARGES

@<TRIPOS>ATOM
      1 C1         -0.2789    1.5058    0.6247 C.3       1 <0>        -0.1526
      2 C2         -0.2120   -0.0264    0.5032 C.3       1 <0>        -0.0261
      3 C3          0.0344   -0.3887   -0.9564 C.3       1 <0>        -0.1118
      4 C4          1.4510    0.0209   -1.3801 C.3       1 <0>        -0.1121
      5 C5          2.4523   -0.7471   -0.5170 C.3       1 <0>        -0.0603
      6 H1          2.1612   -1.8215   -0.5684 H         1 <0>         0.0716
      7 C6          2.3106   -0.3300    0.9436 C.3       1 <0>        -0.0339
      8 C7          0.8766   -0.5643    1.4171 C.3       1 <0>        -0.0552
      9 H2          0.7579   -1.6671    1.4836 H         1 <0>         0.0623
     10 C8          0.6739   -0.0203    2.8313 C.3       1 <0>        -0.0726
     11 C9         -0.7594   -0.1643    3.2483 C.2       1 <0>        -0.1746
     12 C10        -1.7552   -0.4029    2.4349 C.2       1 <0>        -0.0484
     13 C11        -1.5723   -0.5787    0.9578 C.3       1 <0>         0.0084
     14 C12        -2.7047    0.0455    0.1547 C.3       1 <0>        -0.0987
     15 C13        -4.0706   -0.2409    0.7779 C.3       1 <0>        -0.0854
     16 C14        -4.1310    0.2705    2.2126 C.3       1 <0>        -0.1130
     17 C15        -3.1304   -0.4974    3.0709 C.3       1 <0>        -0.0158
     18 H3         -3.0805   -0.0270    4.0658 H         1 <0>         0.0696
     19 C16        -3.5375   -1.9573    3.2196 C.3       1 <0>        -0.0990
     20 C17        -4.9456   -2.0868    3.8013 C.3       1 <0>        -0.0624
     21 C18        -5.9400   -1.3361    2.9180 C.3       1 <0>        -0.1015
     22 C19        -5.5449    0.1275    2.7716 C.3       1 <0>        -0.0916
     23 C20        -4.9842   -1.5480    5.2294 C.3       1 <0>        -0.1396
     24 C21        -5.3322   -3.5740    3.8247 C.3       1 <0>        -0.1398
     25 C22        -3.7741    1.7404    2.2415 C.2       1 <0>         0.5069
     26 O1         -4.4450    2.5430    1.6153 O.co2     1 <0>        -0.7080
     27 O2         -2.8155    2.1223    2.8910 O.co2     1 <0>        -0.6832
     28 C23        -1.5807   -2.0861    0.6661 C.3       1 <0>        -0.1512
     29 C24         3.2085   -1.2611    1.7982 C.3       1 <0>        -0.0459
     30 C25         4.6157   -1.1248    1.2785 C.2       1 <0>        -0.2504
     31 C26         5.8216   -1.2574    1.9761 C.2       1 <0>         0.0875
     32 N1          6.7970   -1.0492    1.1336 N.2       1 <0>        -0.3322
     33 O3          6.2289   -0.7754   -0.1355 O.3       1 <0>        -0.0780
     34 C27         4.8988   -0.8349   -0.0105 C.2       1 <0>         0.0890
     35 C28         3.8601   -0.6330   -1.0833 C.3       1 <0>         0.0223
     36 C29         4.0582   -1.7482   -2.1315 C.3       1 <0>        -0.1457
     37 C30         4.1042    0.7080   -1.7774 C.3       1 <0>        -0.1478
     38 C31         2.7743    1.1043    1.1703 C.3       1 <0>        -0.1493
     39 H4          0.6602    1.9390    0.2805 H         1 <0>         0.0458
     40 H5         -1.0987    1.8833    0.0136 H         1 <0>         0.0529
     41 H6         -0.4457    1.7807    1.6662 H         1 <0>         0.0794
     42 H7         -0.0595   -1.4575   -1.1412 H         1 <0>         0.0632
     43 H8         -0.6794    0.1421   -1.5935 H         1 <0>         0.0633
     44 H9          1.5806   -0.2586   -2.4297 H         1 <0>         0.0592
     45 H10         1.5657    1.0903   -1.2748 H         1 <0>         0.0726
     46 H11         1.2946   -0.6011    3.5261 H         1 <0>         0.0527
     47 H12         0.9595    1.0241    2.9146 H         1 <0>         0.0734
     48 H13        -0.9923   -0.0675    4.3020 H         1 <0>         0.0911
     49 H14        -2.5936    1.1117    0.0035 H         1 <0>         0.0737
     50 H15        -2.6989   -0.4137   -0.8519 H         1 <0>         0.0386
     51 H16        -4.8413    0.2677    0.1874 H         1 <0>         0.0524
     52 H17        -4.2724   -1.3104    0.7550 H         1 <0>         0.0442
     53 H18        -3.5335   -2.4539    2.2472 H         1 <0>         0.0610
     54 H19        -2.8312   -2.4702    3.8773 H         1 <0>         0.0491
     55 H20        -5.9751   -1.8062    1.9316 H         1 <0>         0.0549
     56 H21        -6.9364   -1.4011    3.3657 H         1 <0>         0.0481
     57 H22        -5.6101    0.6376    3.7328 H         1 <0>         0.0508
     58 H23        -6.2442    0.6186    2.0838 H         1 <0>         0.0567
     59 H24        -4.6960   -0.4968    5.2290 H         1 <0>         0.0623
     60 H25        -5.9936   -1.6479    5.6283 H         1 <0>         0.0466
     61 H26        -4.2904   -2.1147    5.8504 H         1 <0>         0.0478
     62 H27        -4.6233   -4.1240    4.4435 H         1 <0>         0.0491
     63 H28        -6.3352   -3.6822    4.2375 H         1 <0>         0.0486
     64 H29        -5.3124   -3.9705    2.8096 H         1 <0>         0.0496
     65 H30        -0.8415   -2.5820    1.2952 H         1 <0>         0.0502
     66 H31        -2.5697   -2.4918    0.8787 H         1 <0>         0.0575
     67 H32        -1.3367   -2.2545   -0.3829 H         1 <0>         0.0536
     68 H33         3.1658   -0.9472    2.8364 H         1 <0>         0.0806
     69 H34         2.8698   -2.2862    1.6884 H         1 <0>         0.0741
     70 H35         5.9308   -1.4893    3.0256 H         1 <0>         0.1956
     71 H36         3.3254   -1.6307   -2.9299 H         1 <0>         0.0710
     72 H37         5.0632   -1.6810   -2.5480 H         1 <0>         0.0615
     73 H38         3.9258   -2.7205   -1.6570 H         1 <0>         0.0588
     74 H39         3.9631    1.5183   -1.0622 H         1 <0>         0.0661
     75 H40         5.1232    0.7373   -2.1632 H         1 <0>         0.0601
     76 H41         3.4002    0.8240   -2.6015 H         1 <0>         0.0737
     77 H42         2.2675    1.7654    0.4673 H         1 <0>         0.0666
     78 H43         2.5355    1.4065    2.1899 H         1 <0>         0.0636
     79 H44         3.8515    1.1666    1.0157 H         1 <0>         0.0486
@<TRIPOS>BOND
     1    1    2 1
     2    1   39 1
     3    1   40 1
     4    1   41 1
     5    2    8 1
     6    2   13 1
     7    2    3 1
     8    3    4 1
     9    3   42 1
    10    3   43 1
    11    4    5 1
    12    4   44 1
    13    4   45 1
    14    5    6 1
    15    5   35 1
    16    5    7 1
    17    7    8 1
    18    7   29 1
    19    7   38 1
    20    8    9 1
    21    8   10 1
    22   10   11 1
    23   10   46 1
    24   10   47 1
    25   11   12 2
    26   11   48 1
    27   12   17 1
    28   12   13 1
    29   13   14 1
    30   13   28 1
    31   14   15 1
    32   14   49 1
    33   14   50 1
    34   15   16 1
    35   15   51 1
    36   15   52 1
    37   16   22 1
    38   16   17 1
    39   16   25 1
    40   17   18 1
    41   17   19 1
    42   19   20 1
    43   19   53 1
    44   19   54 1
    45   20   21 1
    46   20   23 1
    47   20   24 1
    48   21   22 1
    49   21   55 1
    50   21   56 1
    51   22   57 1
    52   22   58 1
    53   23   59 1
    54   23   60 1
    55   23   61 1
    56   24   62 1
    57   24   63 1
    58   24   64 1
    59   25   26 2
    60   25   27 1
    61   28   65 1
    62   28   66 1
    63   28   67 1
    64   29   30 1
    65   29   68 1
    66   29   69 1
    67   30   34 2
    68   30   31 1
    69   31   32 2
    70   31   70 1
    71   32   33 1
    72   33   34 1
    73   34   35 1
    74   35   36 1
    75   35   37 1
    76   36   71 1
    77   36   72 1
    78   36   73 1
    79   37   74 1
    80   37   75 1
    81   37   76 1
    82   38   77 1
    83   38   78 1
    84   38   79 1
@<TRIPOS>MOLECULE
ZINC14955016
   26    28     0     0     0
SMALL
USER_CHARGES
3-(carboxymethyloxy)thieno[4,5-b]benzothiophene-2-carboxylic acid
@<TRIPOS>ATOM
      1 C1         -2.0968   -6.5912   -3.8179 C.ar      1 <0>        -0.1263
      2 C2         -2.0138   -5.7964   -4.9528 C.ar      1 <0>        -0.1123
      3 C3         -1.8510   -4.4318   -4.8176 C.ar      1 <0>        -0.0735
      4 C4         -1.7731   -3.8776   -3.5554 C.ar      1 <0>        -0.1210
      5 C5         -1.8546   -4.6619   -2.3905 C.ar      1 <0>        -0.0158
      6 C6         -2.0217   -6.0556   -2.5699 C.ar      1 <0>        -0.0830
      7 C7         -1.7549   -3.9234   -1.1297 C.2       1 <0>        -0.2002
      8 C8         -1.5981   -2.5429   -1.1950 C.2       1 <0>        -0.1358
      9 S1         -1.5715   -2.2227   -2.9550 S.3       1 <0>         0.0976
     10 C9         -1.4982   -1.8470    0.0064 C.2       1 <0>         0.1104
     11 C10        -1.5701   -2.5531    1.1966 C.2       1 <0>        -0.1327
     12 S2         -1.7742   -4.2318    0.6324 S.3       1 <0>         0.1538
     13 C11        -1.5000   -2.0657    2.5224 C.2       1 <0>         0.5139
     14 O1         -1.3574   -0.8742    2.7259 O.co2     1 <0>        -0.5721
     15 O2         -1.3386   -0.4987    0.0122 O.3       1 <0>        -0.2811
     16 C12         0.0021   -0.0041    0.0020 C.3       1 <0>         0.0386
     17 C13        -0.0184    1.5028    0.0103 C.2       1 <0>         0.4803
     18 O3         -1.0728    2.0926    0.0185 O.co2     1 <0>        -0.6154
     19 H1         -2.2240   -7.6580   -3.9282 H         1 <0>         0.1217
     20 H2         -2.0758   -6.2421   -5.9346 H         1 <0>         0.1278
     21 H3         -1.7848   -3.8026   -5.6929 H         1 <0>         0.1295
     22 H4         -2.0896   -6.7009   -1.7066 H         1 <0>         0.1228
     23 H5          0.5123   -0.3556   -0.8948 H         1 <0>         0.0423
     24 H6          0.5293   -0.3651    0.8851 H         1 <0>         0.0615
     25 O4         -1.5911   -2.9219    3.5620 O.co2     1 <0>        -0.7573
     26 O5          1.1348    2.1897    0.0030 O.co2     1 <0>        -0.7740
@<TRIPOS>BOND
     1    1    6 ar
     2    1    2 ar
     3    1   19 1
     4    2    3 ar
     5    2   20 1
     6    3    4 ar
     7    3   21 1
     8    4    9 1
     9    4    5 ar
    10    5    6 ar
    11    5    7 1
    12    6   22 1
    13    7   12 1
    14    7    8 2
    15    8    9 1
    16    8   10 1
    17   10   11 2
    18   10   15 1
    19   11   12 1
    20   11   13 1
    21   13   14 2
    22   13   25 1
    23   15   16 1
    24   16   17 1
    25   16   23 1
    26   16   24 1
    27   17   18 2
    28   17   26 1
@<TRIPOS>MOLECULE
ZINC02277650
   54    57     0     0     0
SMALL
USER_CHARGES
2-[[3-ethoxycarbonyl-4-(4-phenylphenyl)-2-thienyl]carbamoyl]benzoic acid
@<TRIPOS>ATOM
      1 C1          3.4598    2.0242    0.0692 C.3       1 <0>        -0.1531
      2 C2          2.2540    1.0827    0.0498 C.3       1 <0>         0.0592
      3 O1          1.0300    1.8639    0.0464 O.3       1 <0>        -0.3465
      4 C3         -0.1328    1.1802    0.0299 C.2       1 <0>         0.5446
      5 O2         -0.1231   -0.0363    0.0186 O.2       1 <0>        -0.5026
      6 C4         -1.4052    1.9015    0.0194 C.2       1 <0>        -0.2394
      7 C5         -2.0840    2.2653    1.2489 C.2       1 <0>        -0.0281
      8 C6         -3.2594    2.9341    1.1224 C.2       1 <0>        -0.2436
      9 S1         -3.4607    3.0788   -0.6408 S.3       1 <0>         0.2738
     10 C7         -2.0201    2.2770   -1.1681 C.2       1 <0>         0.1181
     11 N1         -1.5854    2.0601   -2.4643 N.am      1 <0>        -0.6219
     12 C8         -2.3208    2.5006   -3.5043 C.2       1 <0>         0.5716
     13 O3         -3.3658    3.0882   -3.3040 O.2       1 <0>        -0.4437
     14 C9         -1.8564    2.2689   -4.8890 C.ar      1 <0>        -0.1087
     15 C10        -1.5626    0.9788   -5.3227 C.ar      1 <0>        -0.1067
     16 C11        -1.1330    0.7666   -6.6191 C.ar      1 <0>        -0.1283
     17 C12        -0.9826    1.8312   -7.4903 C.ar      1 <0>        -0.1121
     18 C13        -1.2644    3.1192   -7.0762 C.ar      1 <0>        -0.0826
     19 C14        -1.7030    3.3519   -5.7750 C.ar      1 <0>        -0.0623
     20 C15        -2.0053    4.7277   -5.3270 C.2       1 <0>         0.4807
     21 O4         -2.2794    4.9410   -4.1631 O.co2     1 <0>        -0.6009
     22 C16        -1.5232    1.9237    2.5768 C.ar      1 <0>        -0.0238
     23 C17        -1.1131    0.6173    2.8460 C.ar      1 <0>        -0.1062
     24 C18        -0.5877    0.3011    4.0792 C.ar      1 <0>        -0.1067
     25 C19        -0.4745    1.2842    5.0620 C.ar      1 <0>        -0.0519
     26 C20        -0.8892    2.5888    4.7950 C.ar      1 <0>        -0.1083
     27 C21        -1.4102    2.9068    3.5605 C.ar      1 <0>        -0.0975
     28 C22         0.0865    0.9421    6.3915 C.ar      1 <0>        -0.0389
     29 C23         0.2057    1.9235    7.3741 C.ar      1 <0>        -0.1124
     30 C24         0.7232    1.5981    8.6114 C.ar      1 <0>        -0.1178
     31 C25         1.1337    0.3034    8.8735 C.ar      1 <0>        -0.1234
     32 C26         1.0231   -0.6735    7.9003 C.ar      1 <0>        -0.1177
     33 C27         0.5018   -0.3609    6.6613 C.ar      1 <0>        -0.1129
     34 H1          3.4377    2.6611   -0.8151 H         1 <0>         0.0687
     35 H2          3.4221    2.6445    0.9647 H         1 <0>         0.0665
     36 H3          4.3786    1.4378    0.0717 H         1 <0>         0.0784
     37 H4          2.2761    0.4458    0.9342 H         1 <0>         0.0685
     38 H5          2.2916    0.4624   -0.8457 H         1 <0>         0.0691
     39 H6         -3.9141    3.2920    1.9032 H         1 <0>         0.1890
     40 H7         -0.7515    1.5912   -2.6241 H         1 <0>         0.4147
     41 H8         -1.6740    0.1435   -4.6471 H         1 <0>         0.1227
     42 H9         -0.9093   -0.2358   -6.9530 H         1 <0>         0.1239
     43 H10        -0.6427    1.6544   -8.5000 H         1 <0>         0.1241
     44 H11        -1.1441    3.9453   -7.7614 H         1 <0>         0.1399
     45 H12        -1.2045   -0.1449    2.0863 H         1 <0>         0.1324
     46 H13        -0.2671   -0.7092    4.2865 H         1 <0>         0.1248
     47 H14        -0.8014    3.3497    5.5564 H         1 <0>         0.1269
     48 H15        -1.7316    3.9170    3.3540 H         1 <0>         0.1303
     49 H16        -0.1100    2.9357    7.1689 H         1 <0>         0.1259
     50 H17         0.8119    2.3567    9.3750 H         1 <0>         0.1232
     51 H18         1.5426    0.0543    9.8416 H         1 <0>         0.1210
     52 H19         1.3455   -1.6826    8.1104 H         1 <0>         0.1229
     53 H20         0.4162   -1.1242    5.9021 H         1 <0>         0.1251
     54 O5         -1.9767    5.7451   -6.2095 O.co2     1 <0>        -0.7478
@<TRIPOS>BOND
     1    1    2 1
     2    1   34 1
     3    1   35 1
     4    1   36 1
     5    2    3 1
     6    2   37 1
     7    2   38 1
     8    3    4 1
     9    4    5 2
    10    4    6 1
    11    6   10 2
    12    6    7 1
    13    7    8 2
    14    7   22 1
    15    8    9 1
    16    8   39 1
    17    9   10 1
    18   10   11 1
    19   11   12 am
    20   11   40 1
    21   12   13 2
    22   12   14 1
    23   14   19 ar
    24   14   15 ar
    25   15   16 ar
    26   15   41 1
    27   16   17 ar
    28   16   42 1
    29   17   18 ar
    30   17   43 1
    31   18   19 ar
    32   18   44 1
    33   19   20 1
    34   20   21 2
    35   20   54 1
    36   22   27 ar
    37   22   23 ar
    38   23   24 ar
    39   23   45 1
    40   24   25 ar
    41   24   46 1
    42   25   26 ar
    43   25   28 1
    44   26   27 ar
    45   26   47 1
    46   27   48 1
    47   28   33 ar
    48   28   29 ar
    49   29   30 ar
    50   29   49 1
    51   30   31 ar
    52   30   50 1
    53   31   32 ar
    54   31   51 1
    55   32   33 ar
    56   32   52 1
    57   33   53 1
@<TRIPOS>MOLECULE
ZINC33395186
   37    39     0     0     0
SMALL
USER_CHARGES
(5Z)-3-(3-chlorophenyl)-5-[(4-hydroxy-3-methoxy-5-nitro-phenyl)methylene]-2-thioxo-thiazolidin-4-one
@<TRIPOS>ATOM
      1 C1          2.3037    5.6503    0.5230 C.3       1 <0>         0.0186
      2 O1          2.4084    4.2263    0.4639 O.3       1 <0>        -0.2913
      3 C2          1.2453    3.5216    0.4536 C.ar      1 <0>         0.0385
      4 C3          0.0356    4.1857    0.5049 C.ar      1 <0>        -0.1287
      5 C4         -1.1600    3.4568    0.4883 C.ar      1 <0>        -0.2135
      6 C5         -1.1214    2.0583    0.4313 C.ar      1 <0>         0.0430
      7 C6          0.0903    1.4046    0.3861 C.ar      1 <0>        -0.1877
      8 C7          1.2750    2.1288    0.3969 C.ar      1 <0>         0.3292
      9 O2          2.4667    1.4782    0.3517 O.3       1 <0>        -0.5737
     10 N1          0.1296   -0.0739    0.3263 N.pl3     1 <0>         0.0647
     11 O3         -0.9086   -0.7108    0.3168 O.2       1 <0>        -0.2429
     12 O4          1.2000   -0.6536    0.2867 O.3       1 <0>        -0.1507
     13 C8         -2.4499    4.1567    0.5365 C.2       1 <0>         0.1560
     14 C9         -2.4942    5.5078    0.4118 C.2       1 <0>        -0.3174
     15 C10        -3.6382    6.4294    0.5580 C.2       1 <0>         0.5480
     16 O5         -4.7537    6.0256    0.8303 O.2       1 <0>        -0.4685
     17 N2         -3.3890    7.7162    0.3822 N.am      1 <0>        -0.4781
     18 C11        -2.1528    8.1587    0.0744 C.2       1 <0>         0.2568
     19 S1         -1.6365    9.7684   -0.1963 S.2       1 <0>        -0.3787
     20 S2         -1.1849    6.6593    0.0176 S.3       1 <0>         0.0994
     21 C12        -4.4342    8.6402    0.5129 C.ar      1 <0>         0.1145
     22 C13        -5.4638    8.6622   -0.4188 C.ar      1 <0>        -0.0821
     23 C14        -6.4932    9.5735   -0.2877 C.ar      1 <0>        -0.0966
     24 C15        -6.5002   10.4637    0.7704 C.ar      1 <0>        -0.0934
     25 C16        -5.4760   10.4447    1.7007 C.ar      1 <0>        -0.0250
     26 C17        -4.4455    9.5314    1.5770 C.ar      1 <0>        -0.0740
     27 Cl1        -5.4884   11.5640    3.0276 Cl        1 <0>        -0.0584
     28 H1          3.3110    6.0922    0.5251 H         1 <0>         0.1009
     29 H2          1.7737    5.9411    1.4420 H         1 <0>         0.0521
     30 H3          1.7458    6.0136   -0.3526 H         1 <0>         0.0521
     31 H4          0.0116    5.2643    0.5533 H         1 <0>         0.1273
     32 H5         -2.0412    1.4924    0.4231 H         1 <0>         0.1424
     33 H6         -3.3804    3.5862    0.6737 H         1 <0>         0.1618
     34 H7         -5.4597    7.9668   -1.2452 H         1 <0>         0.1328
     35 H8         -7.2939    9.5906   -1.0122 H         1 <0>         0.1436
     36 H9         -7.3067   11.1749    0.8711 H         1 <0>         0.1414
     37 H10        -3.6482    9.5138    2.3053 H         1 <0>         0.1378
@<TRIPOS>BOND
     1    1    2 1
     2    1   28 1
     3    1   29 1
     4    1   30 1
     5    2    3 1
     6    3    8 ar
     7    3    4 ar
     8    4    5 ar
     9    4   31 1
    10    5    6 ar
    11    5   13 1
    12    6    7 ar
    13    6   32 1
    14    7    8 ar
    15    7   10 1
    16    8    9 1
    17   10   11 2
    18   10   12 1
    19   13   14 2
    20   13   33 1
    21   14   20 1
    22   14   15 1
    23   15   16 2
    24   15   17 am
    25   17   18 1
    26   17   21 1
    27   18   19 2
    28   18   20 1
    29   21   26 ar
    30   21   22 ar
    31   22   23 ar
    32   22   34 1
    33   23   24 ar
    34   23   35 1
    35   24   25 ar
    36   24   36 1
    37   25   26 ar
    38   25   27 1
    39   26   37 1
