@<TRIPOS>MOLECULE
ZINC01532215
   26    27     0     0     0
SMALL
USER_CHARGES
4,5-dihydroxynaphthalene-2,7-disulfonic acid
@<TRIPOS>ATOM
      1 C1         -0.7119    3.1280    1.9864 C.ar      1 <0>        -0.0017
      2 C2         -1.4356    3.5253    3.1241 C.ar      1 <0>        -0.0750
      3 C3         -1.2368    4.7890    3.7068 C.ar      1 <0>        -0.0015
      4 C4         -1.9465    5.1465    4.8119 C.ar      1 <0>        -0.6574
      5 C5         -2.8736    4.2782    5.3819 C.ar      1 <0>        -0.0528
      6 C6         -3.0963    3.0320    4.8406 C.ar      1 <0>         0.0763
      7 C7         -2.3761    2.6349    3.6968 C.ar      1 <0>        -0.0454
      8 C8         -2.5738    1.3685    3.1123 C.ar      1 <0>         0.0763
      9 C9         -1.8496    1.0181    1.9949 C.ar      1 <0>        -0.0527
     10 C10        -0.9267    1.9002    1.4394 C.ar      1 <0>        -0.6574
     11 S1         -0.0172    1.4168    0.0098 S.o2      1 <0>         2.7022
     12 O1          0.0021   -0.0041    0.0020 O.2       1 <0>        -1.0585
     13 O2          1.1718    2.1948    0.0027 O.2       1 <0>        -1.0539
     14 O3         -3.4709    0.5003    3.6467 O.3       1 <0>        -0.4783
     15 O4         -4.0028    2.1927    5.4043 O.3       1 <0>        -0.4786
     16 S2         -1.6874    6.7332    5.5329 S.o2      1 <0>         2.7025
     17 O5         -1.1734    7.5678    4.5040 O.2       1 <0>        -1.0537
     18 O6         -2.8715    7.0512    6.2513 O.2       1 <0>        -1.0578
     19 H1          0.0110    3.7977    1.5444 H         1 <0>         0.1473
     20 H2         -0.5215    5.4754    3.2783 H         1 <0>         0.1472
     21 H3         -3.4241    4.5856    6.2588 H         1 <0>         0.1397
     22 H4         -1.9988    0.0480    1.5444 H         1 <0>         0.1397
     23 H5         -3.0975   -0.0878    4.3174 H         1 <0>         0.3740
     24 H6         -3.6324    1.6123    6.0833 H         1 <0>         0.3743
     25 O7         -0.8262    1.8475   -1.2052 O.3       1 <0>        -1.0767
     26 O8         -0.5793    6.5829    6.5653 O.3       1 <0>        -1.0780
@<TRIPOS>BOND
     1    1   10 ar
     2    1    2 ar
     3    1   19 1
     4    2    7 ar
     5    2    3 ar
     6    3    4 ar
     7    3   20 1
     8    4    5 ar
     9    4   16 1
    10    5    6 ar
    11    5   21 1
    12    6    7 ar
    13    6   15 1
    14    7    8 ar
    15    8    9 ar
    16    8   14 1
    17    9   10 ar
    18    9   22 1
    19   10   11 1
    20   11   12 2
    21   11   13 2
    22   11   25 1
    23   14   23 1
    24   15   24 1
    25   16   17 2
    26   16   18 2
    27   16   26 1
