@<TRIPOS>MOLECULE
ZINC00244514
   29    30     0     0     0
SMALL
USER_CHARGES
2-(2,5-dimethylpyrrol-1-yl)-5-hydroxy-benzoic acid
@<TRIPOS>ATOM
      1 C1         -0.0184    1.5028    0.0103 C.3       1 <0>        -0.0790
      2 C2          0.0021   -0.0041    0.0020 C.2       1 <0>         0.0427
      3 C3         -0.0035   -0.7888   -1.0943 C.2       1 <0>        -0.2029
      4 C4          0.0248   -2.1285   -0.6563 C.2       1 <0>        -0.2015
      5 C5          0.0373   -2.1136    0.6919 C.2       1 <0>         0.0427
      6 N1          0.0235   -0.8111    1.1043 N.pl3     1 <0>        -0.3724
      7 C6          0.0306   -0.3766    2.4327 C.ar      1 <0>         0.1272
      8 C7         -1.1661   -0.1707    3.1039 C.ar      1 <0>        -0.1078
      9 C8         -1.1601    0.2542    4.4170 C.ar      1 <0>        -0.1424
     10 C9          0.0421    0.4883    5.0738 C.ar      1 <0>         0.0945
     11 C10         1.2432    0.2928    4.4170 C.ar      1 <0>        -0.0976
     12 C11         1.2471   -0.1418    3.0893 C.ar      1 <0>        -0.0848
     13 C12         2.5237   -0.3520    2.3821 C.2       1 <0>         0.4808
     14 O1          2.5234   -0.7297    1.2272 O.co2     1 <0>        -0.5938
     15 O2          0.0373    0.9113    6.3660 O.3       1 <0>        -0.4988
     16 C13         0.0623   -3.3243    1.5888 C.3       1 <0>        -0.0781
     17 H1          1.0042    1.8801    0.0026 H         1 <0>         0.0684
     18 H2         -0.5455    1.8639   -0.8728 H         1 <0>         0.0712
     19 H3         -0.5286    1.8543    0.9071 H         1 <0>         0.0536
     20 H4         -0.0233   -0.4526   -2.1204 H         1 <0>         0.1258
     21 H5          0.0308   -3.0063   -1.2854 H         1 <0>         0.1259
     22 H6         -2.1044   -0.3466    2.5988 H         1 <0>         0.1277
     23 H7         -2.0946    0.4092    4.9358 H         1 <0>         0.1297
     24 H8          2.1762    0.4761    4.9292 H         1 <0>         0.1439
     25 H9          0.0222    1.8731    6.4649 H         1 <0>         0.3863
     26 H10        -0.9592   -3.6302    1.8148 H         1 <0>         0.0600
     27 H11         0.5826   -4.1390    1.0851 H         1 <0>         0.0736
     28 H12         0.5817   -3.0794    2.5153 H         1 <0>         0.0582
     29 O3          3.6907   -0.1253    3.0165 O.co2     1 <0>        -0.7533
@<TRIPOS>BOND
     1    1    2 1
     2    1   17 1
     3    1   18 1
     4    1   19 1
     5    2    6 1
     6    2    3 2
     7    3    4 1
     8    3   20 1
     9    4    5 2
    10    4   21 1
    11    5    6 1
    12    5   16 1
    13    6    7 1
    14    7   12 ar
    15    7    8 ar
    16    8    9 ar
    17    8   22 1
    18    9   10 ar
    19    9   23 1
    20   10   11 ar
    21   10   15 1
    22   11   12 ar
    23   11   24 1
    24   12   13 1
    25   13   14 2
    26   13   29 1
    27   15   25 1
    28   16   26 1
    29   16   27 1
    30   16   28 1
@<TRIPOS>MOLECULE
ZINC06581249
   42    44     0     0     0
SMALL
USER_CHARGES
1-(3,4-dimethoxyphenyl)-3-(2-naphthyl)prop-2-en-1-one
@<TRIPOS>ATOM
      1 C1         12.0922   -0.0690   -0.1217 C.3       1 <0>         0.0229
      2 O1         12.1505    1.3588   -0.1154 O.3       1 <0>        -0.3010
      3 C2         10.9668    2.0242   -0.0996 C.ar      1 <0>         0.1333
      4 C3          9.7733    1.3145   -0.0904 C.ar      1 <0>        -0.1885
      5 C4          8.5697    1.9849   -0.0748 C.ar      1 <0>        -0.0646
      6 C5          8.5482    3.3822   -0.0673 C.ar      1 <0>        -0.1612
      7 C6          9.7493    4.0966   -0.0820 C.ar      1 <0>        -0.1171
      8 C7         10.9525    3.4184   -0.0932 C.ar      1 <0>         0.0878
      9 O2         12.1232    4.1105   -0.1022 O.3       1 <0>        -0.3047
     10 C8         12.0338    5.5367   -0.0949 C.3       1 <0>         0.0235
     11 C9          7.2590    4.1024   -0.0501 C.2       1 <0>         0.4282
     12 O3          7.2418    5.3200   -0.0436 O.2       1 <0>        -0.4616
     13 C10         6.0032    3.3534   -0.0408 C.2       1 <0>        -0.2345
     14 C11         4.8238    4.0122   -0.0250 C.2       1 <0>        -0.0113
     15 C12         3.5611    3.2591   -0.0157 C.ar      1 <0>        -0.0800
     16 C13         3.5863    1.8501   -0.0232 C.ar      1 <0>        -0.1007
     17 C14         2.4343    1.1346   -0.0157 C.ar      1 <0>        -0.1054
     18 C15         1.1923    1.7973    0.0003 C.ar      1 <0>        -0.0423
     19 C16        -0.0126    1.0758    0.0080 C.ar      1 <0>        -0.1101
     20 C17        -1.1995    1.7433    0.0172 C.ar      1 <0>        -0.1091
     21 C18        -1.2398    3.1363    0.0308 C.ar      1 <0>        -0.1165
     22 C19        -0.0935    3.8697    0.0239 C.ar      1 <0>        -0.1020
     23 C20         1.1518    3.2150    0.0085 C.ar      1 <0>        -0.0575
     24 C21         2.3514    3.9409    0.0001 C.ar      1 <0>        -0.0714
     25 H1         11.5734   -0.4154    0.7722 H         1 <0>         0.0585
     26 H2         11.5545   -0.4067   -1.0077 H         1 <0>         0.0585
     27 H3         13.1041   -0.4739   -0.1344 H         1 <0>         0.1042
     28 H4          9.7884    0.2346   -0.0957 H         1 <0>         0.1434
     29 H5          7.6429    1.4306   -0.0680 H         1 <0>         0.1372
     30 H6          9.7368    5.1766   -0.0807 H         1 <0>         0.1474
     31 H7         11.5075    5.8631    0.8021 H         1 <0>         0.0571
     32 H8         13.0366    5.9637   -0.1034 H         1 <0>         0.1040
     33 H9         11.4890    5.8712   -0.9777 H         1 <0>         0.0571
     34 H10         6.0184    2.2735   -0.0465 H         1 <0>         0.1355
     35 H11         4.8085    5.0921   -0.0192 H         1 <0>         0.1361
     36 H12         4.5348    1.3338   -0.0355 H         1 <0>         0.1289
     37 H13         2.4697    0.0552   -0.0223 H         1 <0>         0.1312
     38 H14         0.0021   -0.0041    0.0020 H         1 <0>         0.1291
     39 H15        -2.1237    1.1846    0.0185 H         1 <0>         0.1255
     40 H16        -2.1946    3.6410    0.0427 H         1 <0>         0.1258
     41 H17        -0.1394    4.9487    0.0305 H         1 <0>         0.1297
     42 H18         2.3348    5.0207    0.0062 H         1 <0>         0.1347
@<TRIPOS>BOND
     1    1    2 1
     2    1   25 1
     3    1   26 1
     4    1   27 1
     5    2    3 1
     6    3    8 ar
     7    3    4 ar
     8    4    5 ar
     9    4   28 1
    10    5    6 ar
    11    5   29 1
    12    6    7 ar
    13    6   11 1
    14    7    8 ar
    15    7   30 1
    16    8    9 1
    17    9   10 1
    18   10   31 1
    19   10   32 1
    20   10   33 1
    21   11   12 2
    22   11   13 1
    23   13   14 2
    24   13   34 1
    25   14   15 1
    26   14   35 1
    27   15   24 ar
    28   15   16 ar
    29   16   17 ar
    30   16   36 1
    31   17   18 ar
    32   17   37 1
    33   18   23 ar
    34   18   19 ar
    35   19   20 ar
    36   19   38 1
    37   20   21 ar
    38   20   39 1
    39   21   22 ar
    40   21   40 1
    41   22   23 ar
    42   22   41 1
    43   23   24 ar
    44   24   42 1
