@<TRIPOS>MOLECULE
ZINC03954010
   40    43     0     0     0
SMALL
USER_CHARGES
5-[(2-hydroxy-1-naphthyl)azo]naphthalene-2-sulfonic acid
@<TRIPOS>ATOM
      1 C1          8.4051    1.8633   -0.0643 C.ar      1 <0>        -0.1195
      2 C2          7.2203    1.1319   -0.0582 C.ar      1 <0>        -0.1115
      3 C3          6.0099    1.7601   -0.0438 C.ar      1 <0>        -0.0938
      4 C4          5.9563    3.1582   -0.0298 C.ar      1 <0>         0.0006
      5 C5          7.1591    3.9054   -0.0420 C.ar      1 <0>        -0.0637
      6 C6          8.3885    3.2252   -0.0565 C.ar      1 <0>        -0.1001
      7 C7          7.1032    5.3107   -0.0336 C.ar      1 <0>        -0.0697
      8 C8          5.9091    5.9604   -0.0201 C.ar      1 <0>        -0.1454
      9 C9          4.6979    5.2709   -0.0132 C.ar      1 <0>         0.1383
     10 C10         4.6800    3.8729   -0.0205 C.ar      1 <0>         0.0420
     11 N1          3.5040    3.1937   -0.0134 N.2       1 <0>        -0.2444
     12 N2          2.3868    3.8384    0.0003 N.2       1 <0>        -0.1770
     13 C11         1.2078    3.1574    0.0074 C.ar      1 <0>         0.0345
     14 C12         1.1907    1.7664    0.0002 C.ar      1 <0>        -0.0642
     15 C13        -0.0126    1.0758    0.0080 C.ar      1 <0>        -0.1523
     16 C14        -1.2116    1.7212    0.0173 C.ar      1 <0>        -0.0437
     17 C15        -1.2705    3.1249    0.0310 C.ar      1 <0>        -0.0889
     18 C16        -0.0676    3.8725    0.0234 C.ar      1 <0>         0.0265
     19 C17        -0.1219    5.2709    0.0308 C.ar      1 <0>        -0.1329
     20 C18        -1.3324    5.8982    0.0453 C.ar      1 <0>        -0.0184
     21 C19        -2.5173    5.1663    0.0529 C.ar      1 <0>        -0.6601
     22 C20        -2.5007    3.8048    0.0464 C.ar      1 <0>        -0.0012
     23 S1         -4.0613    6.0151    0.0717 S.o2      1 <0>         2.6959
     24 O1         -5.0119    5.1167    0.6270 O.2       1 <0>        -1.0545
     25 O2         -3.8120    7.2993    0.6266 O.2       1 <0>        -1.0527
     26 O3          3.5295    5.9602    0.0002 O.3       1 <0>        -0.4690
     27 H1          9.3514    1.3429   -0.0750 H         1 <0>         0.1243
     28 H2          7.2604    0.0526   -0.0646 H         1 <0>         0.1256
     29 H3          5.0979    1.1816   -0.0384 H         1 <0>         0.1348
     30 H4          9.3155    3.7794   -0.0610 H         1 <0>         0.1300
     31 H5          8.0204    5.8808   -0.0382 H         1 <0>         0.1345
     32 H6          5.8988    7.0403   -0.0142 H         1 <0>         0.1345
     33 H7          2.1220    1.2194   -0.0113 H         1 <0>         0.1357
     34 H8          0.0021   -0.0041    0.0020 H         1 <0>         0.1273
     35 H9         -2.1269    1.1480    0.0182 H         1 <0>         0.1351
     36 H10         0.7898    5.8499    0.0248 H         1 <0>         0.1385
     37 H11        -1.3729    6.9774    0.0514 H         1 <0>         0.1391
     38 H12        -3.4275    3.2504    0.0531 H         1 <0>         0.1451
     39 H13         3.1981    6.1554    0.8875 H         1 <0>         0.3937
     40 O4         -4.4693    6.2391   -1.3774 O.3       1 <0>        -1.0731
@<TRIPOS>BOND
     1    1    6 ar
     2    1    2 ar
     3    1   27 1
     4    2    3 ar
     5    2   28 1
     6    3    4 ar
     7    3   29 1
     8    4   10 ar
     9    4    5 ar
    10    5    6 ar
    11    5    7 ar
    12    6   30 1
    13    7    8 ar
    14    7   31 1
    15    8    9 ar
    16    8   32 1
    17    9   10 ar
    18    9   26 1
    19   10   11 1
    20   11   12 2
    21   12   13 1
    22   13   18 ar
    23   13   14 ar
    24   14   15 ar
    25   14   33 1
    26   15   16 ar
    27   15   34 1
    28   16   17 ar
    29   16   35 1
    30   17   22 ar
    31   17   18 ar
    32   18   19 ar
    33   19   20 ar
    34   19   36 1
    35   20   21 ar
    36   20   37 1
    37   21   22 ar
    38   21   23 1
    39   22   38 1
    40   23   24 2
    41   23   25 2
    42   23   40 1
    43   26   39 1
@<TRIPOS>MOLECULE
ZINC26920345
   50    53     0     0     0
SMALL
USER_CHARGES
4-[[(5Z)-5-[(4-benzyloxyphenyl)methylene]-2,4-dioxo-thiazolidin-3-yl]methyl]benzoic acid
@<TRIPOS>ATOM
      1 C1          0.1606   -0.0659    0.0095 C.ar      1 <0>        -0.1091
      2 C2          1.4483   -0.4946   -0.2533 C.ar      1 <0>        -0.1238
      3 C3          2.4901    0.4139   -0.2666 C.ar      1 <0>        -0.0949
      4 C4          2.2450    1.7503   -0.0117 C.ar      1 <0>        -0.0979
      5 C5          0.9582    2.1781    0.2568 C.ar      1 <0>        -0.0942
      6 C6         -0.0836    1.2696    0.2695 C.ar      1 <0>        -0.1231
      7 C7          3.3807    2.7408   -0.0262 C.3       1 <0>         0.0959
      8 O1          3.5368    3.2673   -1.3454 O.3       1 <0>        -0.3034
      9 C8          4.5243    4.1801   -1.5319 C.ar      1 <0>         0.1554
     10 C9          5.3233    4.5644   -0.4612 C.ar      1 <0>        -0.2096
     11 C10         6.3292    5.4860   -0.6456 C.ar      1 <0>        -0.0453
     12 C11         6.5400    6.0444   -1.9124 C.ar      1 <0>        -0.1301
     13 C12         5.7287    5.6575   -2.9863 C.ar      1 <0>        -0.0372
     14 C13         4.7291    4.7312   -2.7916 C.ar      1 <0>        -0.1557
     15 C14         7.6081    7.0317   -2.1141 C.2       1 <0>         0.0694
     16 C15         8.2753    7.5374   -1.0459 C.2       1 <0>        -0.2115
     17 C16         9.4776    8.3934   -1.0063 C.2       1 <0>         0.5586
     18 O2         10.0350    8.7602   -2.0241 O.2       1 <0>        -0.4658
     19 N1          9.9180    8.7416    0.1910 N.am      1 <0>        -0.5701
     20 C17         9.2974    8.3329    1.3163 C.2       1 <0>         0.5375
     21 O3          9.5911    8.5752    2.4716 O.2       1 <0>        -0.4163
     22 S1          7.9353    7.3567    0.6998 S.3       1 <0>        -0.0588
     23 C18        11.1074    9.5903    0.2973 C.3       1 <0>         0.1388
     24 C19        10.6922   11.0390    0.2997 C.ar      1 <0>        -0.1351
     25 C20        10.5956   11.7297   -0.8953 C.ar      1 <0>        -0.1106
     26 C21        10.2106   13.0543   -0.9008 C.ar      1 <0>        -0.0828
     27 C22         9.9297   13.7013    0.3042 C.ar      1 <0>        -0.0987
     28 C23        10.0347   12.9999    1.5069 C.ar      1 <0>        -0.0912
     29 C24        10.4149   11.6739    1.4974 C.ar      1 <0>        -0.1141
     30 C25         9.5236   15.1217    0.3066 C.2       1 <0>         0.4872
     31 O4          9.2802   15.6820    1.3566 O.co2     1 <0>        -0.6293
     32 O5          9.4232   15.7955   -0.8555 O.co2     1 <0>        -0.7520
     33 H1         -0.6539   -0.7750    0.0155 H         1 <0>         0.1244
     34 H2          1.6397   -1.5386   -0.4527 H         1 <0>         0.1255
     35 H3          3.4954    0.0797   -0.4763 H         1 <0>         0.1247
     36 H4          0.7668    3.2221    0.4562 H         1 <0>         0.1255
     37 H5         -1.0890    1.6039    0.4789 H         1 <0>         0.1260
     38 H6          3.1604    3.5614    0.6724 H         1 <0>         0.0772
     39 H7          4.3098    2.2379    0.2802 H         1 <0>         0.0764
     40 H8          5.1572    4.1361    0.5163 H         1 <0>         0.1358
     41 H9          6.9521    5.7807    0.1860 H         1 <0>         0.1396
     42 H10         5.8871    6.0848   -3.9654 H         1 <0>         0.1423
     43 H11         4.1030    4.4319   -3.6191 H         1 <0>         0.1387
     44 H12         7.8674    7.3614   -3.1310 H         1 <0>         0.1676
     45 H13        11.6399    9.3599    1.2319 H         1 <0>         0.1034
     46 H14        11.7711    9.4005   -0.5592 H         1 <0>         0.1080
     47 H15        10.8181   11.2294   -1.8263 H         1 <0>         0.1223
     48 H16        10.1313   13.5911   -1.8346 H         1 <0>         0.1326
     49 H17         9.8185   13.4943    2.4425 H         1 <0>         0.1287
     50 H18        10.4965   11.1302    2.4270 H         1 <0>         0.1192
@<TRIPOS>BOND
     1    1    6 ar
     2    1    2 ar
     3    1   33 1
     4    2    3 ar
     5    2   34 1
     6    3    4 ar
     7    3   35 1
     8    4    5 ar
     9    4    7 1
    10    5    6 ar
    11    5   36 1
    12    6   37 1
    13    7    8 1
    14    7   38 1
    15    7   39 1
    16    8    9 1
    17    9   14 ar
    18    9   10 ar
    19   10   11 ar
    20   10   40 1
    21   11   12 ar
    22   11   41 1
    23   12   13 ar
    24   12   15 1
    25   13   14 ar
    26   13   42 1
    27   14   43 1
    28   15   16 2
    29   15   44 1
    30   16   22 1
    31   16   17 1
    32   17   18 2
    33   17   19 am
    34   19   20 am
    35   19   23 1
    36   20   21 2
    37   20   22 1
    38   23   24 1
    39   23   45 1
    40   23   46 1
    41   24   29 ar
    42   24   25 ar
    43   25   26 ar
    44   25   47 1
    45   26   27 ar
    46   26   48 1
    47   27   28 ar
    48   27   30 1
    49   28   29 ar
    50   28   49 1
    51   29   50 1
    52   30   31 2
    53   30   32 1
@<TRIPOS>MOLECULE
ZINC45339167
   60    61     0     0     0
SMALL
USER_CHARGES

@<TRIPOS>ATOM
      1 C1         -0.0187    1.5258    0.0104 C.3       1 <0>        -0.1450
      2 C2          0.0021   -0.0041    0.0020 C.3       1 <0>        -0.0506
      3 C3         -1.4117   -0.5257    0.0127 C.2       1 <0>         0.0709
      4 C4         -2.1216   -0.6760   -1.1347 C.2       1 <0>        -0.2394
      5 S1         -3.6621   -1.3065   -0.4884 S.3       1 <0>         0.0991
      6 C5         -3.2442   -1.3108    1.1419 C.2       1 <0>         0.0591
      7 N1         -2.0137   -0.8621    1.1360 N.2       1 <0>        -0.5016
      8 C6         -4.0808   -1.7337    2.3218 C.3       1 <0>         0.2401
      9 H1         -3.6229   -1.3691    3.2413 H         1 <0>         0.1248
     10 C7         -4.1662   -3.2607    2.3653 C.3       1 <0>        -0.0691
     11 C8         -4.8982   -3.6876    3.6115 C.ar      1 <0>        -0.1297
     12 C9         -4.1950   -3.9186    4.7796 C.ar      1 <0>        -0.0912
     13 C10        -4.8627   -4.3100    5.9235 C.ar      1 <0>        -0.1542
     14 C11        -6.2422   -4.4714    5.8997 C.ar      1 <0>         0.2005
     15 C12        -6.9455   -4.2384    4.7246 C.ar      1 <0>        -0.1456
     16 C13        -6.2722   -3.8419    3.5859 C.ar      1 <0>        -0.0628
     17 N2         -6.9206   -4.8675    7.0546 N.pl3     1 <0>        -1.0882
     18 S2         -8.3196   -4.1000    7.4975 S.o2      1 <0>         2.7714
     19 O1         -8.7134   -4.6497    8.7854 O.2       1 <0>        -1.0827
     20 O2         -8.0136   -2.6804    7.5832 O.2       1 <0>        -1.0707
     21 O3         -9.3022   -4.3825    6.4627 O.3       1 <0>        -1.0787
     22 N3         -5.4279   -1.1728    2.1914 N.am      1 <0>        -0.7078
     23 C14        -5.6818    0.0781    2.6242 C.2       1 <0>         0.5403
     24 O4         -4.7951    0.7394    3.1215 O.2       1 <0>        -0.5132
     25 C15        -7.0675    0.6551    2.4900 C.3       1 <0>        -0.1031
     26 H2         -7.3513    0.6778    1.4378 H         1 <0>         0.1321
     27 C16        -7.0845    2.0774    3.0535 C.3       1 <0>        -0.0919
     28 C17        -8.4561    2.7081    2.8051 C.3       1 <0>        -0.1129
     29 C18        -8.5151    4.0816    3.4767 C.3       1 <0>        -0.1443
     30 C19        -8.6796    2.8664    1.2998 C.3       1 <0>        -0.1452
     31 C20        -8.0440   -0.2002    3.2554 C.2       1 <0>         0.4513
     32 O5         -7.6548   -1.1779    3.8490 O.2       1 <0>        -0.4572
     33 O6         -9.3464    0.1243    3.2778 O.3       1 <0>        -0.3471
     34 C21       -10.2153   -0.7310    4.0231 C.3       1 <0>         0.0271
     35 H3          1.0039    1.9031    0.0027 H         1 <0>         0.0607
     36 H4         -0.5459    1.8868   -0.8726 H         1 <0>         0.0535
     37 H5         -0.5289    1.8773    0.9072 H         1 <0>         0.0585
     38 H6          0.5123   -0.3556   -0.8948 H         1 <0>         0.0775
     39 H7          0.5293   -0.3651    0.8851 H         1 <0>         0.0803
     40 H8         -1.8343   -0.4709   -2.1554 H         1 <0>         0.1927
     41 H9         -4.7034   -3.6197    1.4875 H         1 <0>         0.0783
     42 H10        -3.1604   -3.6808    2.3728 H         1 <0>         0.0910
     43 H11        -3.1225   -3.7933    4.7973 H         1 <0>         0.1170
     44 H12        -4.3129   -4.4906    6.8353 H         1 <0>         0.1194
     45 H13        -8.0180   -4.3634    4.7026 H         1 <0>         0.1461
     46 H14        -6.8188   -3.6563    2.6731 H         1 <0>         0.1112
     47 H15        -6.5723   -5.5922    7.5972 H         1 <0>         0.4037
     48 H16        -6.1371   -1.7017    1.7936 H         1 <0>         0.4042
     49 H17        -6.8877    2.0460    4.1252 H         1 <0>         0.0778
     50 H18        -6.3161    2.6729    2.5603 H         1 <0>         0.0851
     51 H19        -9.2321    2.0661    3.2221 H         1 <0>         0.0991
     52 H20        -7.7392    4.7235    3.0598 H         1 <0>         0.0520
     53 H21        -9.4923    4.5309    3.2998 H         1 <0>         0.0550
     54 H22        -8.3559    3.9688    4.5491 H         1 <0>         0.0554
     55 H23        -9.6568    3.3157    1.1229 H         1 <0>         0.0555
     56 H24        -7.9036    3.5084    0.8829 H         1 <0>         0.0514
     57 H25        -8.6376    1.8880    0.8214 H         1 <0>         0.0533
     58 H26       -11.2368   -0.3563    3.9587 H         1 <0>         0.0993
     59 H27       -10.1718   -1.7399    3.6127 H         1 <0>         0.0659
     60 H28        -9.9000   -0.7492    5.0664 H         1 <0>         0.0718
@<TRIPOS>BOND
     1    1    2 1
     2    1   35 1
     3    1   36 1
     4    1   37 1
     5    2    3 1
     6    2   38 1
     7    2   39 1
     8    3    7 1
     9    3    4 2
    10    4    5 1
    11    4   40 1
    12    5    6 1
    13    6    7 2
    14    6    8 1
    15    8    9 1
    16    8   10 1
    17    8   22 1
    18   10   11 1
    19   10   41 1
    20   10   42 1
    21   11   16 ar
    22   11   12 ar
    23   12   13 ar
    24   12   43 1
    25   13   14 ar
    26   13   44 1
    27   14   15 ar
    28   14   17 1
    29   15   16 ar
    30   15   45 1
    31   16   46 1
    32   17   18 1
    33   17   47 1
    34   18   19 2
    35   18   20 2
    36   18   21 1
    37   22   23 am
    38   22   48 1
    39   23   24 2
    40   23   25 1
    41   25   26 1
    42   25   27 1
    43   25   31 1
    44   27   28 1
    45   27   49 1
    46   27   50 1
    47   28   29 1
    48   28   30 1
    49   28   51 1
    50   29   52 1
    51   29   53 1
    52   29   54 1
    53   30   55 1
    54   30   56 1
    55   30   57 1
    56   31   32 2
    57   31   33 1
    58   33   34 1
    59   34   58 1
    60   34   59 1
    61   34   60 1
