@<TRIPOS>MOLECULE
ZINC21289577
   55    57     0     0     0
SMALL
USER_CHARGES

@<TRIPOS>ATOM
      1 C1         -0.0167    1.3794    0.0096 C.ar      1 <0>        -0.1289
      2 C2          1.1667    2.0884    0.0021 C.ar      1 <0>        -0.0645
      3 C3          2.3848    1.4070   -0.0132 C.ar      1 <0>        -0.1104
      4 C4          2.3966    0.0113   -0.0208 C.ar      1 <0>        -0.0820
      5 C5          1.2061   -0.6856   -0.0132 C.ar      1 <0>        -0.1228
      6 C6          0.0021   -0.0041    0.0020 C.ar      1 <0>        -0.0784
      7 C7         -1.2946   -0.7719    0.0103 C.3       1 <0>        -0.0771
      8 C8         -1.7472   -1.0241   -1.4293 C.3       1 <0>        -0.1091
      9 C9         -3.0637   -1.8037   -1.4209 C.3       1 <0>        -0.1052
     10 H1         -2.9442   -2.7169   -0.8380 H         1 <0>         0.0798
     11 C10        -3.4594   -2.1582   -2.8551 C.3       1 <0>        -0.0331
     12 C11        -4.8607   -2.7038   -2.8925 C.2       1 <0>        -0.3419
     13 C12        -5.7500   -2.4731   -1.8896 C.2       1 <0>         0.4439
     14 N1         -7.0169   -2.9903   -1.9851 N.pl3     1 <0>        -0.6545
     15 H2         -7.6600   -2.8283   -1.2773 H         1 <0>         0.4094
     16 C13        -7.3745   -3.7299   -3.0703 C.2       1 <0>         0.6579
     17 N2         -6.5217   -3.9643   -4.0442 N.2       1 <0>        -0.6350
     18 C14        -5.2715   -3.4785   -3.9988 C.2       1 <0>         0.5436
     19 O1         -4.4913   -3.7058   -4.9122 O.2       1 <0>        -0.5263
     20 N3         -8.6435   -4.2391   -3.1495 N.pl3     1 <0>        -0.8255
     21 N4         -5.4033   -1.7373   -0.7796 N.pl3     1 <0>        -0.7319
     22 C15        -4.1705   -0.9388   -0.8024 C.3       1 <0>         0.1300
     23 C16         3.6569    2.1603   -0.0218 C.2       1 <0>         0.5428
     24 O2          3.6435    3.3757   -0.0155 O.2       1 <0>        -0.5536
     25 N5          4.8314    1.4994   -0.0366 N.am      1 <0>        -0.6749
     26 C17         6.0919    2.2459   -0.0451 C.3       1 <0>         0.0734
     27 H3          5.9814    3.1523    0.5501 H         1 <0>         0.0779
     28 C18         7.2027    1.3778    0.5494 C.3       1 <0>        -0.0826
     29 C19         6.9032    1.1060    2.0250 C.3       1 <0>        -0.1771
     30 C20         7.9973    0.2510    2.6105 C.2       1 <0>         0.4912
     31 O3          8.9302   -0.1078    1.9123 O.co2     1 <0>        -0.6972
     32 O4          7.9496   -0.0820    3.7824 O.co2     1 <0>        -0.7199
     33 C21         6.4472    2.6155   -1.4622 C.2       1 <0>         0.4982
     34 O5          7.0818    3.6322   -1.6861 O.co2     1 <0>        -0.7010
     35 O6          6.1002    1.8979   -2.3847 O.co2     1 <0>        -0.6979
     36 H4         -0.9598    1.9054    0.0260 H         1 <0>         0.1208
     37 H5          1.1508    3.1682    0.0077 H         1 <0>         0.1331
     38 H6          3.3358   -0.5219   -0.0330 H         1 <0>         0.1296
     39 H7          1.2138   -1.7656   -0.0191 H         1 <0>         0.1240
     40 H8         -1.1489   -1.7256    0.5176 H         1 <0>         0.0721
     41 H9         -2.0557   -0.1941    0.5345 H         1 <0>         0.0689
     42 H10        -1.8929   -0.0704   -1.9367 H         1 <0>         0.0708
     43 H11        -0.9861   -1.6019   -1.9536 H         1 <0>         0.0767
     44 H12        -3.4038   -1.2641   -3.4760 H         1 <0>         0.0687
     45 H13        -2.7702   -2.9076   -3.2445 H         1 <0>         0.0824
     46 H14        -9.2788   -4.0715   -2.4359 H         1 <0>         0.4087
     47 H15        -8.9070   -4.7673   -3.9192 H         1 <0>         0.4304
     48 H16        -5.9654   -1.7468    0.0108 H         1 <0>         0.4016
     49 H17        -3.8931   -0.6544    0.2127 H         1 <0>         0.0948
     50 H18        -4.3232   -0.0456   -1.4082 H         1 <0>         0.0719
     51 H19         4.8421    0.5294   -0.0416 H         1 <0>         0.3915
     52 H20         7.2537    0.4325    0.0090 H         1 <0>         0.0604
     53 H21         8.1565    1.8981    0.4621 H         1 <0>         0.0729
     54 H22         6.8522    2.0513    2.5654 H         1 <0>         0.0526
     55 H23         5.9494    0.5857    2.1123 H         1 <0>         0.0509
@<TRIPOS>BOND
     1    1    6 ar
     2    1    2 ar
     3    1   36 1
     4    2    3 ar
     5    2   37 1
     6    3    4 ar
     7    3   23 1
     8    4    5 ar
     9    4   38 1
    10    5    6 ar
    11    5   39 1
    12    6    7 1
    13    7    8 1
    14    7   40 1
    15    7   41 1
    16    8    9 1
    17    8   42 1
    18    8   43 1
    19    9   10 1
    20    9   22 1
    21    9   11 1
    22   11   12 1
    23   11   44 1
    24   11   45 1
    25   12   18 1
    26   12   13 2
    27   13   14 1
    28   13   21 1
    29   14   15 1
    30   14   16 1
    31   16   17 2
    32   16   20 1
    33   17   18 1
    34   18   19 2
    35   20   46 1
    36   20   47 1
    37   21   22 1
    38   21   48 1
    39   22   49 1
    40   22   50 1
    41   23   24 2
    42   23   25 am
    43   25   26 1
    44   25   51 1
    45   26   27 1
    46   26   28 1
    47   26   33 1
    48   28   29 1
    49   28   52 1
    50   28   53 1
    51   29   30 1
    52   29   54 1
    53   29   55 1
    54   30   31 2
    55   30   32 1
    56   33   34 2
    57   33   35 1
@<TRIPOS>MOLECULE
ZINC12504292
   55    57     0     0     0
SMALL
USER_CHARGES
(2S)-2-[[4-[2-[(6S)-2-amino-4-hydroxy-5,6,7,8-tetrahydropyrido[6,5-d]pyrimidin-6-yl]ethyl]benzoyl]amino]pentanedioic acid
@<TRIPOS>ATOM
      1 C1          1.9222    1.3675   -8.1624 C.ar      1 <0>        -0.1242
      2 C2          1.4371    0.9142   -9.3717 C.ar      1 <0>        -0.0831
      3 C3          0.2179    1.3923   -9.8545 C.ar      1 <0>        -0.1084
      4 C4         -0.5054    2.3226   -9.1066 C.ar      1 <0>        -0.0646
      5 C5         -0.0118    2.7635   -7.8961 C.ar      1 <0>        -0.1277
      6 C6          1.1974    2.2856   -7.4232 C.ar      1 <0>        -0.0772
      7 C7          1.7305    2.7717   -6.1001 C.3       1 <0>        -0.0785
      8 C8          1.2231    1.8610   -4.9802 C.3       1 <0>        -0.1096
      9 C9          1.7643    2.3546   -3.6370 C.3       1 <0>        -0.1034
     10 H1          1.4930    3.4127   -3.5072 H         1 <0>         0.0775
     11 C10         1.1599    1.5231   -2.5044 C.3       1 <0>        -0.0270
     12 C11         1.8481    1.8328   -1.2042 C.2       1 <0>        -0.3581
     13 C12         3.1075    2.4151   -1.1647 C.2       1 <0>         0.4936
     14 N1          3.6738    2.6625    0.0144 N.2       1 <0>        -0.6216
     15 C13         3.0457    2.3611    1.1412 C.2       1 <0>         0.6557
     16 N2          1.8402    1.8123    1.1404 N.am      1 <0>        -0.6219
     17 C14         1.2196    1.5309   -0.0014 C.2       1 <0>         0.4907
     18 O1         -0.0110    0.9628    0.0073 O.2       1 <0>        -0.6270
     19 N3          3.6625    2.6316    2.3501 N.pl3     1 <0>        -0.8549
     20 N4          3.7776    2.7422   -2.3338 N.pl3     1 <0>        -0.7138
     21 C15         3.2901    2.1968   -3.6083 C.3       1 <0>         0.1237
     22 C16        -0.3048    0.9157  -11.1528 C.2       1 <0>         0.5512
     23 O2         -1.3667    1.3342  -11.5710 O.2       1 <0>        -0.5562
     24 N5          0.3961    0.0174  -11.8726 N.am      1 <0>        -0.6919
     25 C17        -0.1219   -0.4548  -13.1591 C.3       1 <0>         0.1034
     26 H2         -0.6551    0.3842  -13.6300 H         1 <0>         0.0844
     27 C18         1.0406   -0.9278  -14.0343 C.3       1 <0>        -0.0845
     28 C19         1.9411    0.2619  -14.3726 C.3       1 <0>        -0.1524
     29 C20         3.0861   -0.2039  -15.2347 C.2       1 <0>         0.4613
     30 O3          3.1729   -1.3680  -15.5465 O.co2     1 <0>        -0.6388
     31 O4          4.0095    0.6744  -15.6562 O.co2     1 <0>        -0.7912
     32 C21        -1.0744   -1.5995  -12.9275 C.2       1 <0>         0.4645
     33 O5         -1.2977   -1.9816  -11.8032 O.co2     1 <0>        -0.6394
     34 O6         -1.6747   -2.1945  -13.9702 O.co2     1 <0>        -0.7699
     35 H3          2.8677    1.0020   -7.7899 H         1 <0>         0.1229
     36 H4          2.0015    0.1940   -9.9455 H         1 <0>         0.1287
     37 H5         -1.4496    2.6962   -9.4744 H         1 <0>         0.1324
     38 H6         -0.5703    3.4836   -7.3166 H         1 <0>         0.1212
     39 H7          2.8302    2.7524   -6.1185 H         1 <0>         0.0715
     40 H8          1.3848    3.8005   -5.9211 H         1 <0>         0.0711
     41 H9          0.1234    1.8802   -4.9619 H         1 <0>         0.0740
     42 H10         1.5689    0.8322   -5.1592 H         1 <0>         0.0710
     43 H11         0.0894    1.7574   -2.4085 H         1 <0>         0.0768
     44 H12         1.2823    0.4533   -2.7292 H         1 <0>         0.0632
     45 H13         3.1535    2.3870    3.2941 H         1 <0>         0.4353
     46 H14         4.6617    3.0912    2.3670 H         1 <0>         0.4519
     47 H15         4.6604    3.3982   -2.3181 H         1 <0>         0.4305
     48 H16         3.5501    1.1311   -3.6903 H         1 <0>         0.0694
     49 H17         3.7317    2.7479   -4.4517 H         1 <0>         0.0938
     50 H18         1.3571   -0.3613  -11.4942 H         1 <0>         0.4061
     51 H19         1.6236   -1.6862  -13.4911 H         1 <0>         0.0583
     52 H20         0.6459   -1.3648  -14.9634 H         1 <0>         0.0846
     53 H21         1.3581    1.0203  -14.9157 H         1 <0>         0.0600
     54 H22         2.3358    0.6989  -13.4435 H         1 <0>         0.0579
     55 H23         1.3395    1.5834    2.0927 H         1 <0>         0.4388
@<TRIPOS>BOND
     1    1    6 ar
     2    1    2 ar
     3    1   35 1
     4    2    3 ar
     5    2   36 1
     6    3    4 ar
     7    3   22 1
     8    4    5 ar
     9    4   37 1
    10    5    6 ar
    11    5   38 1
    12    6    7 1
    13    7    8 1
    14    7   39 1
    15    7   40 1
    16    8    9 1
    17    8   41 1
    18    8   42 1
    19    9   10 1
    20    9   21 1
    21    9   11 1
    22   11   12 1
    23   11   43 1
    24   11   44 1
    25   12   17 1
    26   12   13 2
    27   13   14 1
    28   13   20 1
    29   14   15 2
    30   15   16 1
    31   15   19 1
    32   16   17 am
    33   16   55 1
    34   17   18 2
    35   19   45 1
    36   19   46 1
    37   20   21 1
    38   20   47 1
    39   21   48 1
    40   21   49 1
    41   22   23 2
    42   22   24 am
    43   24   25 1
    44   24   50 1
    45   25   26 1
    46   25   27 1
    47   25   32 1
    48   27   28 1
    49   27   51 1
    50   27   52 1
    51   28   29 1
    52   28   53 1
    53   28   54 1
    54   29   30 2
    55   29   31 1
    56   32   33 2
    57   32   34 1
@<TRIPOS>MOLECULE
ZINC45336938
   53    55     0     0     0
SMALL
USER_CHARGES

@<TRIPOS>ATOM
      1 C1         -0.0163    1.3517    0.0095 C.2       1 <0>        -0.1768
      2 C2          1.1755    2.0360    0.0018 C.2       1 <0>        -0.0963
      3 C3          2.3196    1.2528   -0.0134 C.2       1 <0>        -0.2094
      4 S1          1.6361   -0.3937   -0.0157 S.3       1 <0>         0.2096
      5 C4          0.0021   -0.0041    0.0020 C.2       1 <0>        -0.2196
      6 C5         -1.1743   -0.9460    0.0089 C.3       1 <0>        -0.0297
      7 C6         -1.5870   -1.2570   -1.4311 C.3       1 <0>        -0.1178
      8 C7         -2.7813   -2.2133   -1.4241 C.3       1 <0>        -0.1143
      9 C8         -3.1941   -2.5244   -2.8642 C.3       1 <0>        -0.0526
     10 C9         -4.3704   -3.4663   -2.8573 C.2       1 <0>         0.0370
     11 C10        -4.2902   -4.8040   -2.7642 C.2       1 <0>        -0.1078
     12 C11        -5.6613   -5.3102   -2.7948 C.2       1 <0>        -0.3147
     13 C12        -6.4932   -4.1875   -2.9087 C.2       1 <0>         0.3414
     14 N1         -5.6868   -3.0877   -2.9392 N.pl3     1 <0>        -0.5424
     15 H1         -5.9984   -2.1719   -3.0107 H         1 <0>         0.4182
     16 N2         -7.8221   -4.3613   -2.9591 N.2       1 <0>        -0.5894
     17 C13        -8.3540   -5.5609   -2.9036 C.2       1 <0>         0.6497
     18 N3         -7.5936   -6.6872   -2.7927 N.am      1 <0>        -0.6629
     19 H2         -8.0206   -7.5573   -2.7547 H         1 <0>         0.4125
     20 C14        -6.2456   -6.5945   -2.7360 C.2       1 <0>         0.5827
     21 O1         -5.5533   -7.5930   -2.6373 O.2       1 <0>        -0.5304
     22 N4         -9.7197   -5.6847   -2.9586 N.pl3     1 <0>        -0.8257
     23 C15         3.7248    1.6700   -0.0245 C.2       1 <0>         0.5873
     24 O2          4.0082    2.8535   -0.0209 O.2       1 <0>        -0.5411
     25 N5          4.7028    0.7428   -0.0389 N.am      1 <0>        -0.6724
     26 C16         6.1072    1.1597   -0.0500 C.3       1 <0>         0.0736
     27 H3          6.2216    2.0669    0.5432 H         1 <0>         0.0799
     28 C17         6.9739    0.0483    0.5454 C.3       1 <0>        -0.0829
     29 C18         6.6191   -0.1395    2.0218 C.3       1 <0>        -0.1782
     30 C19         7.4728   -1.2342    2.6083 C.2       1 <0>         0.4916
     31 O3          8.2893   -1.8108    1.9101 O.co2     1 <0>        -0.6973
     32 O4          7.3470   -1.5433    3.7809 O.co2     1 <0>        -0.7192
     33 C20         6.5400    1.4290   -1.4682 C.2       1 <0>         0.4986
     34 O5          7.4028    2.2600   -1.6949 O.co2     1 <0>        -0.6996
     35 O6          6.0274    0.8157   -2.3889 O.co2     1 <0>        -0.6973
     36 H4         -0.9545    1.8864    0.0258 H         1 <0>         0.1269
     37 H5          1.2182    3.1151    0.0068 H         1 <0>         0.1444
     38 H6         -0.8964   -1.8705    0.5150 H         1 <0>         0.0786
     39 H7         -2.0089   -0.4811    0.5338 H         1 <0>         0.0793
     40 H8         -1.8648   -0.3325   -1.9372 H         1 <0>         0.0671
     41 H9         -0.7524   -1.7219   -1.9560 H         1 <0>         0.0723
     42 H10        -2.5035   -3.1379   -0.9181 H         1 <0>         0.0721
     43 H11        -3.6159   -1.7485   -0.8993 H         1 <0>         0.0616
     44 H12        -3.4719   -1.5998   -3.3703 H         1 <0>         0.0742
     45 H13        -2.3595   -2.9892   -3.3890 H         1 <0>         0.0948
     46 H14        -3.3877   -5.3917   -2.6830 H         1 <0>         0.1522
     47 H15       -10.2757   -4.8937   -3.0371 H         1 <0>         0.4265
     48 H16       -10.1291   -6.5632   -2.9188 H         1 <0>         0.4142
     49 H17         4.4769   -0.2005   -0.0418 H         1 <0>         0.3916
     50 H18         6.7924   -0.8819    0.0070 H         1 <0>         0.0614
     51 H19         8.0256    0.3204    0.4562 H         1 <0>         0.0743
     52 H20         6.8007    0.7907    2.5602 H         1 <0>         0.0532
     53 H21         5.5674   -0.4116    2.1110 H         1 <0>         0.0512
@<TRIPOS>BOND
     1    1    5 2
     2    1    2 1
     3    1   36 1
     4    2    3 2
     5    2   37 1
     6    3    4 1
     7    3   23 1
     8    4    5 1
     9    5    6 1
    10    6    7 1
    11    6   38 1
    12    6   39 1
    13    7    8 1
    14    7   40 1
    15    7   41 1
    16    8    9 1
    17    8   42 1
    18    8   43 1
    19    9   10 1
    20    9   44 1
    21    9   45 1
    22   10   14 1
    23   10   11 2
    24   11   12 1
    25   11   46 1
    26   12   20 1
    27   12   13 2
    28   13   14 1
    29   13   16 1
    30   14   15 1
    31   16   17 2
    32   17   18 1
    33   17   22 1
    34   18   19 1
    35   18   20 am
    36   20   21 2
    37   22   47 1
    38   22   48 1
    39   23   24 2
    40   23   25 am
    41   25   26 1
    42   25   49 1
    43   26   27 1
    44   26   28 1
    45   26   33 1
    46   28   29 1
    47   28   50 1
    48   28   51 1
    49   29   30 1
    50   29   52 1
    51   29   53 1
    52   30   31 2
    53   30   32 1
    54   33   34 2
    55   33   35 1
