@<TRIPOS>MOLECULE
ZINC04748426
   44    47     0     0     0
SMALL
USER_CHARGES

@<TRIPOS>ATOM
      1 C1         -0.0128    1.3845    0.2201 C.ar      1 <0>        -0.1527
      2 C2          1.1450    2.1004    0.2137 C.ar      1 <0>        -0.0281
      3 C3          2.3789    1.4278    0.1561 C.ar      1 <0>        -0.0734
      4 C4          3.5900    2.1348    0.1490 C.ar      1 <0>        -0.0390
      5 C5          4.7872    1.4358    0.0924 C.ar      1 <0>         0.0673
      6 C6          4.7904    0.0282    0.0424 C.ar      1 <0>        -0.0786
      7 C7          3.6277   -0.6703    0.0486 C.ar      1 <0>        -0.1448
      8 C8          2.3967    0.0102    0.1055 C.ar      1 <0>         0.0349
      9 C9          1.1812   -0.6926    0.1140 C.ar      1 <0>        -0.6730
     10 C10         0.0053   -0.0077    0.1705 C.ar      1 <0>         0.0193
     11 S1          1.1771   -2.4535    0.0514 S.o2      1 <0>         2.7015
     12 O1          2.1000   -2.8971    1.0366 O.2       1 <0>        -0.9563
     13 O2         -0.1855   -2.8566    0.0475 O.2       1 <0>        -0.9662
     14 N1          1.8047   -2.8927   -1.4168 N.pl3     1 <0>        -1.2497
     15 N2          5.9702    2.1170    0.0847 N.2       1 <0>        -0.2532
     16 N3          7.0858    1.4716    0.0321 N.2       1 <0>        -0.1805
     17 C11         8.2658    2.1510    0.0244 C.ar      1 <0>         0.0262
     18 C12         8.2856    3.5410    0.0785 C.ar      1 <0>        -0.0533
     19 C13         9.4897    4.2301    0.0700 C.ar      1 <0>        -0.1438
     20 C14        10.6870    3.5842    0.0092 C.ar      1 <0>        -0.0523
     21 C15        10.7432    2.1815   -0.0477 C.ar      1 <0>         0.0027
     22 C16         9.5394    1.4351   -0.0348 C.ar      1 <0>        -0.0131
     23 C17         9.5913    0.0375   -0.0853 C.ar      1 <0>        -0.0825
     24 C18        10.8003   -0.5904   -0.1397 C.ar      1 <0>        -0.1202
     25 C19        11.9862    0.1400   -0.1454 C.ar      1 <0>        -0.0296
     26 C20        11.9716    1.5013   -0.1123 C.ar      1 <0>        -0.6339
     27 S2         13.4847    2.4040   -0.1221 S.o2      1 <0>         2.6916
     28 O3         13.8027    2.7105    1.2639 O.2       1 <0>        -1.0547
     29 O4         14.4863    1.5430   -0.7317 O.2       1 <0>        -1.0566
     30 O5         13.2534    3.6076   -0.9055 O.3       1 <0>        -1.0546
     31 H1         -0.9589    1.9030    0.2689 H         1 <0>         0.1388
     32 H2          1.1163    3.1793    0.2522 H         1 <0>         0.1413
     33 H3          3.5909    3.2142    0.1869 H         1 <0>         0.1461
     34 H4          5.7305   -0.5016   -0.0018 H         1 <0>         0.1445
     35 H5          3.6463   -1.7494    0.0095 H         1 <0>         0.1422
     36 H6         -0.9274   -0.5521    0.1772 H         1 <0>         0.1483
     37 H7          2.0891   -2.2114   -2.0461 H         1 <0>         0.4185
     38 H8          1.8879   -3.8311   -1.6476 H         1 <0>         0.4222
     39 H9          7.3558    4.0883    0.1272 H         1 <0>         0.1393
     40 H10         9.4772    5.3092    0.1124 H         1 <0>         0.1339
     41 H11        11.6030    4.1562    0.0042 H         1 <0>         0.1699
     42 H12         8.6789   -0.5403   -0.0808 H         1 <0>         0.1329
     43 H13        10.8389   -1.6690   -0.1787 H         1 <0>         0.1290
     44 H14        12.9313   -0.3808   -0.1883 H         1 <0>         0.1399
@<TRIPOS>BOND
     1    1   10 ar
     2    1    2 ar
     3    1   31 1
     4    2    3 ar
     5    2   32 1
     6    3    8 ar
     7    3    4 ar
     8    4    5 ar
     9    4   33 1
    10    5    6 ar
    11    5   15 1
    12    6    7 ar
    13    6   34 1
    14    7    8 ar
    15    7   35 1
    16    8    9 ar
    17    9   10 ar
    18    9   11 1
    19   10   36 1
    20   11   12 2
    21   11   13 2
    22   11   14 1
    23   14   37 1
    24   14   38 1
    25   15   16 2
    26   16   17 1
    27   17   22 ar
    28   17   18 ar
    29   18   19 ar
    30   18   39 1
    31   19   20 ar
    32   19   40 1
    33   20   21 ar
    34   20   41 1
    35   21   26 ar
    36   21   22 ar
    37   22   23 ar
    38   23   24 ar
    39   23   42 1
    40   24   25 ar
    41   24   43 1
    42   25   26 ar
    43   25   44 1
    44   26   27 1
    45   27   28 2
    46   27   29 2
    47   27   30 1
