@<TRIPOS>MOLECULE
ZINC03931735
   29    30     0     0     0
SMALL
USER_CHARGES
6,7,8-trihydroxy-9-(hydroxymethyl)-2-thioxo-10-oxa-1,3-diazaspiro[4.5]decan-4-one
@<TRIPOS>ATOM
      1 C1         -0.7295    1.5796    1.2663 C.3       1 <0>         0.0841
      2 C2         -0.0127    1.0858    0.0080 C.3       1 <0>         0.0484
      3 H1          0.0021   -0.0041    0.0020 H         1 <0>         0.1039
      4 C3          1.4234    1.6160   -0.0029 C.3       1 <0>         0.0521
      5 H2          1.4097    2.7053    0.0353 H         1 <0>         0.0852
      6 C4          2.1200    1.1576   -1.2879 C.3       1 <0>         0.0774
      7 H3          2.1700    0.0690   -1.3074 H         1 <0>         0.0941
      8 C5          1.3174    1.6559   -2.4947 C.3       1 <0>         0.1008
      9 H4          1.3228    2.7458   -2.5105 H         1 <0>         0.1014
     10 C6         -0.1197    1.1551   -2.3849 C.3       1 <0>         0.2883
     11 O1         -0.7025    1.5598   -1.1513 O.3       1 <0>        -0.3288
     12 C7         -0.1642   -0.3492   -2.5240 C.2       1 <0>         0.5153
     13 O2          0.3628   -1.1688   -1.8025 O.2       1 <0>        -0.4296
     14 N1         -0.9135   -0.5880   -3.6202 N.am      1 <0>        -0.6299
     15 C8         -1.3410    0.5491   -4.1824 C.2       1 <0>         0.5579
     16 S1         -2.3145    0.6084   -5.5894 S.2       1 <0>        -0.5079
     17 N2         -0.9188    1.6413   -3.5172 N.pl3     1 <0>        -0.6338
     18 O3          1.9058    1.1575   -3.6978 O.3       1 <0>        -0.5463
     19 O4          3.4421    1.6980   -1.3342 O.3       1 <0>        -0.5531
     20 O5          2.1290    1.1065    1.1305 O.3       1 <0>        -0.5479
     21 O6         -2.0303    0.9919    1.3351 O.3       1 <0>        -0.5609
     22 H5         -0.1548    1.2942    2.1474 H         1 <0>         0.0731
     23 H6         -0.8227    2.6649    1.2291 H         1 <0>         0.0646
     24 H7         -1.1174   -1.4738   -3.9589 H         1 <0>         0.4489
     25 H8         -1.1054    2.5664   -3.7417 H         1 <0>         0.4592
     26 H9          2.8226    1.4344   -3.8313 H         1 <0>         0.4061
     27 H10         4.0034    1.4282   -0.5944 H         1 <0>         0.3996
     28 H11         1.7400    1.3548    1.9803 H         1 <0>         0.3883
     29 H12        -2.5430    1.2609    2.1096 H         1 <0>         0.3893
@<TRIPOS>BOND
     1    1    2 1
     2    1   21 1
     3    1   22 1
     4    1   23 1
     5    2    3 1
     6    2   11 1
     7    2    4 1
     8    4    5 1
     9    4    6 1
    10    4   20 1
    11    6    7 1
    12    6    8 1
    13    6   19 1
    14    8    9 1
    15    8   10 1
    16    8   18 1
    17   10   17 1
    18   10   11 1
    19   10   12 1
    20   12   13 2
    21   12   14 am
    22   14   15 1
    23   14   24 1
    24   15   16 2
    25   15   17 1
    26   17   25 1
    27   18   26 1
    28   19   27 1
    29   20   28 1
    30   21   29 1
