@<TRIPOS>MOLECULE
ZINC03776693
   48    49     0     0     0
SMALL
USER_CHARGES

@<TRIPOS>ATOM
      1 C1          0.0827    1.4075    0.3664 C.3       1 <0>        -0.1765
      2 C2          0.0435   -0.1185    0.2629 C.3       1 <0>         0.1046
      3 N1         -1.3469   -0.5642    0.1433 N.pl3     1 <0>        -0.4909
      4 C3         -2.0717   -0.8441    1.2677 C.2       1 <0>         0.2483
      5 C4         -3.1984   -1.5740    1.1994 C.2       1 <0>        -0.3154
      6 C5         -3.7052   -2.1195   -0.1050 C.3       1 <0>         0.0790
      7 H1         -4.7831   -1.9681   -0.1625 H         1 <0>         0.0892
      8 C6         -3.0465   -1.4281   -1.2648 C.2       1 <0>        -0.2220
      9 C7         -1.9208   -0.6944   -1.1007 C.2       1 <0>         0.0674
     10 C8         -1.2971   -0.0288   -2.2715 C.2       1 <0>         0.5838
     11 O1         -1.5678    1.1345   -2.5287 O.co2     1 <0>        -0.6871
     12 O2         -0.5130   -0.6442   -2.9780 O.co2     1 <0>        -0.6877
     13 C9         -3.6364   -1.5464   -2.5996 C.2       1 <0>         0.5234
     14 O3         -3.1743   -0.9022   -3.5324 O.co2     1 <0>        -0.6574
     15 O4         -4.5918   -2.2896   -2.7829 O.co2     1 <0>        -0.7051
     16 C10        -3.4075   -3.5952   -0.1745 C.ar      1 <0>        -0.0122
     17 C11        -2.1011   -4.0410   -0.1013 C.ar      1 <0>        -0.0958
     18 C12        -1.8278   -5.3944   -0.1650 C.ar      1 <0>        -0.1290
     19 C13        -2.8609   -6.3031   -0.3020 C.ar      1 <0>        -0.1338
     20 C14        -4.1673   -5.8586   -0.3752 C.ar      1 <0>        -0.1278
     21 C15        -4.4419   -4.5042   -0.3058 C.ar      1 <0>         0.0023
     22 Cl1        -6.0833   -3.9454   -0.3912 Cl        1 <0>        -0.0617
     23 C16        -3.9242   -1.8350    2.3848 C.2       1 <0>         0.5272
     24 O5         -3.5267   -1.4005    3.4497 O.2       1 <0>        -0.5608
     25 O6         -5.0575   -2.5659    2.3350 O.3       1 <0>        -0.3308
     26 C17        -5.7394   -2.7905    3.5705 C.3       1 <0>         0.0814
     27 C18        -6.7503   -1.6666    3.8067 C.3       1 <0>        -0.1670
     28 C19        -6.4727   -4.1321    3.5118 C.3       1 <0>        -0.1449
     29 C20        -1.6009   -0.3276    2.6028 C.3       1 <0>        -0.1105
     30 H2          1.1172    1.7392    0.4554 H         1 <0>         0.0579
     31 H3         -0.3631    1.8439   -0.5275 H         1 <0>         0.0870
     32 H4         -0.4781    1.7267    1.2449 H         1 <0>         0.0508
     33 H5          0.6043   -0.4376   -0.6156 H         1 <0>         0.0953
     34 H6          0.4893   -0.5548    1.1568 H         1 <0>         0.0711
     35 H7         -1.2937   -3.3317    0.0053 H         1 <0>         0.1170
     36 H8         -0.8070   -5.7423   -0.1081 H         1 <0>         0.1137
     37 H9         -2.6467   -7.3605   -0.3520 H         1 <0>         0.1153
     38 H10        -4.9742   -6.5685   -0.4825 H         1 <0>         0.1187
     39 H11        -5.0170   -2.8068    4.3866 H         1 <0>         0.0735
     40 H12        -6.2279   -0.7109    3.8486 H         1 <0>         0.0591
     41 H13        -7.4728   -1.6504    2.9907 H         1 <0>         0.0630
     42 H14        -7.2705   -1.8379    4.7492 H         1 <0>         0.0606
     43 H15        -5.7525   -4.9327    3.3435 H         1 <0>         0.0609
     44 H16        -6.9929   -4.3034    4.4542 H         1 <0>         0.0641
     45 H17        -7.1952   -4.1158    2.6958 H         1 <0>         0.0663
     46 H18        -0.6790    0.2383    2.4689 H         1 <0>         0.0581
     47 H19        -2.3656    0.3197    3.0322 H         1 <0>         0.0907
     48 H20        -1.4176   -1.1674    3.2731 H         1 <0>         0.0867
@<TRIPOS>BOND
     1    1    2 1
     2    1   30 1
     3    1   31 1
     4    1   32 1
     5    2    3 1
     6    2   33 1
     7    2   34 1
     8    3    9 1
     9    3    4 1
    10    4    5 2
    11    4   29 1
    12    5    6 1
    13    5   23 1
    14    6    7 1
    15    6    8 1
    16    6   16 1
    17    8    9 2
    18    8   13 1
    19    9   10 1
    20   10   11 2
    21   10   12 1
    22   13   14 2
    23   13   15 1
    24   16   21 ar
    25   16   17 ar
    26   17   18 ar
    27   17   35 1
    28   18   19 ar
    29   18   36 1
    30   19   20 ar
    31   19   37 1
    32   20   21 ar
    33   20   38 1
    34   21   22 1
    35   23   24 2
    36   23   25 1
    37   25   26 1
    38   26   27 1
    39   26   28 1
    40   26   39 1
    41   27   40 1
    42   27   41 1
    43   27   42 1
    44   28   43 1
    45   28   44 1
    46   28   45 1
    47   29   46 1
    48   29   47 1
    49   29   48 1
@<TRIPOS>MOLECULE
ZINC03993547
   48    49     0     0     0
SMALL
USER_CHARGES

@<TRIPOS>ATOM
      1 C1          1.0052   -0.9820    0.0129 C.3       1 <0>        -0.1754
      2 C2         -0.0333    0.1392    0.0856 C.3       1 <0>         0.1044
      3 N1         -1.3791   -0.4389    0.0525 N.pl3     1 <0>        -0.4905
      4 C3         -1.9880   -0.8143    1.2172 C.2       1 <0>         0.2484
      5 C4         -3.3167   -1.0112    1.2697 C.2       1 <0>        -0.3156
      6 C5         -4.1893   -0.8199    0.0622 C.3       1 <0>         0.0787
      7 H1         -4.9038   -1.6408    0.0024 H         1 <0>         0.0890
      8 C6         -3.3645   -0.7901   -1.1931 C.2       1 <0>        -0.2218
      9 C7         -2.0284   -0.5969   -1.1505 C.2       1 <0>         0.0669
     10 C8         -1.2526   -0.5597   -2.4152 C.2       1 <0>         0.5839
     11 O1         -1.1514    0.4858   -3.0393 O.co2     1 <0>        -0.6885
     12 O2         -0.7150   -1.5745   -2.8322 O.co2     1 <0>        -0.6871
     13 C9         -4.0230   -0.9696   -2.4885 C.2       1 <0>         0.5236
     14 O3         -3.3524   -1.0613   -3.5086 O.co2     1 <0>        -0.6572
     15 O4         -5.2442   -1.0280   -2.5514 O.co2     1 <0>        -0.7049
     16 C10        -4.9386    0.4811    0.1931 C.ar      1 <0>        -0.0123
     17 C11        -4.2439    1.6719    0.2940 C.ar      1 <0>        -0.0952
     18 C12        -4.9310    2.8652    0.4140 C.ar      1 <0>        -0.1292
     19 C13        -6.3135    2.8686    0.4332 C.ar      1 <0>        -0.1334
     20 C14        -7.0091    1.6787    0.3324 C.ar      1 <0>        -0.1284
     21 C15        -6.3218    0.4843    0.2065 C.ar      1 <0>         0.0030
     22 Cl1        -7.1951   -1.0101    0.0733 Cl        1 <0>        -0.0618
     23 C16        -3.9073   -1.4086    2.4916 C.2       1 <0>         0.5273
     24 O5         -3.2142   -1.5683    3.4789 O.2       1 <0>        -0.5607
     25 O6         -5.2397   -1.6109    2.5627 O.3       1 <0>        -0.3309
     26 C17        -5.7685   -2.0111    3.8285 C.3       1 <0>         0.0812
     27 C18        -6.1482   -0.7697    4.6382 C.3       1 <0>        -0.1647
     28 C19        -7.0104   -2.8779    3.6113 C.3       1 <0>        -0.1464
     29 C20        -1.1582   -1.0107    2.4597 C.3       1 <0>        -0.1109
     30 H2          2.0065   -0.5520    0.0374 H         1 <0>         0.0582
     31 H3          0.8766   -1.6521    0.8629 H         1 <0>         0.0513
     32 H4          0.8724   -1.5408   -0.9135 H         1 <0>         0.0852
     33 H5          0.0995    0.6979    1.0120 H         1 <0>         0.0707
     34 H6          0.0953    0.8092   -0.7645 H         1 <0>         0.0960
     35 H7         -3.1640    1.6699    0.2793 H         1 <0>         0.1169
     36 H8         -4.3878    3.7953    0.4931 H         1 <0>         0.1137
     37 H9         -6.8498    3.8012    0.5273 H         1 <0>         0.1152
     38 H10        -8.0890    1.6815    0.3478 H         1 <0>         0.1185
     39 H11        -5.0166   -2.5833    4.3719 H         1 <0>         0.0737
     40 H12        -5.2634   -0.1522    4.7929 H         1 <0>         0.0578
     41 H13        -6.9002   -0.1975    4.0948 H         1 <0>         0.0626
     42 H14        -6.5516   -1.0750    5.6037 H         1 <0>         0.0601
     43 H15        -6.7399   -3.7623    3.0345 H         1 <0>         0.0615
     44 H16        -7.4138   -3.1832    4.5768 H         1 <0>         0.0646
     45 H17        -7.7624   -2.3057    3.0680 H         1 <0>         0.0664
     46 H18        -0.1213   -0.7485    2.2493 H         1 <0>         0.0581
     47 H19        -1.5400   -0.3721    3.2563 H         1 <0>         0.0896
     48 H20        -1.2131   -2.0535    2.7722 H         1 <0>         0.0883
@<TRIPOS>BOND
     1    1    2 1
     2    1   30 1
     3    1   31 1
     4    1   32 1
     5    2    3 1
     6    2   33 1
     7    2   34 1
     8    3    9 1
     9    3    4 1
    10    4    5 2
    11    4   29 1
    12    5    6 1
    13    5   23 1
    14    6    7 1
    15    6    8 1
    16    6   16 1
    17    8    9 2
    18    8   13 1
    19    9   10 1
    20   10   11 2
    21   10   12 1
    22   13   14 2
    23   13   15 1
    24   16   21 ar
    25   16   17 ar
    26   17   18 ar
    27   17   35 1
    28   18   19 ar
    29   18   36 1
    30   19   20 ar
    31   19   37 1
    32   20   21 ar
    33   20   38 1
    34   21   22 1
    35   23   24 2
    36   23   25 1
    37   25   26 1
    38   26   27 1
    39   26   28 1
    40   26   39 1
    41   27   40 1
    42   27   41 1
    43   27   42 1
    44   28   43 1
    45   28   44 1
    46   28   45 1
    47   29   46 1
    48   29   47 1
    49   29   48 1
@<TRIPOS>MOLECULE
ZINC13673990
   43    44     0     0     0
SMALL
USER_CHARGES
2-chloro-4,5-difluoro-N-[[2-methoxy-5-(methylcarbamoylamino)phenyl]carbamoyl]benzamide
@<TRIPOS>ATOM
      1 C1          0.9031   -0.7250   -1.2899 C.3       1 <0>         0.1046
      2 N1         -0.1820   -0.0102   -0.6133 N.am      1 <0>        -0.7453
      3 C2         -0.2068    1.3373   -0.6175 C.2       1 <0>         0.7026
      4 O1          0.6714    1.9598   -1.1829 O.2       1 <0>        -0.5718
      5 N2         -1.2081    1.9948    0.0003 N.am      1 <0>        -0.6804
      6 C3         -1.1708    3.3920    0.1025 C.ar      1 <0>         0.1522
      7 C4          0.0485    4.0562    0.0932 C.ar      1 <0>        -0.0978
      8 C5          0.0879    5.4344    0.1882 C.ar      1 <0>        -0.1666
      9 C6         -1.0887    6.1563    0.3044 C.ar      1 <0>         0.0881
     10 C7         -2.3134    5.4931    0.3198 C.ar      1 <0>         0.1486
     11 C8         -2.3521    4.1107    0.2188 C.ar      1 <0>        -0.1144
     12 N3         -3.5046    6.2218    0.4378 N.am      1 <0>        -0.6651
     13 C9         -4.5447    5.7066    1.1228 C.2       1 <0>         0.6993
     14 O2         -4.4802    4.5769    1.5669 O.2       1 <0>        -0.5102
     15 N4         -5.6563    6.4439    1.3155 N.am      1 <0>        -0.6842
     16 C10        -6.6964    5.9287    2.0005 C.2       1 <0>         0.5644
     17 O3         -6.6319    4.7992    2.4446 O.2       1 <0>        -0.4275
     18 C11        -7.9135    6.7360    2.2114 C.ar      1 <0>        -0.1168
     19 C12        -7.9905    8.0351    1.7020 C.ar      1 <0>        -0.0803
     20 C13        -9.1309    8.7851    1.9024 C.ar      1 <0>         0.0707
     21 C14       -10.2013    8.2508    2.6086 C.ar      1 <0>         0.1173
     22 C15       -10.1302    6.9636    3.1152 C.ar      1 <0>        -0.1254
     23 C16        -8.9960    6.2022    2.9166 C.ar      1 <0>         0.0330
     24 Cl1        -8.9117    4.5868    3.5467 Cl        1 <0>         0.0029
     25 F1        -11.3160    8.9893    2.8016 F         1 <0>        -0.1099
     26 F2         -9.2071   10.0411    1.4106 F         1 <0>        -0.1145
     27 O4         -1.0480    7.5126    0.4030 O.3       1 <0>        -0.3206
     28 C17         0.2424    8.1263    0.3804 C.3       1 <0>         0.0283
     29 H1          0.9049   -0.4649   -2.3484 H         1 <0>         0.0610
     30 H2          1.8572   -0.4426   -0.8448 H         1 <0>         0.0612
     31 H3          0.7546   -1.7992   -1.1799 H         1 <0>         0.0787
     32 H4         -0.8826   -0.5068   -0.1622 H         1 <0>         0.4006
     33 H5         -1.9546    1.5009    0.3741 H         1 <0>         0.4097
     34 H6          0.9674    3.4952    0.0071 H         1 <0>         0.1502
     35 H7          1.0374    5.9489    0.1762 H         1 <0>         0.1377
     36 H8         -3.3004    3.5941    0.2308 H         1 <0>         0.1520
     37 H9         -3.5806    7.0969    0.0264 H         1 <0>         0.4138
     38 H10        -5.7078    7.3454    0.9611 H         1 <0>         0.4097
     39 H11        -7.1588    8.4512    1.1528 H         1 <0>         0.1601
     40 H12       -10.9656    6.5532    3.6632 H         1 <0>         0.1692
     41 H13         0.8364    7.7540    1.2151 H         1 <0>         0.0569
     42 H14         0.7428    7.8857   -0.5576 H         1 <0>         0.0575
     43 H15         0.1322    9.2073    0.4665 H         1 <0>         0.1008
@<TRIPOS>BOND
     1    1    2 1
     2    1   29 1
     3    1   30 1
     4    1   31 1
     5    2    3 am
     6    2   32 1
     7    3    4 2
     8    3    5 am
     9    5    6 1
    10    5   33 1
    11    6   11 ar
    12    6    7 ar
    13    7    8 ar
    14    7   34 1
    15    8    9 ar
    16    8   35 1
    17    9   10 ar
    18    9   27 1
    19   10   11 ar
    20   10   12 1
    21   11   36 1
    22   12   13 am
    23   12   37 1
    24   13   14 2
    25   13   15 am
    26   15   16 am
    27   15   38 1
    28   16   17 2
    29   16   18 1
    30   18   23 ar
    31   18   19 ar
    32   19   20 ar
    33   19   39 1
    34   20   21 ar
    35   20   26 1
    36   21   22 ar
    37   21   25 1
    38   22   23 ar
    39   22   40 1
    40   23   24 1
    41   27   28 1
    42   28   41 1
    43   28   42 1
    44   28   43 1
@<TRIPOS>MOLECULE
ZINC03813668
   24    24     0     0     0
SMALL
USER_CHARGES
5-(hydroxymethyl)piperidine-3,4-diol
@<TRIPOS>ATOM
      1 C1         -0.0127    1.0858    0.0080 C.3       1 <0>         0.0019
      2 C2         -0.7286    1.5791    1.2674 C.3       1 <0>        -0.1023
      3 H1         -0.7316    2.6691    1.2810 H         1 <0>         0.1126
      4 C3         -2.1703    1.0639    1.2644 C.3       1 <0>         0.1089
      5 H2         -2.1688   -0.0258    1.2907 H         1 <0>         0.0820
      6 C4         -2.8727    1.5441   -0.0087 C.3       1 <0>         0.0566
      7 H3         -2.9100    2.6334   -0.0156 H         1 <0>         0.0901
      8 C5         -2.0949    1.0518   -1.2313 C.3       1 <0>        -0.0409
      9 O1         -4.2019    1.0209   -0.0465 O.3       1 <0>        -0.5391
     10 O2         -2.8602    1.5683    2.4096 O.3       1 <0>        -0.5462
     11 C6         -0.0015    1.0541    2.5071 C.3       1 <0>         0.0845
     12 O3          1.3073    1.6242    2.5688 O.3       1 <0>        -0.5791
     13 H4          0.0021   -0.0041    0.0020 H         1 <0>         0.1346
     14 H5          1.0099    1.4629    0.0003 H         1 <0>         0.1504
     15 H6         -2.5844    1.4040   -2.1392 H         1 <0>         0.1385
     16 H7         -2.0703   -0.0380   -1.2313 H         1 <0>         0.1401
     17 H8         -4.7056    1.2828   -0.8292 H         1 <0>         0.4002
     18 H9         -3.7828    1.2851    2.4693 H         1 <0>         0.4024
     19 H10        -0.5609    1.3308    3.4008 H         1 <0>         0.0787
     20 H11         0.0774   -0.0315    2.4494 H         1 <0>         0.0582
     21 H12         1.8268    1.3350    3.3314 H         1 <0>         0.4003
     22 N1         -0.7177    1.5794   -1.1903 N.4       1 <0>        -0.5113
     23 H13        -0.2128    1.2727   -2.0301 H         1 <0>         0.4429
     24 H14        -0.7491    2.6054   -1.1656 H         1 <0>         0.4358
@<TRIPOS>BOND
     1    1    2 1
     2    1   13 1
     3    1   14 1
     4    1   22 1
     5    2    3 1
     6    2    4 1
     7    2   11 1
     8    4    5 1
     9    4    6 1
    10    4   10 1
    11    6    7 1
    12    6    8 1
    13    6    9 1
    14    8   15 1
    15    8   16 1
    16    8   22 1
    17    9   17 1
    18   10   18 1
    19   11   12 1
    20   11   19 1
    21   11   20 1
    22   12   21 1
    23   22   23 1
    24   22   24 1
@<TRIPOS>MOLECULE
ZINC01492250
   21    21     0     0     0
SMALL
USER_CHARGES

@<TRIPOS>ATOM
      1 C1         -0.0181    1.4814    0.0102 C.3       1 <0>        -0.0360
      2 C2          1.4704    1.8907   -0.0018 C.3       1 <0>         0.0487
      3 H1          1.6139    2.7789   -0.6172 H         1 <0>         0.1181
      4 C3          2.2123    0.6866   -0.6178 C.3       1 <0>         0.1006
      5 H2          2.9273    0.2771    0.0957 H         1 <0>         0.1105
      6 C4          1.1096   -0.3490   -0.9261 C.3       1 <0>         0.0419
      7 H3          0.7806   -0.2572   -1.9612 H         1 <0>         0.1632
      8 N1          0.0021   -0.0041    0.0020 N.4       1 <0>        -0.5084
      9 C5          1.6169   -1.7662   -0.6523 C.3       1 <0>         0.0591
     10 O1          0.6246   -2.7131   -1.0532 O.3       1 <0>        -0.5766
     11 O2          2.8797    1.0767   -1.8196 O.3       1 <0>        -0.5400
     12 O3          1.9299    2.1310    1.3298 O.3       1 <0>        -0.5502
     13 H4         -0.5064    1.8500    0.9123 H         1 <0>         0.1450
     14 H5         -0.5235    1.8596   -0.8784 H         1 <0>         0.1478
     15 H6          0.1931   -0.3595    0.9268 H         1 <0>         0.4333
     16 H7          2.5333   -1.9394   -1.2164 H         1 <0>         0.1010
     17 H8          1.8188   -1.8804    0.4128 H         1 <0>         0.0752
     18 H9          0.8790   -3.6347   -0.9082 H         1 <0>         0.4115
     19 H10         3.5534    1.7585   -1.6919 H         1 <0>         0.4100
     20 H11         1.4670    2.8496    1.7819 H         1 <0>         0.4029
     21 H12        -0.8738   -0.3670   -0.3434 H         1 <0>         0.4424
@<TRIPOS>BOND
     1    1    8 1
     2    1    2 1
     3    1   13 1
     4    1   14 1
     5    2    3 1
     6    2    4 1
     7    2   12 1
     8    4    5 1
     9    4    6 1
    10    4   11 1
    11    6    7 1
    12    6    8 1
    13    6    9 1
    14    8   15 1
    15    8   21 1
    16    9   10 1
    17    9   16 1
    18    9   17 1
    19   10   18 1
    20   11   19 1
    21   12   20 1
@<TRIPOS>MOLECULE
ZINC13980679
   46    49     0     0     0
SMALL
USER_CHARGES
2-chloro-N-[(3S)-1-[(2R)-2,3-dihydroxypropyl]-2-oxo-3,4-dihydroquinolin-3-yl]-6H-thieno[3,2-d]pyrrole-5-carboxamide
@<TRIPOS>ATOM
      1 C1          1.1709    2.0855    0.0021 C.ar      1 <0>        -0.1412
      2 C2         -0.0166    1.3766    0.0096 C.ar      1 <0>        -0.0818
      3 C3          0.0021   -0.0041    0.0020 C.ar      1 <0>        -0.1574
      4 C4          1.2140   -0.6818   -0.0179 C.ar      1 <0>         0.1686
      5 C5          2.4043    0.0328   -0.0112 C.ar      1 <0>        -0.1363
      6 C6          2.3795    1.4140   -0.0072 C.ar      1 <0>        -0.0781
      7 C7          3.7236   -0.6958   -0.0024 C.3       1 <0>        -0.0893
      8 C8          3.5945   -2.0052   -0.7811 C.3       1 <0>         0.1402
      9 H1          4.4751   -2.6217   -0.6006 H         1 <0>         0.1333
     10 C9          2.3633   -2.7462   -0.3300 C.2       1 <0>         0.5140
     11 O1          2.3896   -3.9552   -0.2367 O.2       1 <0>        -0.4908
     12 N1          1.2355   -2.0791   -0.0304 N.am      1 <0>        -0.5413
     13 C10         0.0153   -2.8252    0.2870 C.3       1 <0>         0.0709
     14 C11        -0.7766   -3.0780   -0.9975 C.3       1 <0>         0.0917
     15 H2         -0.9655   -2.1296   -1.5005 H         1 <0>         0.1061
     16 C12        -2.1089   -3.7463   -0.6521 C.3       1 <0>         0.0463
     17 O2         -2.8975   -3.8767   -1.8366 O.3       1 <0>        -0.5612
     18 O3         -0.0242   -3.9333   -1.8603 O.3       1 <0>        -0.5413
     19 N2          3.4898   -1.7124   -2.2127 N.am      1 <0>        -0.7174
     20 C13         3.8699   -2.6349   -3.1188 C.2       1 <0>         0.5954
     21 O4          4.3001   -3.7113   -2.7476 O.2       1 <0>        -0.4975
     22 C14         3.7652   -2.3421   -4.5502 C.2       1 <0>        -0.0211
     23 C15         4.1139   -3.1845   -5.5611 C.2       1 <0>        -0.0447
     24 C16         3.8593   -2.5240   -6.7984 C.2       1 <0>        -0.1798
     25 C17         3.9722   -2.7702   -8.2315 C.2       1 <0>        -0.0683
     26 C18         3.5932   -1.8108   -9.0885 C.2       1 <0>        -0.1368
     27 S1          3.0522   -0.4927   -8.0175 S.3       1 <0>         0.1579
     28 C19         3.3504   -1.2690   -6.4501 C.2       1 <0>         0.0175
     29 N3          3.2895   -1.1649   -5.1014 N.pl3     1 <0>        -0.5019
     30 H3          2.9694   -0.3950   -4.6057 H         1 <0>         0.4232
     31 Cl1         3.6236   -1.8441  -10.8239 Cl        1 <0>         0.0218
     32 H4          1.1542    3.1653    0.0034 H         1 <0>         0.1281
     33 H5         -0.9594    1.9034    0.0169 H         1 <0>         0.1298
     34 H6         -0.9257   -0.5568    0.0112 H         1 <0>         0.1273
     35 H7          3.3053    1.9701   -0.0116 H         1 <0>         0.1314
     36 H8          4.0113   -0.9126    1.0264 H         1 <0>         0.1041
     37 H9          4.4855   -0.0706   -0.4679 H         1 <0>         0.1021
     38 H10         0.2808   -3.7786    0.7438 H         1 <0>         0.1018
     39 H11        -0.5939   -2.2467    0.9815 H         1 <0>         0.0974
     40 H12        -1.9214   -4.7336   -0.2298 H         1 <0>         0.0533
     41 H13        -2.6439   -3.1357    0.0753 H         1 <0>         0.0561
     42 H14        -3.7581   -4.2934   -1.6922 H         1 <0>         0.3825
     43 H15         0.1808   -4.7970   -1.4768 H         1 <0>         0.3782
     44 H16         3.1469   -0.8545   -2.5085 H         1 <0>         0.3996
     45 H17         4.5143   -4.1808   -5.4457 H         1 <0>         0.1607
     46 H18         4.3551   -3.7115   -8.5973 H         1 <0>         0.1469
@<TRIPOS>BOND
     1    1    6 ar
     2    1    2 ar
     3    1   32 1
     4    2    3 ar
     5    2   33 1
     6    3    4 ar
     7    3   34 1
     8    4   12 1
     9    4    5 ar
    10    5    6 ar
    11    5    7 1
    12    6   35 1
    13    7    8 1
    14    7   36 1
    15    7   37 1
    16    8    9 1
    17    8   10 1
    18    8   19 1
    19   10   11 2
    20   10   12 am
    21   12   13 1
    22   13   14 1
    23   13   38 1
    24   13   39 1
    25   14   15 1
    26   14   16 1
    27   14   18 1
    28   16   17 1
    29   16   40 1
    30   16   41 1
    31   17   42 1
    32   18   43 1
    33   19   20 am
    34   19   44 1
    35   20   21 2
    36   20   22 1
    37   22   29 1
    38   22   23 2
    39   23   24 1
    40   23   45 1
    41   24   28 2
    42   24   25 1
    43   25   26 2
    44   25   46 1
    45   26   27 1
    46   26   31 1
    47   27   28 1
    48   28   29 1
    49   29   30 1
@<TRIPOS>MOLECULE
ZINC03931735
   29    30     0     0     0
SMALL
USER_CHARGES
6,7,8-trihydroxy-9-(hydroxymethyl)-2-thioxo-10-oxa-1,3-diazaspiro[4.5]decan-4-one
@<TRIPOS>ATOM
      1 C1         -0.7295    1.5796    1.2663 C.3       1 <0>         0.0841
      2 C2         -0.0127    1.0858    0.0080 C.3       1 <0>         0.0484
      3 H1          0.0021   -0.0041    0.0020 H         1 <0>         0.1039
      4 C3          1.4234    1.6160   -0.0029 C.3       1 <0>         0.0521
      5 H2          1.4097    2.7053    0.0353 H         1 <0>         0.0852
      6 C4          2.1200    1.1576   -1.2879 C.3       1 <0>         0.0774
      7 H3          2.1700    0.0690   -1.3074 H         1 <0>         0.0941
      8 C5          1.3174    1.6559   -2.4947 C.3       1 <0>         0.1008
      9 H4          1.3228    2.7458   -2.5105 H         1 <0>         0.1014
     10 C6         -0.1197    1.1551   -2.3849 C.3       1 <0>         0.2883
     11 O1         -0.7025    1.5598   -1.1513 O.3       1 <0>        -0.3288
     12 C7         -0.1642   -0.3492   -2.5240 C.2       1 <0>         0.5153
     13 O2          0.3628   -1.1688   -1.8025 O.2       1 <0>        -0.4296
     14 N1         -0.9135   -0.5880   -3.6202 N.am      1 <0>        -0.6299
     15 C8         -1.3410    0.5491   -4.1824 C.2       1 <0>         0.5579
     16 S1         -2.3145    0.6084   -5.5894 S.2       1 <0>        -0.5079
     17 N2         -0.9188    1.6413   -3.5172 N.pl3     1 <0>        -0.6338
     18 O3          1.9058    1.1575   -3.6978 O.3       1 <0>        -0.5463
     19 O4          3.4421    1.6980   -1.3342 O.3       1 <0>        -0.5531
     20 O5          2.1290    1.1065    1.1305 O.3       1 <0>        -0.5479
     21 O6         -2.0303    0.9919    1.3351 O.3       1 <0>        -0.5609
     22 H5         -0.1548    1.2942    2.1474 H         1 <0>         0.0731
     23 H6         -0.8227    2.6649    1.2291 H         1 <0>         0.0646
     24 H7         -1.1174   -1.4738   -3.9589 H         1 <0>         0.4489
     25 H8         -1.1054    2.5664   -3.7417 H         1 <0>         0.4592
     26 H9          2.8226    1.4344   -3.8313 H         1 <0>         0.4061
     27 H10         4.0034    1.4282   -0.5944 H         1 <0>         0.3996
     28 H11         1.7400    1.3548    1.9803 H         1 <0>         0.3883
     29 H12        -2.5430    1.2609    2.1096 H         1 <0>         0.3893
@<TRIPOS>BOND
     1    1    2 1
     2    1   21 1
     3    1   22 1
     4    1   23 1
     5    2    3 1
     6    2   11 1
     7    2    4 1
     8    4    5 1
     9    4    6 1
    10    4   20 1
    11    6    7 1
    12    6    8 1
    13    6   19 1
    14    8    9 1
    15    8   10 1
    16    8   18 1
    17   10   17 1
    18   10   11 1
    19   10   12 1
    20   12   13 2
    21   12   14 am
    22   14   15 1
    23   14   24 1
    24   15   16 2
    25   15   17 1
    26   17   25 1
    27   18   26 1
    28   19   27 1
    29   20   28 1
    30   21   29 1
@<TRIPOS>MOLECULE
ZINC13980680
   46    49     0     0     0
SMALL
USER_CHARGES
2-chloro-N-[(3R)-1-[(2R)-2,3-dihydroxypropyl]-2-oxo-3,4-dihydroquinolin-3-yl]-6H-thieno[3,2-d]pyrrole-5-carboxamide
@<TRIPOS>ATOM
      1 C1          5.7244   -1.9672   -0.4419 C.ar      1 <0>        -0.1414
      2 C2          5.6249   -2.0345   -1.8198 C.ar      1 <0>        -0.0819
      3 C3          4.4039   -2.2857   -2.4136 C.ar      1 <0>        -0.1588
      4 C4          3.2732   -2.4634   -1.6271 C.ar      1 <0>         0.1688
      5 C5          3.3818   -2.4219   -0.2437 C.ar      1 <0>        -0.1353
      6 C6          4.6044   -2.1627    0.3448 C.ar      1 <0>        -0.0782
      7 C7          2.1712   -2.6776    0.6169 C.3       1 <0>        -0.0887
      8 C8          0.9201   -2.1490   -0.0852 C.3       1 <0>         0.1404
      9 H1          0.0333   -2.5142    0.4327 H         1 <0>         0.1340
     10 C9          0.8977   -2.6257   -1.5135 C.2       1 <0>         0.5120
     11 O1         -0.1563   -2.9378   -2.0260 O.2       1 <0>        -0.4880
     12 N1          2.0344   -2.7082   -2.2260 N.am      1 <0>        -0.5402
     13 C10         1.9741   -3.0584   -3.6472 C.3       1 <0>         0.0711
     14 C11         2.2075   -4.5615   -3.8124 C.3       1 <0>         0.0945
     15 H2          3.1452   -4.8387   -3.3309 H         1 <0>         0.1072
     16 C12         2.2773   -4.9061   -5.3014 C.3       1 <0>         0.0458
     17 O2          2.6106   -6.2872   -5.4556 O.3       1 <0>        -0.5615
     18 O3          1.1307   -5.2801   -3.2072 O.3       1 <0>        -0.5419
     19 N2          0.9299   -0.6842   -0.0607 N.am      1 <0>        -0.7197
     20 C13        -0.2296   -0.0012   -0.1354 C.2       1 <0>         0.5914
     21 O4         -1.2850   -0.6014   -0.2232 O.2       1 <0>        -0.4962
     22 C14        -0.2198    1.4633   -0.1108 C.2       1 <0>        -0.0245
     23 C15        -1.3164    2.2666   -0.1844 C.2       1 <0>        -0.0441
     24 C16        -0.8796    3.6222   -0.1256 C.2       1 <0>        -0.1799
     25 C17        -1.4375    4.9697   -0.1453 C.2       1 <0>        -0.0692
     26 C18        -0.6064    6.0193   -0.0670 C.2       1 <0>        -0.1360
     27 S1          1.0037    5.2621    0.0399 S.3       1 <0>         0.1594
     28 C19         0.5134    3.5580   -0.0236 C.2       1 <0>         0.0173
     29 N3          0.9064    2.2623   -0.0150 N.pl3     1 <0>        -0.5027
     30 H3          1.8217    1.9474    0.0481 H         1 <0>         0.4238
     31 Cl1        -1.0033    7.7093   -0.0698 Cl        1 <0>         0.0230
     32 H4          6.6785   -1.7612    0.0203 H         1 <0>         0.1280
     33 H5          6.5030   -1.8900   -2.4318 H         1 <0>         0.1296
     34 H6          4.3283   -2.3443   -3.4894 H         1 <0>         0.1283
     35 H7          4.6854   -2.1128    1.4206 H         1 <0>         0.1313
     36 H8          2.2923   -2.1695    1.5736 H         1 <0>         0.1015
     37 H9          2.0665   -3.7492    0.7866 H         1 <0>         0.1058
     38 H10         0.9933   -2.7972   -4.0445 H         1 <0>         0.1008
     39 H11         2.7438   -2.5095   -4.1897 H         1 <0>         0.0954
     40 H12         1.3102   -4.7118   -5.7651 H         1 <0>         0.0534
     41 H13         3.0400   -4.2926   -5.7810 H         1 <0>         0.0562
     42 H14         2.6722   -6.5765   -6.3763 H         1 <0>         0.3827
     43 H15         0.2751   -5.1411   -3.6358 H         1 <0>         0.3778
     44 H16         1.7708   -0.2059    0.0094 H         1 <0>         0.4000
     45 H17        -2.3404    1.9343   -0.2706 H         1 <0>         0.1613
     46 H18        -2.5042    5.1200   -0.2222 H         1 <0>         0.1473
@<TRIPOS>BOND
     1    1    6 ar
     2    1    2 ar
     3    1   32 1
     4    2    3 ar
     5    2   33 1
     6    3    4 ar
     7    3   34 1
     8    4   12 1
     9    4    5 ar
    10    5    6 ar
    11    5    7 1
    12    6   35 1
    13    7    8 1
    14    7   36 1
    15    7   37 1
    16    8    9 1
    17    8   10 1
    18    8   19 1
    19   10   11 2
    20   10   12 am
    21   12   13 1
    22   13   14 1
    23   13   38 1
    24   13   39 1
    25   14   15 1
    26   14   16 1
    27   14   18 1
    28   16   17 1
    29   16   40 1
    30   16   41 1
    31   17   42 1
    32   18   43 1
    33   19   20 am
    34   19   44 1
    35   20   21 2
    36   20   22 1
    37   22   29 1
    38   22   23 2
    39   23   24 1
    40   23   45 1
    41   24   28 2
    42   24   25 1
    43   25   26 2
    44   25   46 1
    45   26   27 1
    46   26   31 1
    47   27   28 1
    48   28   29 1
    49   29   30 1
@<TRIPOS>MOLECULE
ZINC13780535
   42    44     0     0     0
SMALL
USER_CHARGES
(2R,3S)-3-[(5-chloro1H-indole-2-carbonyl)amino]-2-hydroxy-4-phenyl-butanoic acid
@<TRIPOS>ATOM
      1 C1         -0.0010    3.0365    4.7436 C.ar      1 <0>        -0.1333
      2 C2          0.9771    3.0773    3.7676 C.ar      1 <0>        -0.1221
      3 C3          0.6219    3.2095    2.4382 C.ar      1 <0>        -0.1241
      4 C4         -0.7114    3.3008    2.0848 C.ar      1 <0>        -0.0636
      5 C5         -1.6893    3.2652    3.0613 C.ar      1 <0>        -0.1114
      6 C6         -1.3343    3.1278    4.3902 C.ar      1 <0>        -0.1165
      7 C7         -1.0987    3.4453    0.6356 C.3       1 <0>        -0.1097
      8 C8         -1.2947    2.0587    0.0194 C.3       1 <0>         0.1410
      9 H1         -2.0200    1.4982    0.6092 H         1 <0>         0.0968
     10 C9         -1.8080    2.2058   -1.4144 C.3       1 <0>         0.0520
     11 H2         -1.0827    2.7663   -2.0043 H         1 <0>         0.0523
     12 C10        -3.1232    2.9415   -1.4042 C.2       1 <0>         0.4749
     13 O1         -4.1322    2.3802   -1.7604 O.co2     1 <0>        -0.6051
     14 O2         -1.9911    0.9107   -1.9900 O.3       1 <0>        -0.5299
     15 N1         -0.0162    1.3436    0.0094 N.am      1 <0>        -0.7196
     16 C11         0.0021   -0.0041    0.0020 C.2       1 <0>         0.5685
     17 O3         -1.0430   -0.6266    0.0087 O.2       1 <0>        -0.4960
     18 C12         1.2854   -0.7219   -0.0141 C.2       1 <0>         0.0321
     19 C13         1.4323   -2.0727   -0.0227 C.2       1 <0>        -0.1074
     20 C14         2.8196   -2.3555   -0.0375 C.ar      1 <0>        -0.1065
     21 C15         3.5586   -3.5457   -0.0516 C.ar      1 <0>        -0.0488
     22 C16         4.9230   -3.4976   -0.0641 C.ar      1 <0>        -0.0624
     23 C17         5.5880   -2.2765   -0.0635 C.ar      1 <0>        -0.0845
     24 C18         4.8833   -1.0940   -0.0504 C.ar      1 <0>        -0.1152
     25 C19         3.4913   -1.1175   -0.0373 C.ar      1 <0>         0.1133
     26 N2          2.5337   -0.1305   -0.0288 N.pl3     1 <0>        -0.5738
     27 H3          2.7064    0.8240   -0.0308 H         1 <0>         0.4190
     28 Cl1         5.8358   -4.9742   -0.0807 Cl        1 <0>        -0.0759
     29 H4          0.2766    2.9335    5.7822 H         1 <0>         0.1157
     30 H5          2.0188    3.0063    4.0436 H         1 <0>         0.1148
     31 H6          1.3860    3.2417    1.6757 H         1 <0>         0.1104
     32 H7         -2.7307    3.3410    2.7856 H         1 <0>         0.1267
     33 H8         -2.0984    3.0963    5.1528 H         1 <0>         0.1192
     34 H9         -0.3097    3.9729    0.0996 H         1 <0>         0.0699
     35 H10        -2.0281    4.0102    0.5625 H         1 <0>         0.1471
     36 H11        -1.1838    0.3799   -2.0290 H         1 <0>         0.3478
     37 H12         0.8172    1.8399    0.0041 H         1 <0>         0.3890
     38 H13         0.6341   -2.8001   -0.0187 H         1 <0>         0.1608
     39 H14         3.0504   -4.4987   -0.0515 H         1 <0>         0.1366
     40 H15         6.6677   -2.2556   -0.0736 H         1 <0>         0.1369
     41 H16         5.4088   -0.1505   -0.0507 H         1 <0>         0.1321
     42 O4         -3.1738    4.2203   -0.9994 O.co2     1 <0>        -0.7510
@<TRIPOS>BOND
     1    1    6 ar
     2    1    2 ar
     3    1   29 1
     4    2    3 ar
     5    2   30 1
     6    3    4 ar
     7    3   31 1
     8    4    5 ar
     9    4    7 1
    10    5    6 ar
    11    5   32 1
    12    6   33 1
    13    7    8 1
    14    7   34 1
    15    7   35 1
    16    8    9 1
    17    8   10 1
    18    8   15 1
    19   10   11 1
    20   10   12 1
    21   10   14 1
    22   12   13 2
    23   12   42 1
    24   14   36 1
    25   15   16 am
    26   15   37 1
    27   16   17 2
    28   16   18 1
    29   18   26 1
    30   18   19 2
    31   19   20 1
    32   19   38 1
    33   20   25 ar
    34   20   21 ar
    35   21   22 ar
    36   21   39 1
    37   22   23 ar
    38   22   28 1
    39   23   24 ar
    40   23   40 1
    41   24   25 ar
    42   24   41 1
    43   25   26 1
    44   26   27 1
@<TRIPOS>MOLECULE
ZINC01544567
   50    52     0     0     0
SMALL
USER_CHARGES
N-[1-benzyl-2-(dimethylcarbamoyl)-2-hydroxy-ethyl]-5-chloro-1H-indole-2-carboxamide
@<TRIPOS>ATOM
      1 C1         -2.8177   -1.3987   -2.2078 C.3       1 <0>         0.0955
      2 N1         -2.8144   -0.0406   -1.6587 N.am      1 <0>        -0.6006
      3 C2         -3.8202    0.3515   -0.6682 C.3       1 <0>         0.0737
      4 C3         -1.8862    0.8483   -2.0647 C.2       1 <0>         0.4958
      5 O1         -1.1062    0.5512   -2.9446 O.2       1 <0>        -0.5329
      6 C4         -1.8177    2.2112   -1.4254 C.3       1 <0>         0.0758
      7 H1         -2.8246    2.6162   -1.3241 H         1 <0>         0.1311
      8 C5         -1.1736    2.0941   -0.0425 C.3       1 <0>         0.1263
      9 H2         -1.7578    1.4105    0.5736 H         1 <0>         0.1106
     10 C6         -1.1353    3.4724    0.6207 C.3       1 <0>        -0.0841
     11 C7         -0.6146    3.3381    2.0285 C.ar      1 <0>        -0.0854
     12 C8         -1.4939    3.1217    3.0729 C.ar      1 <0>        -0.1142
     13 C9         -1.0158    2.9938    4.3637 C.ar      1 <0>        -0.1142
     14 C10         0.3406    3.0927    4.6113 C.ar      1 <0>        -0.1195
     15 C11         1.2194    3.3143    3.5675 C.ar      1 <0>        -0.1158
     16 C12         0.7418    3.4370    2.2761 C.ar      1 <0>        -0.1149
     17 N2          0.1915    1.5809   -0.1815 N.am      1 <0>        -0.7245
     18 C13         0.4081    0.2526   -0.2525 C.2       1 <0>         0.5901
     19 O2         -0.5295   -0.5204   -0.1961 O.2       1 <0>        -0.5012
     20 C14         1.7779   -0.2623   -0.3981 C.2       1 <0>         0.0213
     21 C15         2.1216   -1.5743   -0.4801 C.2       1 <0>        -0.0948
     22 C16         3.5296   -1.6437   -0.6121 C.ar      1 <0>        -0.1098
     23 C17         4.4329   -2.7075   -0.7366 C.ar      1 <0>        -0.0482
     24 C18         5.7696   -2.4535   -0.8493 C.ar      1 <0>        -0.0605
     25 C19         6.2446   -1.1468   -0.8422 C.ar      1 <0>        -0.0778
     26 C20         5.3763   -0.0854   -0.7216 C.ar      1 <0>        -0.1175
     27 C21         4.0088   -0.3193   -0.6051 C.ar      1 <0>         0.1185
     28 N3          2.9197    0.5110   -0.4792 N.pl3     1 <0>        -0.5756
     29 H3          2.9487    1.4801   -0.4500 H         1 <0>         0.4170
     30 Cl1         6.8862   -3.7739   -1.0026 Cl        1 <0>        -0.0686
     31 O3         -1.0341    3.0822   -2.2436 O.3       1 <0>        -0.5303
     32 H4         -1.8694   -1.8853   -1.9793 H         1 <0>         0.0663
     33 H5         -3.6344   -1.9681   -1.7641 H         1 <0>         0.0720
     34 H6         -2.9516   -1.3534   -3.2886 H         1 <0>         0.0561
     35 H7         -4.6550    0.8391   -1.1715 H         1 <0>         0.0586
     36 H8         -4.1790   -0.5346   -0.1444 H         1 <0>         0.0785
     37 H9         -3.3747    1.0416    0.0484 H         1 <0>         0.0667
     38 H10        -0.4791    4.1312    0.0518 H         1 <0>         0.0896
     39 H11        -2.1408    3.8926    0.6437 H         1 <0>         0.0968
     40 H12        -2.5540    3.0489    2.8800 H         1 <0>         0.1230
     41 H13        -1.7025    2.8210    5.1792 H         1 <0>         0.1236
     42 H14         0.7137    2.9972    5.6203 H         1 <0>         0.1222
     43 H15         2.2790    3.3920    3.7610 H         1 <0>         0.1214
     44 H16         1.4283    3.6106    1.4607 H         1 <0>         0.1142
     45 H17         0.9391    2.1973   -0.2264 H         1 <0>         0.3967
     46 H18         1.4427   -2.4136   -0.4498 H         1 <0>         0.1580
     47 H19         4.0728   -3.7257   -0.7424 H         1 <0>         0.1377
     48 H20         7.3050   -0.9627   -0.9324 H         1 <0>         0.1400
     49 H21         5.7548    0.9261   -0.7178 H         1 <0>         0.1337
     50 H22        -0.1241    2.7835   -2.3770 H         1 <0>         0.3798
@<TRIPOS>BOND
     1    1    2 1
     2    1   32 1
     3    1   33 1
     4    1   34 1
     5    2    3 1
     6    2    4 am
     7    3   35 1
     8    3   36 1
     9    3   37 1
    10    4    5 2
    11    4    6 1
    12    6    7 1
    13    6    8 1
    14    6   31 1
    15    8    9 1
    16    8   10 1
    17    8   17 1
    18   10   11 1
    19   10   38 1
    20   10   39 1
    21   11   16 ar
    22   11   12 ar
    23   12   13 ar
    24   12   40 1
    25   13   14 ar
    26   13   41 1
    27   14   15 ar
    28   14   42 1
    29   15   16 ar
    30   15   43 1
    31   16   44 1
    32   17   18 am
    33   17   45 1
    34   18   19 2
    35   18   20 1
    36   20   28 1
    37   20   21 2
    38   21   22 1
    39   21   46 1
    40   22   27 ar
    41   22   23 ar
    42   23   24 ar
    43   23   47 1
    44   24   25 ar
    45   24   30 1
    46   25   26 ar
    47   25   48 1
    48   26   27 ar
    49   26   49 1
    50   27   28 1
    51   28   29 1
    52   31   50 1
@<TRIPOS>MOLECULE
ZINC13780544
   46    48     0     0     0
SMALL
USER_CHARGES
N-[(1S)-1-benzyl-2-dimethylamino-2-oxo-ethyl]-1H-indole-2-carboxamide
@<TRIPOS>ATOM
      1 C1          0.7398    5.4722   -1.5320 C.3       1 <0>         0.0827
      2 N1          0.7747    4.0228   -1.3212 N.am      1 <0>        -0.6183
      3 C2          0.0157    3.1355   -2.2059 C.3       1 <0>         0.0682
      4 C3          1.5051    3.5058   -0.3134 C.2       1 <0>         0.5039
      5 O1          2.0582    4.2431    0.4749 O.2       1 <0>        -0.5262
      6 C4          1.6346    2.0116   -0.1661 C.3       1 <0>         0.1395
      7 H1          1.8333    1.5663   -1.1409 H         1 <0>         0.1194
      8 C5          0.3330    1.4403    0.3999 C.3       1 <0>        -0.0888
      9 C6          0.4052   -0.0650    0.4044 C.ar      1 <0>        -0.0861
     10 C7         -0.0347   -0.7813   -0.6929 C.ar      1 <0>        -0.1127
     11 C8          0.0360   -2.1619   -0.6907 C.ar      1 <0>        -0.1140
     12 C9          0.5369   -2.8265    0.4130 C.ar      1 <0>        -0.1177
     13 C10         0.9720   -2.1104    1.5125 C.ar      1 <0>        -0.1150
     14 C11         0.9061   -0.7296    1.5082 C.ar      1 <0>        -0.1128
     15 N2          2.7397    1.7047    0.7454 N.am      1 <0>        -0.7041
     16 C12         4.0014    1.6379    0.2762 C.2       1 <0>         0.5939
     17 O2          4.2226    1.8325   -0.9040 O.2       1 <0>        -0.5175
     18 C13         5.1108    1.3299    1.1912 C.2       1 <0>         0.0147
     19 C14         6.4195    1.2354    0.8386 C.2       1 <0>        -0.0990
     20 C15         7.1591    0.9262    2.0056 C.ar      1 <0>        -0.1212
     21 C16         8.5215    0.7129    2.2530 C.ar      1 <0>        -0.0583
     22 C17         8.9446    0.4242    3.5176 C.ar      1 <0>        -0.1486
     23 C18         8.0363    0.3393    4.5656 C.ar      1 <0>        -0.0839
     24 C19         6.6925    0.5449    4.3480 C.ar      1 <0>        -0.1349
     25 C20         6.2363    0.8408    3.0663 C.ar      1 <0>         0.1166
     26 N3          4.9891    1.0962    2.5473 N.pl3     1 <0>        -0.5784
     27 H2          4.1597    1.1083    3.0502 H         1 <0>         0.4155
     28 H3          1.5435    5.7602   -2.2096 H         1 <0>         0.0572
     29 H4         -0.2197    5.7532   -1.9661 H         1 <0>         0.0727
     30 H5          0.8697    5.9814   -0.5770 H         1 <0>         0.0778
     31 H6         -0.7238    2.5867   -1.6227 H         1 <0>         0.0664
     32 H7         -0.4898    3.7282   -2.9683 H         1 <0>         0.0840
     33 H8          0.6960    2.4313   -2.6849 H         1 <0>         0.0671
     34 H9         -0.5045    1.7620   -0.2191 H         1 <0>         0.1014
     35 H10         0.1910    1.8003    1.4189 H         1 <0>         0.0874
     36 H11        -0.4302   -0.2623   -1.5535 H         1 <0>         0.1237
     37 H12        -0.3042   -2.7214   -1.5495 H         1 <0>         0.1247
     38 H13         0.5881   -3.9053    0.4165 H         1 <0>         0.1231
     39 H14         1.3630   -2.6297    2.3749 H         1 <0>         0.1227
     40 H15         1.2457   -0.1701    2.3673 H         1 <0>         0.1156
     41 H16         2.5634    1.5495    1.6865 H         1 <0>         0.3994
     42 H17         6.8232    1.3721   -0.1538 H         1 <0>         0.1565
     43 H18         9.2351    0.7771    1.4449 H         1 <0>         0.1266
     44 H19         9.9954    0.2601    3.7058 H         1 <0>         0.1257
     45 H20         8.3878    0.1095    5.5606 H         1 <0>         0.1285
     46 H21         5.9944    0.4771    5.1692 H         1 <0>         0.1229
@<TRIPOS>BOND
     1    1    2 1
     2    1   28 1
     3    1   29 1
     4    1   30 1
     5    2    3 1
     6    2    4 am
     7    3   31 1
     8    3   32 1
     9    3   33 1
    10    4    5 2
    11    4    6 1
    12    6    7 1
    13    6    8 1
    14    6   15 1
    15    8    9 1
    16    8   34 1
    17    8   35 1
    18    9   14 ar
    19    9   10 ar
    20   10   11 ar
    21   10   36 1
    22   11   12 ar
    23   11   37 1
    24   12   13 ar
    25   12   38 1
    26   13   14 ar
    27   13   39 1
    28   14   40 1
    29   15   16 am
    30   15   41 1
    31   16   17 2
    32   16   18 1
    33   18   26 1
    34   18   19 2
    35   19   20 1
    36   19   42 1
    37   20   25 ar
    38   20   21 ar
    39   21   22 ar
    40   21   43 1
    41   22   23 ar
    42   22   44 1
    43   23   24 ar
    44   23   45 1
    45   24   25 ar
    46   24   46 1
    47   25   26 1
    48   26   27 1
@<TRIPOS>MOLECULE
ZINC13968254
   50    51     0     0     0
SMALL
USER_CHARGES

@<TRIPOS>ATOM
      1 C1         -0.0166    1.3743    0.0096 C.ar      1 <0>        -0.0779
      2 C2          1.1867    2.0872    0.0019 C.ar      1 <0>        -0.0582
      3 C3          2.4020    1.3952   -0.0134 C.ar      1 <0>        -0.0844
      4 C4          2.4060    0.0157   -0.0208 C.ar      1 <0>        -0.0328
      5 C5          1.2089   -0.6839   -0.0136 C.ar      1 <0>        -0.0236
      6 C6          0.0021   -0.0041    0.0020 C.ar      1 <0>        -0.0985
      7 Cl1         1.2226   -2.4198   -0.0242 Cl        1 <0>        -0.0411
      8 Cl2         3.9129   -0.8461   -0.0398 Cl        1 <0>        -0.0416
      9 C7          1.1741    3.5587    0.0095 C.2       1 <0>        -0.0203
     10 C8          2.3360    4.2430    0.0021 C.2       1 <0>        -0.2037
     11 C9          2.3234    5.7068    0.0096 C.2       1 <0>         0.5467
     12 O1          1.2643    6.3062    0.0225 O.2       1 <0>        -0.5407
     13 N1          3.4848    6.3907    0.0021 N.am      1 <0>        -0.7268
     14 C10         3.4722    7.8556    0.0096 C.3       1 <0>         0.1189
     15 C11         4.9102    8.3780   -0.0012 C.3       1 <0>        -0.1292
     16 C12         4.8971    9.9080    0.0067 C.3       1 <0>        -0.1293
     17 C13         6.3351   10.4304   -0.0042 C.3       1 <0>         0.1189
     18 N2          6.3225   11.8953    0.0033 N.am      1 <0>        -0.7267
     19 C14         7.4838   12.5792   -0.0041 C.2       1 <0>         0.5467
     20 O2          8.5429   11.9799   -0.0170 O.2       1 <0>        -0.5407
     21 C15         7.4712   14.0430    0.0034 C.2       1 <0>        -0.2038
     22 C16         8.6332   14.7273   -0.0040 C.2       1 <0>        -0.0203
     23 C17         8.6206   16.1988    0.0035 C.ar      1 <0>        -0.0582
     24 C18         7.4053   16.8908    0.0243 C.ar      1 <0>        -0.0845
     25 C19         7.4013   18.2703    0.0317 C.ar      1 <0>        -0.0329
     26 C20         8.5983   18.9699    0.0187 C.ar      1 <0>        -0.0236
     27 C21         9.8051   18.2901   -0.0023 C.ar      1 <0>        -0.0985
     28 C22         9.8239   16.9118   -0.0041 C.ar      1 <0>        -0.0780
     29 Cl3         8.5846   20.7058    0.0282 Cl        1 <0>        -0.0411
     30 Cl4         5.8945   19.1320    0.0568 Cl        1 <0>        -0.0415
     31 H1         -0.9584    1.9026    0.0259 H         1 <0>         0.1469
     32 H2          3.3348    1.9394   -0.0197 H         1 <0>         0.1473
     33 H3         -0.9266   -0.5553    0.0079 H         1 <0>         0.1488
     34 H4          0.2342    4.0906    0.0209 H         1 <0>         0.1443
     35 H5          3.2759    3.7111   -0.0094 H         1 <0>         0.1314
     36 H6          4.3289    5.9130   -0.0082 H         1 <0>         0.4032
     37 H7          2.9470    8.2190   -0.8736 H         1 <0>         0.0706
     38 H8          2.9636    8.2100    0.9062 H         1 <0>         0.0705
     39 H9          5.4354    8.0147    0.8821 H         1 <0>         0.0752
     40 H10         5.4188    8.0237   -0.8978 H         1 <0>         0.0753
     41 H11         4.3718   10.2713   -0.8766 H         1 <0>         0.0752
     42 H12         4.3885   10.2624    0.9032 H         1 <0>         0.0752
     43 H13         6.8603   10.0670    0.8791 H         1 <0>         0.0705
     44 H14         6.8436   10.0760   -0.9007 H         1 <0>         0.0706
     45 H15         5.4783   12.3730    0.0137 H         1 <0>         0.4032
     46 H16         6.5314   14.5749    0.0149 H         1 <0>         0.1314
     47 H17         9.5731   14.1954   -0.0155 H         1 <0>         0.1443
     48 H18         6.4725   16.3466    0.0340 H         1 <0>         0.1473
     49 H19        10.7337   18.8414   -0.0127 H         1 <0>         0.1488
     50 H20        10.7658   16.3834   -0.0156 H         1 <0>         0.1469
@<TRIPOS>BOND
     1    1    6 ar
     2    1    2 ar
     3    1   31 1
     4    2    3 ar
     5    2    9 1
     6    3    4 ar
     7    3   32 1
     8    4    5 ar
     9    4    8 1
    10    5    6 ar
    11    5    7 1
    12    6   33 1
    13    9   10 2
    14    9   34 1
    15   10   11 1
    16   10   35 1
    17   11   12 2
    18   11   13 am
    19   13   14 1
    20   13   36 1
    21   14   15 1
    22   14   37 1
    23   14   38 1
    24   15   16 1
    25   15   39 1
    26   15   40 1
    27   16   17 1
    28   16   41 1
    29   16   42 1
    30   17   18 1
    31   17   43 1
    32   17   44 1
    33   18   19 am
    34   18   45 1
    35   19   20 2
    36   19   21 1
    37   21   22 2
    38   21   46 1
    39   22   23 1
    40   22   47 1
    41   23   28 ar
    42   23   24 ar
    43   24   25 ar
    44   24   48 1
    45   25   26 ar
    46   25   30 1
    47   26   27 ar
    48   26   29 1
    49   27   28 ar
    50   27   49 1
    51   28   50 1
@<TRIPOS>MOLECULE
ZINC00602032
   54    57     0     0     0
SMALL
USER_CHARGES
5-chloro-N-[2-(4-fluorophenyl)-1-[(4-hydroxy-1-piperidyl)carbonyl]ethyl]-1H-indole-2-carboxamide
@<TRIPOS>ATOM
      1 C1          6.2064    2.7071    0.6246 C.ar      1 <0>        -0.0773
      2 C2          7.4569    3.2944    0.5925 C.ar      1 <0>        -0.1441
      3 C3          8.5227    2.6214    0.0195 C.ar      1 <0>         0.1024
      4 C4          8.3353    1.3584   -0.5160 C.ar      1 <0>        -0.1422
      5 C5          7.0849    0.7709   -0.4781 C.ar      1 <0>        -0.0787
      6 C6          6.0216    1.4438    0.0943 C.ar      1 <0>        -0.0834
      7 C7          4.6585    0.8024    0.1346 C.3       1 <0>        -0.0907
      8 C8          4.5124   -0.0041    1.4266 C.3       1 <0>         0.1359
      9 H1          4.7236    0.6382    2.2816 H         1 <0>         0.1207
     10 C9          3.1055   -0.5339    1.5317 C.2       1 <0>         0.5178
     11 O1          2.8977   -1.7252    1.4396 O.2       1 <0>        -0.5321
     12 N1          2.0782    0.3162    1.7280 N.am      1 <0>        -0.6063
     13 C10         2.3204    1.7539    1.9093 C.3       1 <0>         0.1007
     14 C11         1.6427    2.2084    3.2058 C.3       1 <0>        -0.1314
     15 C12         0.1628    1.8204    3.1663 C.3       1 <0>         0.1050
     16 C13         0.0352    0.2989    3.0622 C.3       1 <0>        -0.1689
     17 C14         0.6948   -0.1772    1.7641 C.3       1 <0>         0.1132
     18 O2         -0.4797    2.2715    4.3603 O.3       1 <0>        -0.5653
     19 N2          5.4563   -1.1243    1.4124 N.am      1 <0>        -0.7148
     20 C15         6.7267   -0.9404    1.8234 C.2       1 <0>         0.5875
     21 O3          7.0895    0.1558    2.2060 O.2       1 <0>        -0.4969
     22 C16         7.6742   -2.0649    1.8091 C.2       1 <0>         0.0184
     23 C17         8.9748   -2.0040    2.1974 C.2       1 <0>        -0.0946
     24 C18         9.5356   -3.2933    2.0304 C.ar      1 <0>        -0.1108
     25 C19        10.8111   -3.8249    2.2617 C.ar      1 <0>        -0.0482
     26 C20        11.0561   -5.1417    1.9969 C.ar      1 <0>        -0.0606
     27 C21        10.0500   -5.9624    1.4994 C.ar      1 <0>        -0.0778
     28 C22         8.7889   -5.4628    1.2649 C.ar      1 <0>        -0.1174
     29 C23         8.5150   -4.1232    1.5269 C.ar      1 <0>         0.1181
     30 N3          7.3822   -3.3530    1.4044 N.pl3     1 <0>        -0.5758
     31 H2          6.5205   -3.6629    1.0845 H         1 <0>         0.4201
     32 Cl1        12.6378   -5.7971    2.2837 Cl        1 <0>        -0.0686
     33 F1          9.7447    3.1965   -0.0167 F         1 <0>        -0.1411
     34 H3          5.3740    3.2335    1.0678 H         1 <0>         0.1277
     35 H4          7.6020    4.2796    1.0105 H         1 <0>         0.1334
     36 H5          9.1659    0.8324   -0.9629 H         1 <0>         0.1310
     37 H6          6.9386   -0.2144   -0.8954 H         1 <0>         0.1203
     38 H7          4.5436    0.1390   -0.7226 H         1 <0>         0.0858
     39 H8          3.8916    1.5762    0.1006 H         1 <0>         0.0937
     40 H9          1.9025    2.3041    1.0663 H         1 <0>         0.0821
     41 H10         3.3924    1.9409    1.9724 H         1 <0>         0.0963
     42 H11         1.7326    3.2903    3.3035 H         1 <0>         0.0895
     43 H12         2.1230    1.7247    4.0564 H         1 <0>         0.0775
     44 H13        -0.3113    2.2846    2.3015 H         1 <0>         0.0595
     45 H14         0.5307   -0.1669    3.9141 H         1 <0>         0.0769
     46 H15        -1.0189    0.0217    3.0577 H         1 <0>         0.0816
     47 H16         0.1443    0.2154    0.9092 H         1 <0>         0.0750
     48 H17         0.6944   -1.2668    1.7324 H         1 <0>         0.0989
     49 H18        -1.4222    2.0596    4.4040 H         1 <0>         0.3814
     50 H19         5.1670   -1.9985    1.1073 H         1 <0>         0.4057
     51 H20         9.4888   -1.1289    2.5669 H         1 <0>         0.1594
     52 H21        11.5987   -3.1946    2.6473 H         1 <0>         0.1379
     53 H22        10.2599   -7.0020    1.2953 H         1 <0>         0.1399
     54 H23         8.0139   -6.1084    0.8790 H         1 <0>         0.1340
@<TRIPOS>BOND
     1    1    6 ar
     2    1    2 ar
     3    1   34 1
     4    2    3 ar
     5    2   35 1
     6    3    4 ar
     7    3   33 1
     8    4    5 ar
     9    4   36 1
    10    5    6 ar
    11    5   37 1
    12    6    7 1
    13    7    8 1
    14    7   38 1
    15    7   39 1
    16    8    9 1
    17    8   10 1
    18    8   19 1
    19   10   11 2
    20   10   12 am
    21   12   17 1
    22   12   13 1
    23   13   14 1
    24   13   40 1
    25   13   41 1
    26   14   15 1
    27   14   42 1
    28   14   43 1
    29   15   16 1
    30   15   18 1
    31   15   44 1
    32   16   17 1
    33   16   45 1
    34   16   46 1
    35   17   47 1
    36   17   48 1
    37   18   49 1
    38   19   20 am
    39   19   50 1
    40   20   21 2
    41   20   22 1
    42   22   30 1
    43   22   23 2
    44   23   24 1
    45   23   51 1
    46   24   29 ar
    47   24   25 ar
    48   25   26 ar
    49   25   52 1
    50   26   27 ar
    51   26   32 1
    52   27   28 ar
    53   27   53 1
    54   28   29 ar
    55   28   54 1
    56   29   30 1
    57   30   31 1
