@<TRIPOS>MOLECULE
ZINC01712658
   36    37     0     0     0
SMALL
USER_CHARGES

@<TRIPOS>ATOM
      1 C1         -1.2315    1.1811    0.1749 C.3       1 <0>        -0.1202
      2 C2         -0.5460   -0.1577    0.0823 C.ar      1 <0>        -0.1015
      3 C3         -0.5207   -0.8399   -1.1184 C.ar      1 <0>        -0.1036
      4 C4          0.1085   -2.0682   -1.2044 C.ar      1 <0>        -0.1225
      5 C5          0.7144   -2.6180   -0.0892 C.ar      1 <0>        -0.1079
      6 C6          0.6928   -1.9415    1.1143 C.ar      1 <0>        -0.1139
      7 C7          0.0660   -0.7046    1.2030 C.ar      1 <0>         0.1305
      8 N1          0.0472   -0.0146    2.4179 N.am      1 <0>        -0.6381
      9 C8         -0.0398   -0.6950    3.5780 C.2       1 <0>         0.5106
     10 O1         -0.0194   -1.9087    3.5728 O.2       1 <0>        -0.4948
     11 C9         -0.1612    0.0439    4.8692 C.2       1 <0>         0.5105
     12 O2         -0.1815    1.2576    4.8744 O.2       1 <0>        -0.4948
     13 N2         -0.2482   -0.6365    6.0294 N.am      1 <0>        -0.6381
     14 C10        -0.4563    0.0504    7.2282 C.ar      1 <0>         0.1304
     15 C11         0.1058    1.3069    7.4175 C.ar      1 <0>        -0.1138
     16 C12        -0.1023    1.9831    8.6032 C.ar      1 <0>        -0.1079
     17 C13        -0.8694    1.4111    9.6019 C.ar      1 <0>        -0.1224
     18 C14        -1.4303    0.1608    9.4169 C.ar      1 <0>        -0.1037
     19 C15        -1.2305   -0.5189    8.2313 C.ar      1 <0>        -0.1015
     20 C16        -1.8470   -1.8790    8.0283 C.3       1 <0>        -0.1202
     21 H1         -0.5172    1.9717   -0.0548 H         1 <0>         0.0750
     22 H2         -2.0555    1.2176   -0.5377 H         1 <0>         0.0748
     23 H3         -1.6177    1.3225    1.1844 H         1 <0>         0.0649
     24 H4         -0.9931   -0.4136   -1.9910 H         1 <0>         0.1290
     25 H5          0.1265   -2.5996   -2.1444 H         1 <0>         0.1262
     26 H6          1.2046   -3.5778   -0.1597 H         1 <0>         0.1282
     27 H7          1.1658   -2.3716    1.9848 H         1 <0>         0.1398
     28 H8          0.0968    0.9541    2.4263 H         1 <0>         0.4235
     29 H9         -0.1663   -1.6031    6.0321 H         1 <0>         0.4235
     30 H10         0.7052    1.7539    6.6382 H         1 <0>         0.1398
     31 H11         0.3347    2.9596    8.7511 H         1 <0>         0.1282
     32 H12        -1.0303    1.9420   10.5285 H         1 <0>         0.1262
     33 H13        -2.0285   -0.2831   10.1990 H         1 <0>         0.1290
     34 H14        -1.1565   -2.6466    8.3775 H         1 <0>         0.0750
     35 H15        -2.7777   -1.9438    8.5920 H         1 <0>         0.0748
     36 H16        -2.0528   -2.0302    6.9686 H         1 <0>         0.0649
@<TRIPOS>BOND
     1    1    2 1
     2    1   21 1
     3    1   22 1
     4    1   23 1
     5    2    7 ar
     6    2    3 ar
     7    3    4 ar
     8    3   24 1
     9    4    5 ar
    10    4   25 1
    11    5    6 ar
    12    5   26 1
    13    6    7 ar
    14    6   27 1
    15    7    8 1
    16    8    9 am
    17    8   28 1
    18    9   10 2
    19    9   11 1
    20   11   12 2
    21   11   13 am
    22   13   14 1
    23   13   29 1
    24   14   19 ar
    25   14   15 ar
    26   15   16 ar
    27   15   30 1
    28   16   17 ar
    29   16   31 1
    30   17   18 ar
    31   17   32 1
    32   18   19 ar
    33   18   33 1
    34   19   20 1
    35   20   34 1
    36   20   35 1
    37   20   36 1
@<TRIPOS>MOLECULE
ZINC03978827
   80    84     0     0     0
SMALL
USER_CHARGES

@<TRIPOS>ATOM
      1 C1         -2.2499    1.7395    1.5965 C.3       1 <0>        -0.1448
      2 C2         -2.3630    0.2147    1.6179 C.3       1 <0>        -0.0886
      3 H1         -2.1511   -0.1868    0.6297 H         1 <0>         0.0647
      4 C3         -3.7754   -0.1882    2.0495 C.3       1 <0>        -0.1142
      5 C4         -3.8831   -1.7109    2.0243 C.3       1 <0>        -0.0863
      6 C5         -2.8712   -2.3453    2.9771 C.3       1 <0>        -0.1168
      7 C6         -3.2034   -1.9924    4.4220 C.3       1 <0>        -0.0858
      8 C7         -2.2907   -2.7490    5.3888 C.3       1 <0>        -0.0975
      9 C8         -0.8207   -2.4481    5.1311 C.3       1 <0>         0.0200
     10 C9         -0.4927   -2.4623    3.6663 C.2       1 <0>        -0.0271
     11 C10         0.6115   -2.9748    3.1888 C.2       1 <0>        -0.1945
     12 C11         1.6871   -3.6146    4.0173 C.3       1 <0>        -0.0682
     13 C12         1.5217   -3.2085    5.4824 C.3       1 <0>        -0.0549
     14 H2          1.7443   -2.1224    5.5395 H         1 <0>         0.0556
     15 C13         0.0772   -3.4243    5.9096 C.3       1 <0>        -0.0252
     16 C14        -0.1263   -3.2338    7.4071 C.3       1 <0>        -0.1101
     17 C15         0.9033   -4.0493    8.2060 C.3       1 <0>        -0.1119
     18 C16         2.2898   -3.5411    7.8160 C.3       1 <0>        -0.0569
     19 H3          2.2178   -2.4232    7.8479 H         1 <0>         0.0555
     20 C17         2.5695   -3.8926    6.3613 C.3       1 <0>        -0.0335
     21 C18         3.9485   -3.3245    5.9787 C.3       1 <0>        -0.1101
     22 C19         5.0165   -3.9216    6.8907 C.3       1 <0>        -0.1478
     23 C20         4.7602   -3.5214    8.3374 C.3       1 <0>         0.1195
     24 H4          4.8674   -2.4352    8.4331 H         1 <0>         0.0460
     25 C21         3.3625   -3.9218    8.8099 C.3       1 <0>        -0.0368
     26 C22         3.3394   -5.4064    9.1716 C.3       1 <0>        -0.1352
     27 C23         3.1067   -3.1345   10.1199 C.3       1 <0>        -0.1462
     28 O1          5.7353   -4.1464    9.1809 O.3       1 <0>        -0.5663
     29 C24         2.6012   -5.3981    6.1216 C.3       1 <0>        -0.1547
     30 C25        -0.3721   -4.8467    5.5369 C.3       1 <0>        -0.1382
     31 C26        -1.4543   -1.8772    2.6495 C.3       1 <0>        -0.0155
     32 H5         -1.1832   -2.2584    1.6510 H         1 <0>         0.0546
     33 C27        -1.3629   -0.3562    2.6314 C.3       1 <0>        -0.0770
     34 H6         -1.6059    0.0562    3.6092 H         1 <0>         0.0715
     35 C28         0.0468    0.0829    2.2258 C.3       1 <0>        -0.1463
     36 C29        -0.5399   -1.0348    5.6568 C.3       1 <0>        -0.1536
     37 C30        -2.9445   -3.8442    2.7896 C.2       1 <0>         0.4993
     38 O2         -3.7239   -4.3202    1.9818 O.co2     1 <0>        -0.7070
     39 O3         -2.2243   -4.5767    3.4463 O.co2     1 <0>        -0.6696
     40 H7         -1.2399    2.0248    1.3019 H         1 <0>         0.0532
     41 H8         -2.9654    2.1470    0.8823 H         1 <0>         0.0474
     42 H9         -2.4636    2.1337    2.5900 H         1 <0>         0.0494
     43 H10        -3.9698    0.1803    3.0558 H         1 <0>         0.0549
     44 H11        -4.5022    0.2419    1.3592 H         1 <0>         0.0487
     45 H12        -4.8906   -2.0096    2.3196 H         1 <0>         0.0523
     46 H13        -3.6916   -2.0691    1.0098 H         1 <0>         0.0574
     47 H14        -3.1028   -0.9193    4.5760 H         1 <0>         0.0430
     48 H15        -4.2426   -2.2738    4.6258 H         1 <0>         0.0414
     49 H16        -2.5347   -2.4030    6.4107 H         1 <0>         0.0259
     50 H17        -2.5341   -3.8025    5.3536 H         1 <0>         0.0990
     51 H18         0.7546   -2.9368    2.1160 H         1 <0>         0.0852
     52 H19         1.6485   -4.6899    3.8782 H         1 <0>         0.0722
     53 H20         2.6596   -3.2560    3.6562 H         1 <0>         0.0490
     54 H21        -0.0128   -2.1972    7.7151 H         1 <0>         0.0590
     55 H22        -1.1267   -3.5776    7.6859 H         1 <0>         0.0595
     56 H23         0.7201   -3.8720    9.2680 H         1 <0>         0.0543
     57 H24         0.7855   -5.1037    8.0015 H         1 <0>         0.0688
     58 H25         4.1631   -3.5839    4.9433 H         1 <0>         0.0672
     59 H26         3.9302   -2.2417    6.0898 H         1 <0>         0.0588
     60 H27         5.0618   -5.0017    6.7929 H         1 <0>         0.0755
     61 H28         5.9952   -3.5229    6.5845 H         1 <0>         0.0520
     62 H29         3.6150   -5.9975    8.2982 H         1 <0>         0.0582
     63 H30         4.0494   -5.5953    9.9768 H         1 <0>         0.0579
     64 H31         2.3375   -5.6854    9.4977 H         1 <0>         0.0518
     65 H32         2.1229   -3.3919   10.5123 H         1 <0>         0.0557
     66 H33         3.8698   -3.3932   10.8541 H         1 <0>         0.0571
     67 H34         3.1476   -2.0648    9.9148 H         1 <0>         0.0475
     68 H35         6.6482   -3.9040    8.9733 H         1 <0>         0.3709
     69 H36         2.6560   -5.5945    5.0508 H         1 <0>         0.0577
     70 H37         3.4740   -5.8262    6.6146 H         1 <0>         0.0548
     71 H38         1.6963   -5.8499    6.5280 H         1 <0>         0.0675
     72 H39        -0.1640   -5.0289    4.4826 H         1 <0>         0.0772
     73 H40         0.1712   -5.5703    6.1448 H         1 <0>         0.0333
     74 H41        -1.4418   -4.9494    5.7192 H         1 <0>         0.0634
     75 H42         0.1016    1.1715    2.2228 H         1 <0>         0.0481
     76 H43         0.7702   -0.3153    2.9372 H         1 <0>         0.0561
     77 H44         0.2722   -0.2949    1.2285 H         1 <0>         0.0471
     78 H45        -0.6486   -1.0223    6.7413 H         1 <0>         0.0530
     79 H46         0.4759   -0.7431    5.3901 H         1 <0>         0.0476
     80 H47        -1.2475   -0.3347    5.2127 H         1 <0>         0.0547
@<TRIPOS>BOND
     1    1    2 1
     2    1   40 1
     3    1   41 1
     4    1   42 1
     5    2    3 1
     6    2   33 1
     7    2    4 1
     8    4    5 1
     9    4   43 1
    10    4   44 1
    11    5    6 1
    12    5   45 1
    13    5   46 1
    14    6   31 1
    15    6    7 1
    16    6   37 1
    17    7    8 1
    18    7   47 1
    19    7   48 1
    20    8    9 1
    21    8   49 1
    22    8   50 1
    23    9   15 1
    24    9   10 1
    25    9   36 1
    26   10   11 2
    27   10   31 1
    28   11   12 1
    29   11   51 1
    30   12   13 1
    31   12   52 1
    32   12   53 1
    33   13   14 1
    34   13   20 1
    35   13   15 1
    36   15   16 1
    37   15   30 1
    38   16   17 1
    39   16   54 1
    40   16   55 1
    41   17   18 1
    42   17   56 1
    43   17   57 1
    44   18   19 1
    45   18   25 1
    46   18   20 1
    47   20   21 1
    48   20   29 1
    49   21   22 1
    50   21   58 1
    51   21   59 1
    52   22   23 1
    53   22   60 1
    54   22   61 1
    55   23   24 1
    56   23   25 1
    57   23   28 1
    58   25   26 1
    59   25   27 1
    60   26   62 1
    61   26   63 1
    62   26   64 1
    63   27   65 1
    64   27   66 1
    65   27   67 1
    66   28   68 1
    67   29   69 1
    68   29   70 1
    69   29   71 1
    70   30   72 1
    71   30   73 1
    72   30   74 1
    73   31   32 1
    74   31   33 1
    75   33   34 1
    76   33   35 1
    77   35   75 1
    78   35   76 1
    79   35   77 1
    80   36   78 1
    81   36   79 1
    82   36   80 1
    83   37   38 2
    84   37   39 1
@<TRIPOS>MOLECULE
ZINC04916337
   33    36     0     0     0
SMALL
USER_CHARGES
2-(3-chlorophenyl)-5-(2-naphthyl)-1,3,4-oxadiazole
@<TRIPOS>ATOM
      1 C1          7.6020   10.7869   -0.0154 C.ar      1 <0>        -0.1012
      2 C2          8.4124    9.6532   -0.0278 C.ar      1 <0>        -0.1157
      3 C3          7.8700    8.4050   -0.0282 C.ar      1 <0>        -0.0944
      4 C4          6.4716    8.2537   -0.0159 C.ar      1 <0>        -0.0596
      5 C5          5.8799    6.9817   -0.0163 C.ar      1 <0>        -0.0351
      6 C6          4.4990    6.8730   -0.0045 C.ar      1 <0>        -0.0304
      7 C7          3.6922    8.0254    0.0025 C.ar      1 <0>        -0.0915
      8 C8          4.2477    9.2637    0.0086 C.ar      1 <0>        -0.0999
      9 C9          5.6474    9.4075   -0.0033 C.ar      1 <0>        -0.0336
     10 C10         6.2449   10.6789   -0.0033 C.ar      1 <0>        -0.1117
     11 C11         3.8690    5.5373   -0.0053 C.2       1 <0>         0.2190
     12 N1          4.4952    4.3821   -0.0170 N.2       1 <0>        -0.2712
     13 N2          3.6318    3.4282   -0.0138 N.2       1 <0>        -0.2629
     14 C12         2.4203    3.9364    0.0001 C.2       1 <0>         0.2080
     15 O1          2.5452    5.2792    0.0003 O.3       1 <0>        -0.2128
     16 C13         1.1534    3.1762    0.0076 C.ar      1 <0>        -0.0127
     17 C14         1.1734    1.7800    0.0004 C.ar      1 <0>        -0.0618
     18 C15        -0.0126    1.0758    0.0080 C.ar      1 <0>        -0.1042
     19 C16        -1.2211    1.7496    0.0173 C.ar      1 <0>        -0.0836
     20 C17        -1.2488    3.1338    0.0299 C.ar      1 <0>        -0.0376
     21 C18        -0.0685    3.8506    0.0225 C.ar      1 <0>        -0.0768
     22 Cl1        -2.7701    3.9698    0.0483 Cl        1 <0>        -0.0544
     23 H1          8.0575   11.7661   -0.0157 H         1 <0>         0.1279
     24 H2          9.4863    9.7668   -0.0377 H         1 <0>         0.1287
     25 H3          8.5100    7.5351   -0.0376 H         1 <0>         0.1337
     26 H4          6.4959    6.0946   -0.0254 H         1 <0>         0.1473
     27 H5          2.6170    7.9235    0.0072 H         1 <0>         0.1326
     28 H6          3.6152   10.1390    0.0181 H         1 <0>         0.1383
     29 H7          5.6303   11.5669    0.0060 H         1 <0>         0.1320
     30 H8          2.1158    1.2524   -0.0114 H         1 <0>         0.1486
     31 H9          0.0021   -0.0041    0.0020 H         1 <0>         0.1479
     32 H10        -2.1468    1.1932    0.0187 H         1 <0>         0.1439
     33 H11        -0.0909    4.9304    0.0285 H         1 <0>         0.1431
@<TRIPOS>BOND
     1    1   10 ar
     2    1    2 ar
     3    1   23 1
     4    2    3 ar
     5    2   24 1
     6    3    4 ar
     7    3   25 1
     8    4    9 ar
     9    4    5 ar
    10    5    6 ar
    11    5   26 1
    12    6    7 ar
    13    6   11 1
    14    7    8 ar
    15    7   27 1
    16    8    9 ar
    17    8   28 1
    18    9   10 ar
    19   10   29 1
    20   11   15 1
    21   11   12 2
    22   12   13 1
    23   13   14 2
    24   14   15 1
    25   14   16 1
    26   16   21 ar
    27   16   17 ar
    28   17   18 ar
    29   17   30 1
    30   18   19 ar
    31   18   31 1
    32   19   20 ar
    33   19   32 1
    34   20   21 ar
    35   20   22 1
    36   21   33 1
@<TRIPOS>MOLECULE
ZINC04715147
   34    35     0     0     0
SMALL
USER_CHARGES
1-(4-methoxyphenyl)-3-(3-nitrophenyl)propane-1,3-dione
@<TRIPOS>ATOM
      1 C1         -4.9802   -4.9629   -0.0047 C.3       1 <0>         0.0318
      2 O1         -6.3542   -4.5701    0.0043 O.3       1 <0>        -0.3350
      3 C2         -6.6140   -3.2387    0.0131 C.ar      1 <0>         0.1260
      4 C3         -7.9303   -2.7896    0.0221 C.ar      1 <0>        -0.2240
      5 C4         -8.1983   -1.4449    0.0315 C.ar      1 <0>        -0.0344
      6 C5         -7.1441   -0.5232    0.0320 C.ar      1 <0>        -0.2370
      7 C6         -5.8205   -0.9807    0.0171 C.ar      1 <0>        -0.3683
      8 C7         -5.5633   -2.3275    0.0136 C.ar      1 <0>        -0.2678
      9 C8         -7.4254    0.9181    0.0421 C.2       1 <0>         0.4042
     10 O2         -8.5725    1.3121    0.0499 O.3       1 <0>        -0.5719
     11 C9         -6.2888    1.9077    0.0427 C.2       1 <0>        -0.4329
     12 C10        -4.9770    1.1661    0.0320 C.2       1 <0>         0.1285
     13 O3         -4.9661   -0.0464    0.0245 O.2       1 <0>        -0.1017
     14 C11        -3.7092    1.9134    0.0305 C.ar      1 <0>        -0.0988
     15 C12        -3.7176    3.3121    0.0386 C.ar      1 <0>        -0.0495
     16 C13        -2.5257    4.0049    0.0367 C.ar      1 <0>        -0.1278
     17 C14        -1.3228    3.3200    0.0321 C.ar      1 <0>        -0.0688
     18 C15        -1.3061    1.9363    0.0188 C.ar      1 <0>        -0.0515
     19 C16        -2.4899    1.2288    0.0205 C.ar      1 <0>        -0.0386
     20 N1         -0.0144    1.2138    0.0087 N.pl3     1 <0>         0.0330
     21 O4          0.0021   -0.0041    0.0020 O.2       1 <0>        -0.1627
     22 O5          1.0320    1.8371    0.0021 O.3       1 <0>        -0.1765
     23 H1         -4.9128   -6.0608   -0.0113 H         1 <0>         0.0882
     24 H2         -4.4808   -4.5702    0.8932 H         1 <0>         0.0514
     25 H3         -4.4896   -4.5600   -0.9030 H         1 <0>         0.0514
     26 H4         -8.7427   -3.5012    0.0213 H         1 <0>         0.1050
     27 H5         -9.2208   -1.0972    0.0388 H         1 <0>         0.1104
     28 H6         -5.0039   -0.2740    0.0129 H         1 <0>         0.3920
     29 H7         -4.5429   -2.6814    0.0069 H         1 <0>         0.1045
     30 H8         -6.4995    2.9873    0.0502 H         1 <0>         0.1331
     31 H9         -4.6553    3.8478    0.0467 H         1 <0>         0.1456
     32 H10        -2.5305    5.0849    0.0433 H         1 <0>         0.1404
     33 H11        -0.3924    3.8684    0.0352 H         1 <0>         0.1449
     34 H12        -2.4753    0.1490    0.0139 H         1 <0>         0.1566
@<TRIPOS>BOND
     1    1    2 1
     2    1   23 1
     3    1   24 1
     4    1   25 1
     5    2    3 1
     6    3    8 ar
     7    3    4 ar
     8    4    5 ar
     9    4   26 1
    10    5    6 ar
    11    5   27 1
    12    6    7 ar
    13    6    9 1
    14    7    8 ar
    15    7   28 1
    16    8   29 1
    17    9   11 2
    18    9   10 1
    19   11   30 1
    20   11   12 1
    21   12   14 1
    22   12   13 2
    23   14   19 ar
    24   14   15 ar
    25   15   16 ar
    26   15   31 1
    27   16   17 ar
    28   16   32 1
    29   17   18 ar
    30   17   33 1
    31   18   19 ar
    32   18   20 1
    33   19   34 1
    34   20   21 2
    35   20   22 1
@<TRIPOS>MOLECULE
ZINC04715147
   35    36     0     0     0
SMALL
USER_CHARGES
1-(4-methoxyphenyl)-3-(3-nitrophenyl)-propane-1,3-dione
@<TRIPOS>ATOM
      1 C1        -12.9140    4.1493    0.0873 C.3       1 <0>         0.0232
      2 O1        -12.7140    2.7344    0.0777 O.3       1 <0>        -0.3105
      3 C2        -11.4310    2.2938    0.0694 C.ar      1 <0>         0.1630
      4 C3        -11.1673    0.9282    0.0599 C.ar      1 <0>        -0.1618
      5 C4         -9.8723    0.4777    0.0510 C.ar      1 <0>        -0.0172
      6 C5         -8.8143    1.3951    0.0516 C.ar      1 <0>        -0.2079
      7 C6         -9.0853    2.7690    0.0671 C.ar      1 <0>        -0.0370
      8 C7        -10.3839    3.2091    0.0700 C.ar      1 <0>        -0.2211
      9 C8         -7.4254    0.9181    0.0421 C.2       1 <0>         0.3979
     10 O2         -7.1930   -0.2723    0.0338 O.2       1 <0>        -0.4175
     11 C9         -6.2888    1.9077    0.0427 C.3       1 <0>        -0.2685
     12 C10        -4.9770    1.1661    0.0320 C.2       1 <0>         0.4259
     13 O3         -4.9661   -0.0464    0.0245 O.2       1 <0>        -0.3966
     14 C11        -3.7092    1.9134    0.0305 C.ar      1 <0>        -0.1624
     15 C12        -3.7176    3.3121    0.0386 C.ar      1 <0>        -0.0285
     16 C13        -2.5257    4.0049    0.0367 C.ar      1 <0>        -0.1232
     17 C14        -1.3228    3.3200    0.0321 C.ar      1 <0>        -0.0269
     18 C15        -1.3061    1.9363    0.0188 C.ar      1 <0>        -0.0514
     19 C16        -2.4899    1.2288    0.0205 C.ar      1 <0>        -0.0003
     20 N1         -0.0144    1.2138    0.0087 N.pl3     1 <0>         0.0244
     21 O4          0.0021   -0.0041    0.0020 O.2       1 <0>        -0.1492
     22 O5          1.0320    1.8371    0.0021 O.3       1 <0>        -0.1505
     23 H1        -13.9824    4.3652    0.0932 H         1 <0>         0.1052
     24 H2        -12.4522    4.5755    0.9779 H         1 <0>         0.0595
     25 H3        -12.4600    4.5864   -0.8020 H         1 <0>         0.0602
     26 H4        -11.9839    0.2215    0.0598 H         1 <0>         0.1403
     27 H5         -9.6686   -0.5829    0.0433 H         1 <0>         0.1434
     28 H6         -8.2729    3.4806    0.0721 H         1 <0>         0.1323
     29 H7        -10.5940    4.2685    0.0771 H         1 <0>         0.1370
     30 H8         -6.0330    2.1209    0.9856 H         1 <0>         0.0978
     31 H9         -6.6895    2.9214    0.0507 H         1 <0>         0.1830
     32 H10        -4.6553    3.8478    0.0467 H         1 <0>         0.1520
     33 H11        -2.5305    5.0849    0.0433 H         1 <0>         0.1579
     34 H12        -0.3924    3.8684    0.0352 H         1 <0>         0.1612
     35 H13        -2.4753    0.1490    0.0139 H         1 <0>         0.1664
@<TRIPOS>BOND
     1    1    2 1
     2    1   23 1
     3    1   24 1
     4    1   25 1
     5    2    3 1
     6    3    8 ar
     7    3    4 ar
     8    4    5 ar
     9    4   26 1
    10    5    6 ar
    11    5   27 1
    12    6    7 ar
    13    6    9 1
    14    7    8 ar
    15    7   28 1
    16    8   29 1
    17    9   11 1
    18    9   10 2
    19   11   30 1
    20   11   31 1
    21   11   12 1
    22   12   14 1
    23   12   13 2
    24   14   19 ar
    25   14   15 ar
    26   15   16 ar
    27   15   32 1
    28   16   17 ar
    29   16   33 1
    30   17   18 ar
    31   17   34 1
    32   18   19 ar
    33   18   20 1
    34   19   35 1
    35   20   21 2
    36   20   22 1
@<TRIPOS>MOLECULE
ZINC02860380
   33    34     0     0     0
SMALL
USER_CHARGES
N-benzyl-N'-(2-chlorophenyl)-oxamide
@<TRIPOS>ATOM
      1 C1         -0.1043    4.2676    0.0287 C.ar      1 <0>        -0.1075
      2 C2          1.1041    3.5968    0.0049 C.ar      1 <0>        -0.1212
      3 C3          1.1273    2.2146   -0.0029 C.ar      1 <0>        -0.0978
      4 C4         -0.0579    1.5034    0.0127 C.ar      1 <0>        -0.1172
      5 C5         -1.2664    2.1743    0.0307 C.ar      1 <0>        -0.0978
      6 C6         -1.2895    3.5564    0.0438 C.ar      1 <0>        -0.1213
      7 C7         -0.0326   -0.0034    0.0038 C.3       1 <0>         0.1600
      8 N1         -0.0016   -0.4994    1.3819 N.am      1 <0>        -0.6925
      9 C8          0.0248   -1.8257    1.6203 C.2       1 <0>         0.5108
     10 O1          0.0227   -2.6090    0.6934 O.2       1 <0>        -0.5109
     11 C9          0.0564   -2.3314    3.0253 C.2       1 <0>         0.5118
     12 O2          0.0584   -1.5479    3.9524 O.2       1 <0>        -0.4955
     13 N2          0.0827   -3.6576    3.2637 N.am      1 <0>        -0.6418
     14 C10         0.2071   -4.1299    4.5732 C.ar      1 <0>         0.1469
     15 C11        -0.3839   -3.4371    5.6223 C.ar      1 <0>        -0.1082
     16 C12        -0.2640   -3.9096    6.9144 C.ar      1 <0>        -0.0955
     17 C13         0.4531   -5.0651    7.1666 C.ar      1 <0>        -0.1160
     18 C14         1.0478   -5.7547    6.1262 C.ar      1 <0>        -0.0917
     19 C15         0.9272   -5.2910    4.8297 C.ar      1 <0>        -0.0591
     20 Cl1         1.6745   -6.1568    3.5238 Cl        1 <0>        -0.0583
     21 H1         -0.1224    5.3475    0.0351 H         1 <0>         0.1252
     22 H2          2.0301    4.1525   -0.0073 H         1 <0>         0.1261
     23 H3          2.0714    1.6905   -0.0215 H         1 <0>         0.1252
     24 H4         -2.1924    1.6186    0.0385 H         1 <0>         0.1253
     25 H5         -2.2336    4.0805    0.0621 H         1 <0>         0.1261
     26 H6         -0.9247   -0.3788   -0.4974 H         1 <0>         0.0855
     27 H7          0.8547   -0.3488   -0.5267 H         1 <0>         0.0853
     28 H8          0.0001    0.1267    2.1228 H         1 <0>         0.4157
     29 H9          0.0154   -4.2843    2.5264 H         1 <0>         0.4259
     30 H10        -0.9403   -2.5323    5.4271 H         1 <0>         0.1494
     31 H11        -0.7271   -3.3736    7.7296 H         1 <0>         0.1361
     32 H12         0.5491   -5.4293    8.1788 H         1 <0>         0.1366
     33 H13         1.6073   -6.6565    6.3268 H         1 <0>         0.1405
@<TRIPOS>BOND
     1    1    6 ar
     2    1    2 ar
     3    1   21 1
     4    2    3 ar
     5    2   22 1
     6    3    4 ar
     7    3   23 1
     8    4    5 ar
     9    4    7 1
    10    5    6 ar
    11    5   24 1
    12    6   25 1
    13    7    8 1
    14    7   26 1
    15    7   27 1
    16    8    9 am
    17    8   28 1
    18    9   10 2
    19    9   11 1
    20   11   12 2
    21   11   13 am
    22   13   14 1
    23   13   29 1
    24   14   19 ar
    25   14   15 ar
    26   15   16 ar
    27   15   30 1
    28   16   17 ar
    29   16   31 1
    30   17   18 ar
    31   17   32 1
    32   18   19 ar
    33   18   33 1
    34   19   20 1
@<TRIPOS>MOLECULE
ZINC03813668
   24    24     0     0     0
SMALL
USER_CHARGES
5-(hydroxymethyl)piperidine-3,4-diol
@<TRIPOS>ATOM
      1 C1         -0.0127    1.0858    0.0080 C.3       1 <0>         0.0019
      2 C2         -0.7286    1.5791    1.2674 C.3       1 <0>        -0.1023
      3 H1         -0.7316    2.6691    1.2810 H         1 <0>         0.1126
      4 C3         -2.1703    1.0639    1.2644 C.3       1 <0>         0.1089
      5 H2         -2.1688   -0.0258    1.2907 H         1 <0>         0.0820
      6 C4         -2.8727    1.5441   -0.0087 C.3       1 <0>         0.0566
      7 H3         -2.9100    2.6334   -0.0156 H         1 <0>         0.0901
      8 C5         -2.0949    1.0518   -1.2313 C.3       1 <0>        -0.0409
      9 O1         -4.2019    1.0209   -0.0465 O.3       1 <0>        -0.5391
     10 O2         -2.8602    1.5683    2.4096 O.3       1 <0>        -0.5462
     11 C6         -0.0015    1.0541    2.5071 C.3       1 <0>         0.0845
     12 O3          1.3073    1.6242    2.5688 O.3       1 <0>        -0.5791
     13 H4          0.0021   -0.0041    0.0020 H         1 <0>         0.1346
     14 H5          1.0099    1.4629    0.0003 H         1 <0>         0.1504
     15 H6         -2.5844    1.4040   -2.1392 H         1 <0>         0.1385
     16 H7         -2.0703   -0.0380   -1.2313 H         1 <0>         0.1401
     17 H8         -4.7056    1.2828   -0.8292 H         1 <0>         0.4002
     18 H9         -3.7828    1.2851    2.4693 H         1 <0>         0.4024
     19 H10        -0.5609    1.3308    3.4008 H         1 <0>         0.0787
     20 H11         0.0774   -0.0315    2.4494 H         1 <0>         0.0582
     21 H12         1.8268    1.3350    3.3314 H         1 <0>         0.4003
     22 N1         -0.7177    1.5794   -1.1903 N.4       1 <0>        -0.5113
     23 H13        -0.2128    1.2727   -2.0301 H         1 <0>         0.4429
     24 H14        -0.7491    2.6054   -1.1656 H         1 <0>         0.4358
@<TRIPOS>BOND
     1    1    2 1
     2    1   13 1
     3    1   14 1
     4    1   22 1
     5    2    3 1
     6    2    4 1
     7    2   11 1
     8    4    5 1
     9    4    6 1
    10    4   10 1
    11    6    7 1
    12    6    8 1
    13    6    9 1
    14    8   15 1
    15    8   16 1
    16    8   22 1
    17    9   17 1
    18   10   18 1
    19   11   12 1
    20   11   19 1
    21   11   20 1
    22   12   21 1
    23   22   23 1
    24   22   24 1
@<TRIPOS>MOLECULE
ZINC01492250
   21    21     0     0     0
SMALL
USER_CHARGES

@<TRIPOS>ATOM
      1 C1         -0.0181    1.4814    0.0102 C.3       1 <0>        -0.0360
      2 C2          1.4704    1.8907   -0.0018 C.3       1 <0>         0.0487
      3 H1          1.6139    2.7789   -0.6172 H         1 <0>         0.1181
      4 C3          2.2123    0.6866   -0.6178 C.3       1 <0>         0.1006
      5 H2          2.9273    0.2771    0.0957 H         1 <0>         0.1105
      6 C4          1.1096   -0.3490   -0.9261 C.3       1 <0>         0.0419
      7 H3          0.7806   -0.2572   -1.9612 H         1 <0>         0.1632
      8 N1          0.0021   -0.0041    0.0020 N.4       1 <0>        -0.5084
      9 C5          1.6169   -1.7662   -0.6523 C.3       1 <0>         0.0591
     10 O1          0.6246   -2.7131   -1.0532 O.3       1 <0>        -0.5766
     11 O2          2.8797    1.0767   -1.8196 O.3       1 <0>        -0.5400
     12 O3          1.9299    2.1310    1.3298 O.3       1 <0>        -0.5502
     13 H4         -0.5064    1.8500    0.9123 H         1 <0>         0.1450
     14 H5         -0.5235    1.8596   -0.8784 H         1 <0>         0.1478
     15 H6          0.1931   -0.3595    0.9268 H         1 <0>         0.4333
     16 H7          2.5333   -1.9394   -1.2164 H         1 <0>         0.1010
     17 H8          1.8188   -1.8804    0.4128 H         1 <0>         0.0752
     18 H9          0.8790   -3.6347   -0.9082 H         1 <0>         0.4115
     19 H10         3.5534    1.7585   -1.6919 H         1 <0>         0.4100
     20 H11         1.4670    2.8496    1.7819 H         1 <0>         0.4029
     21 H12        -0.8738   -0.3670   -0.3434 H         1 <0>         0.4424
@<TRIPOS>BOND
     1    1    8 1
     2    1    2 1
     3    1   13 1
     4    1   14 1
     5    2    3 1
     6    2    4 1
     7    2   12 1
     8    4    5 1
     9    4    6 1
    10    4   11 1
    11    6    7 1
    12    6    8 1
    13    6    9 1
    14    8   15 1
    15    8   21 1
    16    9   10 1
    17    9   16 1
    18    9   17 1
    19   10   18 1
    20   11   19 1
    21   12   20 1
@<TRIPOS>MOLECULE
ZINC03931735
   29    30     0     0     0
SMALL
USER_CHARGES
6,7,8-trihydroxy-9-(hydroxymethyl)-2-thioxo-10-oxa-1,3-diazaspiro[4.5]decan-4-one
@<TRIPOS>ATOM
      1 C1         -0.7295    1.5796    1.2663 C.3       1 <0>         0.0841
      2 C2         -0.0127    1.0858    0.0080 C.3       1 <0>         0.0484
      3 H1          0.0021   -0.0041    0.0020 H         1 <0>         0.1039
      4 C3          1.4234    1.6160   -0.0029 C.3       1 <0>         0.0521
      5 H2          1.4097    2.7053    0.0353 H         1 <0>         0.0852
      6 C4          2.1200    1.1576   -1.2879 C.3       1 <0>         0.0774
      7 H3          2.1700    0.0690   -1.3074 H         1 <0>         0.0941
      8 C5          1.3174    1.6559   -2.4947 C.3       1 <0>         0.1008
      9 H4          1.3228    2.7458   -2.5105 H         1 <0>         0.1014
     10 C6         -0.1197    1.1551   -2.3849 C.3       1 <0>         0.2883
     11 O1         -0.7025    1.5598   -1.1513 O.3       1 <0>        -0.3288
     12 C7         -0.1642   -0.3492   -2.5240 C.2       1 <0>         0.5153
     13 O2          0.3628   -1.1688   -1.8025 O.2       1 <0>        -0.4296
     14 N1         -0.9135   -0.5880   -3.6202 N.am      1 <0>        -0.6299
     15 C8         -1.3410    0.5491   -4.1824 C.2       1 <0>         0.5579
     16 S1         -2.3145    0.6084   -5.5894 S.2       1 <0>        -0.5079
     17 N2         -0.9188    1.6413   -3.5172 N.pl3     1 <0>        -0.6338
     18 O3          1.9058    1.1575   -3.6978 O.3       1 <0>        -0.5463
     19 O4          3.4421    1.6980   -1.3342 O.3       1 <0>        -0.5531
     20 O5          2.1290    1.1065    1.1305 O.3       1 <0>        -0.5479
     21 O6         -2.0303    0.9919    1.3351 O.3       1 <0>        -0.5609
     22 H5         -0.1548    1.2942    2.1474 H         1 <0>         0.0731
     23 H6         -0.8227    2.6649    1.2291 H         1 <0>         0.0646
     24 H7         -1.1174   -1.4738   -3.9589 H         1 <0>         0.4489
     25 H8         -1.1054    2.5664   -3.7417 H         1 <0>         0.4592
     26 H9          2.8226    1.4344   -3.8313 H         1 <0>         0.4061
     27 H10         4.0034    1.4282   -0.5944 H         1 <0>         0.3996
     28 H11         1.7400    1.3548    1.9803 H         1 <0>         0.3883
     29 H12        -2.5430    1.2609    2.1096 H         1 <0>         0.3893
@<TRIPOS>BOND
     1    1    2 1
     2    1   21 1
     3    1   22 1
     4    1   23 1
     5    2    3 1
     6    2   11 1
     7    2    4 1
     8    4    5 1
     9    4    6 1
    10    4   20 1
    11    6    7 1
    12    6    8 1
    13    6   19 1
    14    8    9 1
    15    8   10 1
    16    8   18 1
    17   10   17 1
    18   10   11 1
    19   10   12 1
    20   12   13 2
    21   12   14 am
    22   14   15 1
    23   14   24 1
    24   15   16 2
    25   15   17 1
    26   17   25 1
    27   18   26 1
    28   19   27 1
    29   20   28 1
    30   21   29 1
@<TRIPOS>MOLECULE
ZINC45262037
   80    85     0     0     0
SMALL
USER_CHARGES

@<TRIPOS>ATOM
      1 C1         -0.3015    1.5044    0.6245 C.3       1 <0>        -0.1517
      2 C2         -0.2305   -0.0266    0.5027 C.3       1 <0>        -0.0256
      3 C3          0.0195   -0.3895   -0.9573 C.3       1 <0>        -0.1118
      4 C4          1.4317    0.0417   -1.3775 C.3       1 <0>        -0.1137
      5 C5          2.4362   -0.7287   -0.5196 C.3       1 <0>        -0.0553
      6 H1          2.1449   -1.8037   -0.5776 H         1 <0>         0.0673
      7 C6          2.2919   -0.3203    0.9432 C.3       1 <0>        -0.0318
      8 C7          0.8591   -0.5640    1.4146 C.3       1 <0>        -0.0554
      9 H2          0.7477   -1.6684    1.4711 H         1 <0>         0.0605
     10 C8          0.6551   -0.0344    2.8339 C.3       1 <0>        -0.0725
     11 C9         -0.7780   -0.1865    3.2479 C.2       1 <0>        -0.1733
     12 C10        -1.7718   -0.4217    2.4314 C.2       1 <0>        -0.0498
     13 C11        -1.5894   -0.5846    0.9528 C.3       1 <0>         0.0086
     14 C12        -2.7241    0.0434    0.1547 C.3       1 <0>        -0.0987
     15 C13        -4.0890   -0.2534    0.7748 C.3       1 <0>        -0.0851
     16 C14        -4.1489    0.2458    2.2144 C.3       1 <0>        -0.1134
     17 C15        -3.1467   -0.5270    3.0670 C.3       1 <0>        -0.0160
     18 H3         -3.0998   -0.0642    4.0643 H         1 <0>         0.0695
     19 C16        -3.5492   -1.9890    3.2013 C.3       1 <0>        -0.0992
     20 C17        -4.9559   -2.1271    3.7843 C.3       1 <0>        -0.0624
     21 C18        -5.9522   -1.3709    2.9083 C.3       1 <0>        -0.1013
     22 C19        -5.5613    0.0948    2.7756 C.3       1 <0>        -0.0917
     23 C20        -5.3381   -3.6147    3.7967 C.3       1 <0>        -0.1397
     24 C21        -4.9930   -1.5996    5.2169 C.3       1 <0>        -0.1397
     25 C22        -3.7949    1.7156    2.2553 C.2       1 <0>         0.5069
     26 O1         -4.4680    2.5222    1.6367 O.co2     1 <0>        -0.7087
     27 O2         -2.8364    2.0938    2.9070 O.co2     1 <0>        -0.6829
     28 C23        -1.5962   -2.0894    0.6484 C.3       1 <0>        -0.1511
     29 C24         3.1911   -1.2527    1.7952 C.3       1 <0>        -0.0393
     30 C25         4.5988   -1.1022    1.2805 C.2       1 <0>        -0.2293
     31 C26         5.7972   -1.2218    1.9757 C.2       1 <0>         0.0568
     32 N1          6.7763   -1.0030    1.1322 N.2       1 <0>        -0.3050
     33 N2          6.2203   -0.7344   -0.1285 N.pl3     1 <0>        -0.4710
     34 H4          6.7179   -0.5338   -0.9356 H         1 <0>         0.4323
     35 C27         4.8832   -0.8055   -0.0129 C.2       1 <0>         0.1064
     36 C28         3.8438   -0.6108   -1.0860 C.3       1 <0>         0.0149
     37 C29         4.0460   -1.7265   -2.1331 C.3       1 <0>        -0.1443
     38 C30         4.0774    0.7312   -1.7821 C.3       1 <0>        -0.1469
     39 C31         2.7517    1.1142    1.1770 C.3       1 <0>        -0.1460
     40 H5          0.6356    1.9402    0.2780 H         1 <0>         0.0459
     41 H6         -1.1239    1.8796    0.0154 H         1 <0>         0.0517
     42 H7         -0.4665    1.7787    1.6664 H         1 <0>         0.0786
     43 H8         -0.0481   -1.4609   -1.1319 H         1 <0>         0.0619
     44 H9         -0.7048    0.1223   -1.5965 H         1 <0>         0.0619
     45 H10         1.5632   -0.2238   -2.4300 H         1 <0>         0.0558
     46 H11         1.5349    1.1122   -1.2581 H         1 <0>         0.0710
     47 H12         1.2781   -0.6174    3.5236 H         1 <0>         0.0539
     48 H13         0.9343    1.0107    2.9265 H         1 <0>         0.0725
     49 H14        -1.0125   -0.0993    4.3007 H         1 <0>         0.0904
     50 H15        -2.6171    1.1114    0.0167 H         1 <0>         0.0734
     51 H16        -2.7157   -0.4042   -0.8574 H         1 <0>         0.0381
     52 H17        -4.8622    0.2562    0.1891 H         1 <0>         0.0520
     53 H18        -4.2866   -1.3242    0.7444 H         1 <0>         0.0440
     54 H19        -3.5485   -2.4746    2.2227 H         1 <0>         0.0609
     55 H20        -2.8391   -2.5073    3.8498 H         1 <0>         0.0495
     56 H21        -5.9843   -1.8324    1.9179 H         1 <0>         0.0546
     57 H22        -6.9493   -1.4428    3.3535 H         1 <0>         0.0479
     58 H23        -5.6194    0.5921    3.7447 H         1 <0>         0.0506
     59 H24        -6.2632    0.5939    2.0972 H         1 <0>         0.0569
     60 H25        -4.6265   -4.1675    4.4100 H         1 <0>         0.0492
     61 H26        -6.3400   -3.7290    4.2104 H         1 <0>         0.0484
     62 H27        -5.3189   -4.0033    2.7785 H         1 <0>         0.0495
     63 H28        -4.7077   -0.5476    5.2242 H         1 <0>         0.0624
     64 H29        -6.0014   -1.7053    5.6170 H         1 <0>         0.0463
     65 H30        -4.2965   -2.1693    5.8320 H         1 <0>         0.0479
     66 H31        -0.8566   -2.5898    1.2735 H         1 <0>         0.0504
     67 H32        -2.5848   -2.4979    0.8574 H         1 <0>         0.0569
     68 H33        -1.3518   -2.2487   -0.4019 H         1 <0>         0.0531
     69 H34         3.1430   -0.9440    2.8344 H         1 <0>         0.0745
     70 H35         2.8579   -2.2786    1.6786 H         1 <0>         0.0667
     71 H36         5.9046   -1.4516    3.0261 H         1 <0>         0.1799
     72 H37         3.3131   -1.6123   -2.9318 H         1 <0>         0.0664
     73 H38         5.0509   -1.6563   -2.5493 H         1 <0>         0.0497
     74 H39         3.9167   -2.6987   -1.6576 H         1 <0>         0.0590
     75 H40         3.9316    1.5413   -1.0676 H         1 <0>         0.0666
     76 H41         5.0956    0.7672   -2.1694 H         1 <0>         0.0470
     77 H42         3.3714    0.8413   -2.6053 H         1 <0>         0.0706
     78 H43         2.2440    1.7772    0.4765 H         1 <0>         0.0615
     79 H44         2.5110    1.4111    2.1978 H         1 <0>         0.0604
     80 H45         3.8289    1.1800    1.0239 H         1 <0>         0.0512
@<TRIPOS>BOND
     1    1    2 1
     2    1   40 1
     3    1   41 1
     4    1   42 1
     5    2    8 1
     6    2   13 1
     7    2    3 1
     8    3    4 1
     9    3   43 1
    10    3   44 1
    11    4    5 1
    12    4   45 1
    13    4   46 1
    14    5    6 1
    15    5   36 1
    16    5    7 1
    17    7    8 1
    18    7   29 1
    19    7   39 1
    20    8    9 1
    21    8   10 1
    22   10   11 1
    23   10   47 1
    24   10   48 1
    25   11   12 2
    26   11   49 1
    27   12   17 1
    28   12   13 1
    29   13   14 1
    30   13   28 1
    31   14   15 1
    32   14   50 1
    33   14   51 1
    34   15   16 1
    35   15   52 1
    36   15   53 1
    37   16   22 1
    38   16   17 1
    39   16   25 1
    40   17   18 1
    41   17   19 1
    42   19   20 1
    43   19   54 1
    44   19   55 1
    45   20   21 1
    46   20   23 1
    47   20   24 1
    48   21   22 1
    49   21   56 1
    50   21   57 1
    51   22   58 1
    52   22   59 1
    53   23   60 1
    54   23   61 1
    55   23   62 1
    56   24   63 1
    57   24   64 1
    58   24   65 1
    59   25   26 2
    60   25   27 1
    61   28   66 1
    62   28   67 1
    63   28   68 1
    64   29   30 1
    65   29   69 1
    66   29   70 1
    67   30   35 2
    68   30   31 1
    69   31   32 2
    70   31   71 1
    71   32   33 1
    72   33   34 1
    73   33   35 1
    74   35   36 1
    75   36   37 1
    76   36   38 1
    77   37   72 1
    78   37   73 1
    79   37   74 1
    80   38   75 1
    81   38   76 1
    82   38   77 1
    83   39   78 1
    84   39   79 1
    85   39   80 1
@<TRIPOS>MOLECULE
ZINC45262037
   81    86     0     0     0
SMALL
USER_CHARGES

@<TRIPOS>ATOM
      1 C1         -0.2673    1.5034    0.6259 C.3       1 <0>        -0.1538
      2 C2         -0.2018   -0.0280    0.5046 C.3       1 <0>        -0.0270
      3 C3          0.0469   -0.3906   -0.9552 C.3       1 <0>        -0.1146
      4 C4          1.4643    0.0223   -1.3744 C.3       1 <0>        -0.1145
      5 C5          2.4616   -0.7496   -0.5103 C.3       1 <0>        -0.0668
      6 H1          2.1654   -1.8225   -0.5629 H         1 <0>         0.0842
      7 C6          2.3188   -0.3337    0.9508 C.3       1 <0>        -0.0353
      8 C7          0.8836   -0.5685    1.4201 C.3       1 <0>        -0.0571
      9 H2          0.7672   -1.6724    1.4802 H         1 <0>         0.0674
     10 C8          0.6760   -0.0340    2.8368 C.3       1 <0>        -0.0700
     11 C9         -0.7606   -0.1679    3.2451 C.2       1 <0>        -0.1844
     12 C10        -1.7544   -0.4017    2.4273 C.2       1 <0>        -0.0398
     13 C11        -1.5646   -0.5802    0.9520 C.3       1 <0>         0.0073
     14 C12        -2.6910    0.0415    0.1388 C.3       1 <0>        -0.0997
     15 C13        -4.0609   -0.2418    0.7546 C.3       1 <0>        -0.0873
     16 C14        -4.1279    0.2764    2.1870 C.3       1 <0>        -0.1134
     17 C15        -3.1342   -0.4878    3.0562 C.3       1 <0>        -0.0176
     18 H3         -3.0893   -0.0096    4.0468 H         1 <0>         0.0715
     19 C16        -3.5444   -1.9456    3.2140 C.3       1 <0>        -0.0976
     20 C17        -4.9574   -2.0691    3.7844 C.3       1 <0>        -0.0621
     21 C18        -5.9430   -1.3245    2.8866 C.3       1 <0>        -0.1028
     22 C19        -5.5468    0.1388    2.7364 C.3       1 <0>        -0.0931
     23 C20        -5.3452   -3.5553    3.8180 C.3       1 <0>        -0.1405
     24 C21        -5.0078   -1.5175    5.2080 C.3       1 <0>        -0.1405
     25 C22        -3.7699    1.7460    2.2107 C.2       1 <0>         0.5066
     26 O1         -4.4370    2.5462    1.5775 O.co2     1 <0>        -0.7042
     27 O2         -2.8142    2.1301    2.8631 O.co2     1 <0>        -0.6865
     28 C23        -1.5710   -2.0882    0.6643 C.3       1 <0>        -0.1518
     29 C24         3.2133   -1.2679    1.8063 C.3       1 <0>        -0.0560
     30 C25         4.6222   -1.1242    1.2933 C.2       1 <0>        -0.1946
     31 C26         5.8200   -1.2418    1.9900 C.2       1 <0>         0.2040
     32 N1          6.8011   -1.0301    1.1459 N.pl3     1 <0>        -0.3864
     33 N2          6.2467   -0.7715   -0.1172 N.pl3     1 <0>        -0.4208
     34 H4          6.7459   -0.5817   -0.9271 H         1 <0>         0.4692
     35 C27         4.9094   -0.8362   -0.0017 C.2       1 <0>         0.2383
     36 C28         3.8705   -0.6430   -1.0756 C.3       1 <0>         0.0054
     37 C29         4.0679   -1.7660   -2.1157 C.3       1 <0>        -0.1535
     38 C30         4.1128    0.6927   -1.7805 C.3       1 <0>        -0.1578
     39 C31         2.7847    1.0994    1.1787 C.3       1 <0>        -0.1542
     40 H5          0.6721    1.9357    0.2813 H         1 <0>         0.0427
     41 H6         -1.0870    1.8816    0.0151 H         1 <0>         0.0573
     42 H7         -0.4334    1.7786    1.6675 H         1 <0>         0.0819
     43 H8         -0.0407   -1.4600   -1.1360 H         1 <0>         0.0663
     44 H9         -0.6682    0.1365   -1.5934 H         1 <0>         0.0699
     45 H10         1.5953   -0.2549   -2.4243 H         1 <0>         0.0636
     46 H11         1.5778    1.0919   -1.2655 H         1 <0>         0.0765
     47 H12         1.2883   -0.6228    3.5322 H         1 <0>         0.0525
     48 H13         0.9683    1.0081    2.9298 H         1 <0>         0.0732
     49 H14        -1.0002   -0.0653    4.2966 H         1 <0>         0.0942
     50 H15        -2.5779    1.1069   -0.0146 H         1 <0>         0.0745
     51 H16        -2.6791   -0.4210   -0.8665 H         1 <0>         0.0396
     52 H17        -4.8281    0.2630    0.1576 H         1 <0>         0.0550
     53 H18        -4.2630   -1.3117    0.7375 H         1 <0>         0.0455
     54 H19        -3.5326   -2.4504    2.2460 H         1 <0>         0.0600
     55 H20        -2.8437   -2.4536    3.8817 H         1 <0>         0.0488
     56 H21        -5.9661   -1.8010    1.9031 H         1 <0>         0.0551
     57 H22        -6.9446   -1.3867    3.3227 H         1 <0>         0.0504
     58 H23        -5.6163    0.6530    3.6947 H         1 <0>         0.0523
     59 H24        -6.2390    0.6267    2.0395 H         1 <0>         0.0585
     60 H25        -4.6421   -4.1001    4.4481 H         1 <0>         0.0491
     61 H26        -6.3518   -3.6590    4.2231 H         1 <0>         0.0504
     62 H27        -5.3168   -3.9612    2.8068 H         1 <0>         0.0496
     63 H28        -4.7188   -0.4665    5.2008 H         1 <0>         0.0619
     64 H29        -6.0207   -1.6131    5.5991 H         1 <0>         0.0484
     65 H30        -4.3198   -2.0791    5.8399 H         1 <0>         0.0478
     66 H31        -0.8342   -2.5821    1.2977 H         1 <0>         0.0494
     67 H32        -2.5607   -2.4938    0.8740 H         1 <0>         0.0610
     68 H33        -1.3227   -2.2592   -0.3832 H         1 <0>         0.0536
     69 H34         3.1638   -0.9602    2.8458 H         1 <0>         0.1010
     70 H35         2.8772   -2.2930    1.6876 H         1 <0>         0.0964
     71 H36         5.9273   -1.4657    3.0411 H         1 <0>         0.2400
     72 H37         3.3367   -1.6527   -2.9160 H         1 <0>         0.0898
     73 H38         5.0738   -1.7039   -2.5310 H         1 <0>         0.0574
     74 H39         3.9328   -2.7347   -1.6345 H         1 <0>         0.0700
     75 H40         3.9705    1.5086   -1.0719 H         1 <0>         0.0768
     76 H41         5.1318    0.7202   -2.1665 H         1 <0>         0.0542
     77 H42         3.4088    0.8011   -2.6056 H         1 <0>         0.0933
     78 H43         2.2796    1.7617    0.4756 H         1 <0>         0.0757
     79 H44         2.5455    1.4014    2.1983 H         1 <0>         0.0733
     80 H45         3.8621    1.1599    1.0250 H         1 <0>         0.0384
     81 H46         7.7471   -1.0475    1.3583 H         1 <0>         0.4747
@<TRIPOS>BOND
     1    1    2 1
     2    1   40 1
     3    1   41 1
     4    1   42 1
     5    2    8 1
     6    2   13 1
     7    2    3 1
     8    3    4 1
     9    3   43 1
    10    3   44 1
    11    4    5 1
    12    4   45 1
    13    4   46 1
    14    5    6 1
    15    5   36 1
    16    5    7 1
    17    7    8 1
    18    7   29 1
    19    7   39 1
    20    8    9 1
    21    8   10 1
    22   10   11 1
    23   10   47 1
    24   10   48 1
    25   11   12 2
    26   11   49 1
    27   12   17 1
    28   12   13 1
    29   13   14 1
    30   13   28 1
    31   14   15 1
    32   14   50 1
    33   14   51 1
    34   15   16 1
    35   15   52 1
    36   15   53 1
    37   16   22 1
    38   16   17 1
    39   16   25 1
    40   17   18 1
    41   17   19 1
    42   19   20 1
    43   19   54 1
    44   19   55 1
    45   20   21 1
    46   20   23 1
    47   20   24 1
    48   21   22 1
    49   21   56 1
    50   21   57 1
    51   22   58 1
    52   22   59 1
    53   23   60 1
    54   23   61 1
    55   23   62 1
    56   24   63 1
    57   24   64 1
    58   24   65 1
    59   25   26 2
    60   25   27 1
    61   28   66 1
    62   28   67 1
    63   28   68 1
    64   29   30 1
    65   29   69 1
    66   29   70 1
    67   30   35 2
    68   30   31 1
    69   31   32 2
    70   31   71 1
    71   32   33 1
    72   32   81 1
    73   33   34 1
    74   33   35 1
    75   35   36 1
    76   36   37 1
    77   36   38 1
    78   37   72 1
    79   37   73 1
    80   37   74 1
    81   38   75 1
    82   38   76 1
    83   38   77 1
    84   39   78 1
    85   39   79 1
    86   39   80 1
@<TRIPOS>MOLECULE
ZINC38557962
   81    85     0     0     0
SMALL
USER_CHARGES

@<TRIPOS>ATOM
      1 C1         -0.5498    1.5169    0.4469 C.3       1 <0>        -0.1534
      2 C2         -0.4501   -0.0161    0.3419 C.3       1 <0>        -0.0240
      3 C3         -0.2147   -0.3751   -1.1189 C.3       1 <0>        -0.1103
      4 C4          1.2182   -0.0250   -1.5495 C.3       1 <0>        -0.1132
      5 C5          2.1691   -0.8253   -0.6606 C.3       1 <0>        -0.0561
      6 H1          1.7543   -1.8648   -0.6357 H         1 <0>         0.0616
      7 C6          2.0769   -0.3083    0.7682 C.3       1 <0>        -0.0268
      8 C7          0.6431   -0.5305    1.2630 C.3       1 <0>        -0.0564
      9 H2          0.5369   -1.6324    1.3580 H         1 <0>         0.0564
     10 C8          0.4520    0.0472    2.6640 C.3       1 <0>        -0.0718
     11 C9         -0.9802   -0.0854    3.0893 C.2       1 <0>        -0.1753
     12 C10        -1.9780   -0.3557    2.2865 C.2       1 <0>        -0.0487
     13 C11        -1.8014   -0.5800    0.8148 C.3       1 <0>         0.0082
     14 C12        -2.9445   -0.0022   -0.0060 C.3       1 <0>        -0.0982
     15 C13        -4.3047   -0.2709    0.6374 C.3       1 <0>        -0.0852
     16 C14        -4.3575    0.2982    2.0512 C.3       1 <0>        -0.1135
     17 C15        -3.3502   -0.4328    2.9332 C.3       1 <0>        -0.0155
     18 H3         -3.2988    0.0720    3.9094 H         1 <0>         0.0692
     19 C16        -3.7486   -1.8895    3.1313 C.3       1 <0>        -0.0991
     20 C17        -5.1532   -2.0039    3.7250 C.3       1 <0>        -0.0625
     21 C18        -6.1547   -1.2900    2.8185 C.3       1 <0>        -0.1015
     22 C19        -5.7678    0.1703    2.6239 C.3       1 <0>        -0.0915
     23 C20        -5.1879   -1.4139    5.1327 C.3       1 <0>        -0.1393
     24 C21        -5.5317   -3.4915    3.8020 C.3       1 <0>        -0.1397
     25 C22        -4.0073    1.7689    2.0202 C.2       1 <0>         0.5072
     26 O1         -4.6859    2.5436    1.3676 O.co2     1 <0>        -0.7088
     27 O2         -3.0463    2.1800    2.6479 O.co2     1 <0>        -0.6825
     28 C23        -1.7852   -2.0952    0.5736 C.3       1 <0>        -0.1493
     29 C24         3.0065   -1.1356    1.6670 C.3       1 <0>        -0.1017
     30 C25         4.4337   -1.1499    1.1506 C.3       1 <0>         0.0905
     31 H4          5.0033   -1.8695    1.7789 H         1 <0>         0.0361
     32 C26         4.5297   -1.6350   -0.2848 C.3       1 <0>         0.0913
     33 H5          5.5541   -1.4627   -0.6498 H         1 <0>         0.0463
     34 C27         3.5613   -0.9354   -1.2343 C.3       1 <0>        -0.0321
     35 C28         4.1329    0.4139   -1.6736 C.3       1 <0>        -0.1502
     36 C29         3.4871   -1.8228   -2.5043 C.3       1 <0>        -0.1400
     37 O3          4.2875   -3.0477   -0.3286 O.3       1 <0>        -0.5558
     38 O4          5.0736    0.1145    1.3101 O.3       1 <0>        -0.5470
     39 C30         2.4741    1.1590    0.8842 C.3       1 <0>        -0.1595
     40 H6          0.3694    1.9674    0.0724 H         1 <0>         0.0465
     41 H7         -1.3943    1.8676   -0.1464 H         1 <0>         0.0519
     42 H8         -0.6952    1.8010    1.4892 H         1 <0>         0.0790
     43 H9         -0.3610   -1.4358   -1.3124 H         1 <0>         0.0603
     44 H10        -0.9083    0.1909   -1.7497 H         1 <0>         0.0581
     45 H11         1.3373   -0.3190   -2.5950 H         1 <0>         0.0546
     46 H12         1.3816    1.0402   -1.4637 H         1 <0>         0.0677
     47 H13         1.0757   -0.5161    3.3707 H         1 <0>         0.0500
     48 H14         0.7391    1.0932    2.7209 H         1 <0>         0.0728
     49 H15        -1.2129    0.0500    4.1385 H         1 <0>         0.0898
     50 H16        -2.8435    1.0550   -0.2104 H         1 <0>         0.0734
     51 H17        -2.9435   -0.5083   -0.9915 H         1 <0>         0.0372
     52 H18        -5.0838    0.2061    0.0339 H         1 <0>         0.0522
     53 H19        -4.4989   -1.3430    0.6630 H         1 <0>         0.0440
     54 H20        -3.7485   -2.4152    2.1748 H         1 <0>         0.0607
     55 H21        -3.0355   -2.3774    3.8001 H         1 <0>         0.0489
     56 H22        -6.1884   -1.7934    1.8491 H         1 <0>         0.0552
     57 H23        -7.1492   -1.3448    3.2716 H         1 <0>         0.0479
     58 H24        -5.8294    0.7111    3.5674 H         1 <0>         0.0512
     59 H25        -6.4719    0.6333    1.9214 H         1 <0>         0.0565
     60 H26        -4.9047   -0.3621    5.0928 H         1 <0>         0.0624
     61 H27        -6.1950   -1.5039    5.5397 H         1 <0>         0.0465
     62 H28        -4.4885   -1.9545    5.7705 H         1 <0>         0.0477
     63 H29        -4.8166   -4.0160    4.4357 H         1 <0>         0.0489
     64 H30        -6.5319   -3.5905    4.2237 H         1 <0>         0.0484
     65 H31        -5.5151   -3.9229    2.8011 H         1 <0>         0.0495
     66 H32        -1.0583   -2.5613    1.2389 H         1 <0>         0.0499
     67 H33        -2.7752   -2.5054    0.7728 H         1 <0>         0.0556
     68 H34        -1.5105   -2.2954   -0.4620 H         1 <0>         0.0532
     69 H35         2.9885   -0.7053    2.6745 H         1 <0>         0.0712
     70 H36         2.6226   -2.1577    1.7241 H         1 <0>         0.0748
     71 H37         4.1679    1.0893   -0.8188 H         1 <0>         0.0761
     72 H38         5.1399    0.2717   -2.0658 H         1 <0>         0.0462
     73 H39         3.4980    0.8423   -2.4493 H         1 <0>         0.0606
     74 H40         2.8160   -1.3632   -3.2299 H         1 <0>         0.0518
     75 H41         4.4819   -1.9186   -2.9392 H         1 <0>         0.0449
     76 H42         3.1111   -2.8101   -2.2362 H         1 <0>         0.0639
     77 H43         4.9129   -3.5703    0.1918 H         1 <0>         0.3706
     78 H44         5.9857    0.1369    0.9898 H         1 <0>         0.3697
     79 H45         1.9247    1.7435    0.1462 H         1 <0>         0.0594
     80 H46         2.2373    1.5215    1.8844 H         1 <0>         0.0540
     81 H47         3.5444    1.2609    0.7048 H         1 <0>         0.0794
@<TRIPOS>BOND
     1    1    2 1
     2    1   40 1
     3    1   41 1
     4    1   42 1
     5    2    8 1
     6    2   13 1
     7    2    3 1
     8    3    4 1
     9    3   43 1
    10    3   44 1
    11    4    5 1
    12    4   45 1
    13    4   46 1
    14    5    6 1
    15    5   34 1
    16    5    7 1
    17    7    8 1
    18    7   29 1
    19    7   39 1
    20    8    9 1
    21    8   10 1
    22   10   11 1
    23   10   47 1
    24   10   48 1
    25   11   12 2
    26   11   49 1
    27   12   17 1
    28   12   13 1
    29   13   14 1
    30   13   28 1
    31   14   15 1
    32   14   50 1
    33   14   51 1
    34   15   16 1
    35   15   52 1
    36   15   53 1
    37   16   22 1
    38   16   17 1
    39   16   25 1
    40   17   18 1
    41   17   19 1
    42   19   20 1
    43   19   54 1
    44   19   55 1
    45   20   21 1
    46   20   23 1
    47   20   24 1
    48   21   22 1
    49   21   56 1
    50   21   57 1
    51   22   58 1
    52   22   59 1
    53   23   60 1
    54   23   61 1
    55   23   62 1
    56   24   63 1
    57   24   64 1
    58   24   65 1
    59   25   26 2
    60   25   27 1
    61   28   66 1
    62   28   67 1
    63   28   68 1
    64   29   30 1
    65   29   69 1
    66   29   70 1
    67   30   31 1
    68   30   32 1
    69   30   38 1
    70   32   33 1
    71   32   34 1
    72   32   37 1
    73   34   35 1
    74   34   36 1
    75   35   71 1
    76   35   72 1
    77   35   73 1
    78   36   74 1
    79   36   75 1
    80   36   76 1
    81   37   77 1
    82   38   78 1
    83   39   79 1
    84   39   80 1
    85   39   81 1
