@<TRIPOS>MOLECULE
ZINC03776693
   48    49     0     0     0
SMALL
USER_CHARGES

@<TRIPOS>ATOM
      1 C1          0.0827    1.4075    0.3664 C.3       1 <0>        -0.1765
      2 C2          0.0435   -0.1185    0.2629 C.3       1 <0>         0.1046
      3 N1         -1.3469   -0.5642    0.1433 N.pl3     1 <0>        -0.4909
      4 C3         -2.0717   -0.8441    1.2677 C.2       1 <0>         0.2483
      5 C4         -3.1984   -1.5740    1.1994 C.2       1 <0>        -0.3154
      6 C5         -3.7052   -2.1195   -0.1050 C.3       1 <0>         0.0790
      7 H1         -4.7831   -1.9681   -0.1625 H         1 <0>         0.0892
      8 C6         -3.0465   -1.4281   -1.2648 C.2       1 <0>        -0.2220
      9 C7         -1.9208   -0.6944   -1.1007 C.2       1 <0>         0.0674
     10 C8         -1.2971   -0.0288   -2.2715 C.2       1 <0>         0.5838
     11 O1         -1.5678    1.1345   -2.5287 O.co2     1 <0>        -0.6871
     12 O2         -0.5130   -0.6442   -2.9780 O.co2     1 <0>        -0.6877
     13 C9         -3.6364   -1.5464   -2.5996 C.2       1 <0>         0.5234
     14 O3         -3.1743   -0.9022   -3.5324 O.co2     1 <0>        -0.6574
     15 O4         -4.5918   -2.2896   -2.7829 O.co2     1 <0>        -0.7051
     16 C10        -3.4075   -3.5952   -0.1745 C.ar      1 <0>        -0.0122
     17 C11        -2.1011   -4.0410   -0.1013 C.ar      1 <0>        -0.0958
     18 C12        -1.8278   -5.3944   -0.1650 C.ar      1 <0>        -0.1290
     19 C13        -2.8609   -6.3031   -0.3020 C.ar      1 <0>        -0.1338
     20 C14        -4.1673   -5.8586   -0.3752 C.ar      1 <0>        -0.1278
     21 C15        -4.4419   -4.5042   -0.3058 C.ar      1 <0>         0.0023
     22 Cl1        -6.0833   -3.9454   -0.3912 Cl        1 <0>        -0.0617
     23 C16        -3.9242   -1.8350    2.3848 C.2       1 <0>         0.5272
     24 O5         -3.5267   -1.4005    3.4497 O.2       1 <0>        -0.5608
     25 O6         -5.0575   -2.5659    2.3350 O.3       1 <0>        -0.3308
     26 C17        -5.7394   -2.7905    3.5705 C.3       1 <0>         0.0814
     27 C18        -6.7503   -1.6666    3.8067 C.3       1 <0>        -0.1670
     28 C19        -6.4727   -4.1321    3.5118 C.3       1 <0>        -0.1449
     29 C20        -1.6009   -0.3276    2.6028 C.3       1 <0>        -0.1105
     30 H2          1.1172    1.7392    0.4554 H         1 <0>         0.0579
     31 H3         -0.3631    1.8439   -0.5275 H         1 <0>         0.0870
     32 H4         -0.4781    1.7267    1.2449 H         1 <0>         0.0508
     33 H5          0.6043   -0.4376   -0.6156 H         1 <0>         0.0953
     34 H6          0.4893   -0.5548    1.1568 H         1 <0>         0.0711
     35 H7         -1.2937   -3.3317    0.0053 H         1 <0>         0.1170
     36 H8         -0.8070   -5.7423   -0.1081 H         1 <0>         0.1137
     37 H9         -2.6467   -7.3605   -0.3520 H         1 <0>         0.1153
     38 H10        -4.9742   -6.5685   -0.4825 H         1 <0>         0.1187
     39 H11        -5.0170   -2.8068    4.3866 H         1 <0>         0.0735
     40 H12        -6.2279   -0.7109    3.8486 H         1 <0>         0.0591
     41 H13        -7.4728   -1.6504    2.9907 H         1 <0>         0.0630
     42 H14        -7.2705   -1.8379    4.7492 H         1 <0>         0.0606
     43 H15        -5.7525   -4.9327    3.3435 H         1 <0>         0.0609
     44 H16        -6.9929   -4.3034    4.4542 H         1 <0>         0.0641
     45 H17        -7.1952   -4.1158    2.6958 H         1 <0>         0.0663
     46 H18        -0.6790    0.2383    2.4689 H         1 <0>         0.0581
     47 H19        -2.3656    0.3197    3.0322 H         1 <0>         0.0907
     48 H20        -1.4176   -1.1674    3.2731 H         1 <0>         0.0867
@<TRIPOS>BOND
     1    1    2 1
     2    1   30 1
     3    1   31 1
     4    1   32 1
     5    2    3 1
     6    2   33 1
     7    2   34 1
     8    3    9 1
     9    3    4 1
    10    4    5 2
    11    4   29 1
    12    5    6 1
    13    5   23 1
    14    6    7 1
    15    6    8 1
    16    6   16 1
    17    8    9 2
    18    8   13 1
    19    9   10 1
    20   10   11 2
    21   10   12 1
    22   13   14 2
    23   13   15 1
    24   16   21 ar
    25   16   17 ar
    26   17   18 ar
    27   17   35 1
    28   18   19 ar
    29   18   36 1
    30   19   20 ar
    31   19   37 1
    32   20   21 ar
    33   20   38 1
    34   21   22 1
    35   23   24 2
    36   23   25 1
    37   25   26 1
    38   26   27 1
    39   26   28 1
    40   26   39 1
    41   27   40 1
    42   27   41 1
    43   27   42 1
    44   28   43 1
    45   28   44 1
    46   28   45 1
    47   29   46 1
    48   29   47 1
    49   29   48 1
@<TRIPOS>MOLECULE
ZINC03993547
   48    49     0     0     0
SMALL
USER_CHARGES

@<TRIPOS>ATOM
      1 C1          1.0052   -0.9820    0.0129 C.3       1 <0>        -0.1754
      2 C2         -0.0333    0.1392    0.0856 C.3       1 <0>         0.1044
      3 N1         -1.3791   -0.4389    0.0525 N.pl3     1 <0>        -0.4905
      4 C3         -1.9880   -0.8143    1.2172 C.2       1 <0>         0.2484
      5 C4         -3.3167   -1.0112    1.2697 C.2       1 <0>        -0.3156
      6 C5         -4.1893   -0.8199    0.0622 C.3       1 <0>         0.0787
      7 H1         -4.9038   -1.6408    0.0024 H         1 <0>         0.0890
      8 C6         -3.3645   -0.7901   -1.1931 C.2       1 <0>        -0.2218
      9 C7         -2.0284   -0.5969   -1.1505 C.2       1 <0>         0.0669
     10 C8         -1.2526   -0.5597   -2.4152 C.2       1 <0>         0.5839
     11 O1         -1.1514    0.4858   -3.0393 O.co2     1 <0>        -0.6885
     12 O2         -0.7150   -1.5745   -2.8322 O.co2     1 <0>        -0.6871
     13 C9         -4.0230   -0.9696   -2.4885 C.2       1 <0>         0.5236
     14 O3         -3.3524   -1.0613   -3.5086 O.co2     1 <0>        -0.6572
     15 O4         -5.2442   -1.0280   -2.5514 O.co2     1 <0>        -0.7049
     16 C10        -4.9386    0.4811    0.1931 C.ar      1 <0>        -0.0123
     17 C11        -4.2439    1.6719    0.2940 C.ar      1 <0>        -0.0952
     18 C12        -4.9310    2.8652    0.4140 C.ar      1 <0>        -0.1292
     19 C13        -6.3135    2.8686    0.4332 C.ar      1 <0>        -0.1334
     20 C14        -7.0091    1.6787    0.3324 C.ar      1 <0>        -0.1284
     21 C15        -6.3218    0.4843    0.2065 C.ar      1 <0>         0.0030
     22 Cl1        -7.1951   -1.0101    0.0733 Cl        1 <0>        -0.0618
     23 C16        -3.9073   -1.4086    2.4916 C.2       1 <0>         0.5273
     24 O5         -3.2142   -1.5683    3.4789 O.2       1 <0>        -0.5607
     25 O6         -5.2397   -1.6109    2.5627 O.3       1 <0>        -0.3309
     26 C17        -5.7685   -2.0111    3.8285 C.3       1 <0>         0.0812
     27 C18        -6.1482   -0.7697    4.6382 C.3       1 <0>        -0.1647
     28 C19        -7.0104   -2.8779    3.6113 C.3       1 <0>        -0.1464
     29 C20        -1.1582   -1.0107    2.4597 C.3       1 <0>        -0.1109
     30 H2          2.0065   -0.5520    0.0374 H         1 <0>         0.0582
     31 H3          0.8766   -1.6521    0.8629 H         1 <0>         0.0513
     32 H4          0.8724   -1.5408   -0.9135 H         1 <0>         0.0852
     33 H5          0.0995    0.6979    1.0120 H         1 <0>         0.0707
     34 H6          0.0953    0.8092   -0.7645 H         1 <0>         0.0960
     35 H7         -3.1640    1.6699    0.2793 H         1 <0>         0.1169
     36 H8         -4.3878    3.7953    0.4931 H         1 <0>         0.1137
     37 H9         -6.8498    3.8012    0.5273 H         1 <0>         0.1152
     38 H10        -8.0890    1.6815    0.3478 H         1 <0>         0.1185
     39 H11        -5.0166   -2.5833    4.3719 H         1 <0>         0.0737
     40 H12        -5.2634   -0.1522    4.7929 H         1 <0>         0.0578
     41 H13        -6.9002   -0.1975    4.0948 H         1 <0>         0.0626
     42 H14        -6.5516   -1.0750    5.6037 H         1 <0>         0.0601
     43 H15        -6.7399   -3.7623    3.0345 H         1 <0>         0.0615
     44 H16        -7.4138   -3.1832    4.5768 H         1 <0>         0.0646
     45 H17        -7.7624   -2.3057    3.0680 H         1 <0>         0.0664
     46 H18        -0.1213   -0.7485    2.2493 H         1 <0>         0.0581
     47 H19        -1.5400   -0.3721    3.2563 H         1 <0>         0.0896
     48 H20        -1.2131   -2.0535    2.7722 H         1 <0>         0.0883
@<TRIPOS>BOND
     1    1    2 1
     2    1   30 1
     3    1   31 1
     4    1   32 1
     5    2    3 1
     6    2   33 1
     7    2   34 1
     8    3    9 1
     9    3    4 1
    10    4    5 2
    11    4   29 1
    12    5    6 1
    13    5   23 1
    14    6    7 1
    15    6    8 1
    16    6   16 1
    17    8    9 2
    18    8   13 1
    19    9   10 1
    20   10   11 2
    21   10   12 1
    22   13   14 2
    23   13   15 1
    24   16   21 ar
    25   16   17 ar
    26   17   18 ar
    27   17   35 1
    28   18   19 ar
    29   18   36 1
    30   19   20 ar
    31   19   37 1
    32   20   21 ar
    33   20   38 1
    34   21   22 1
    35   23   24 2
    36   23   25 1
    37   25   26 1
    38   26   27 1
    39   26   28 1
    40   26   39 1
    41   27   40 1
    42   27   41 1
    43   27   42 1
    44   28   43 1
    45   28   44 1
    46   28   45 1
    47   29   46 1
    48   29   47 1
    49   29   48 1
@<TRIPOS>MOLECULE
ZINC03872694
   29    30     0     0     0
SMALL
USER_CHARGES

@<TRIPOS>ATOM
      1 C1         -0.0187    1.5258    0.0104 C.3       1 <0>         0.0824
      2 C2          0.0021   -0.0041    0.0020 C.3       1 <0>         0.0517
      3 H1          0.5883   -0.3551   -0.8472 H         1 <0>         0.0814
      4 C3         -1.4298   -0.5336   -0.1120 C.3       1 <0>         0.0494
      5 H2         -1.8665   -0.2020   -1.0541 H         1 <0>         0.0795
      6 C4         -1.4074   -2.0646   -0.0695 C.3       1 <0>         0.0814
      7 H3         -0.8479   -2.4452   -0.9241 H         1 <0>         0.0806
      8 C5         -0.7310   -2.5172    1.2293 C.3       1 <0>         0.1049
      9 H4         -0.6473   -3.6039    1.2367 H         1 <0>         0.0834
     10 C6          0.6611   -1.8980    1.3118 C.3       1 <0>         0.2830
     11 O1          0.5891   -0.4799    1.2161 O.3       1 <0>        -0.3117
     12 C7          1.3438   -2.3086    2.5962 C.2       1 <0>         0.5439
     13 O2          0.9795   -2.0740    3.7285 O.2       1 <0>        -0.3918
     14 N1          2.4437   -2.9919    2.2172 N.am      1 <0>        -0.6362
     15 C8          2.5434   -3.0655    0.8843 C.2       1 <0>         0.5536
     16 S1          3.8197   -3.8624    0.0676 S.2       1 <0>        -0.5112
     17 N2          1.5269   -2.4427    0.2580 N.pl3     1 <0>        -0.6756
     18 O3         -1.5115   -2.0908    2.3478 O.3       1 <0>        -0.5138
     19 O4         -2.7457   -2.5639   -0.1133 O.3       1 <0>        -0.5428
     20 O5         -2.2104   -0.0366    0.9769 O.3       1 <0>        -0.5214
     21 O6          1.3220    2.0204    0.0003 O.3       1 <0>        -0.5615
     22 H5         -0.5459    1.8868   -0.8726 H         1 <0>         0.0717
     23 H6         -0.5289    1.8773    0.9072 H         1 <0>         0.0652
     24 H7          3.0829   -3.3815    2.8340 H         1 <0>         0.4514
     25 H8          1.3931   -2.3683   -0.6999 H         1 <0>         0.4504
     26 H9         -2.4115   -2.4444    2.3570 H         1 <0>         0.3957
     27 H10        -3.2350   -2.3084   -0.9072 H         1 <0>         0.3912
     28 H11        -2.2654    0.9281    1.0133 H         1 <0>         0.3763
     29 H12         1.3852    2.9853    0.0049 H         1 <0>         0.3889
@<TRIPOS>BOND
     1    1    2 1
     2    1   21 1
     3    1   22 1
     4    1   23 1
     5    2    3 1
     6    2   11 1
     7    2    4 1
     8    4    5 1
     9    4    6 1
    10    4   20 1
    11    6    7 1
    12    6    8 1
    13    6   19 1
    14    8    9 1
    15    8   10 1
    16    8   18 1
    17   10   17 1
    18   10   11 1
    19   10   12 1
    20   12   13 2
    21   12   14 am
    22   14   15 1
    23   14   24 1
    24   15   16 2
    25   15   17 1
    26   17   25 1
    27   18   26 1
    28   19   27 1
    29   20   28 1
    30   21   29 1
@<TRIPOS>MOLECULE
ZINC03872695
   29    30     0     0     0
SMALL
USER_CHARGES

@<TRIPOS>ATOM
      1 C1         -0.0187    1.5258    0.0104 C.3       1 <0>         0.0824
      2 C2          0.0021   -0.0041    0.0020 C.3       1 <0>         0.0530
      3 H1          0.6044   -0.3641    0.8361 H         1 <0>         0.1077
      4 C3         -1.4274   -0.5349    0.1378 C.3       1 <0>         0.0508
      5 H2         -2.0382   -0.1490   -0.6784 H         1 <0>         0.0808
      6 C4         -1.4042   -2.0655    0.0801 C.3       1 <0>         0.0750
      7 H3         -2.4237   -2.4480    0.1286 H         1 <0>         0.0855
      8 C5         -0.7537   -2.5047   -1.2362 C.3       1 <0>         0.0997
      9 H4         -1.3665   -2.1718   -2.0739 H         1 <0>         0.1030
     10 C6          0.6358   -1.8834   -1.3427 C.3       1 <0>         0.2886
     11 O1          0.5658   -0.4667   -1.2279 O.3       1 <0>        -0.3345
     12 C7          1.5501   -2.4560   -0.2842 C.2       1 <0>         0.5096
     13 O2          1.4167   -2.3826    0.9186 O.2       1 <0>        -0.3840
     14 N1          2.5458   -3.0664   -0.9596 N.am      1 <0>        -0.6356
     15 C8          2.3831   -2.9563   -2.2837 C.2       1 <0>         0.5648
     16 S1          3.4651   -3.6172   -3.4341 S.2       1 <0>        -0.5298
     17 N2          1.2725   -2.2677   -2.6092 N.pl3     1 <0>        -0.6401
     18 O3         -0.6436   -3.9292   -1.2621 O.3       1 <0>        -0.5390
     19 O4         -0.6496   -2.5743    1.1819 O.3       1 <0>        -0.5223
     20 O5         -1.9772   -0.1115    1.3869 O.3       1 <0>        -0.5484
     21 O6          1.3220    2.0204    0.0003 O.3       1 <0>        -0.5605
     22 H5         -0.5459    1.8868   -0.8726 H         1 <0>         0.0617
     23 H6         -0.5289    1.8773    0.9072 H         1 <0>         0.0706
     24 H7          3.2876   -3.5278   -0.5379 H         1 <0>         0.4456
     25 H8          0.9557   -2.0655   -3.5034 H         1 <0>         0.4558
     26 H9         -1.4908   -4.3905   -1.1950 H         1 <0>         0.3975
     27 H10        -1.0025   -2.3274    2.0477 H         1 <0>         0.3862
     28 H11        -2.0186    0.8488    1.4932 H         1 <0>         0.3879
     29 H12         1.3852    2.9853    0.0049 H         1 <0>         0.3879
@<TRIPOS>BOND
     1    1    2 1
     2    1   21 1
     3    1   22 1
     4    1   23 1
     5    2    3 1
     6    2   11 1
     7    2    4 1
     8    4    5 1
     9    4    6 1
    10    4   20 1
    11    6    7 1
    12    6    8 1
    13    6   19 1
    14    8    9 1
    15    8   10 1
    16    8   18 1
    17   10   17 1
    18   10   11 1
    19   10   12 1
    20   12   13 2
    21   12   14 am
    22   14   15 1
    23   14   24 1
    24   15   16 2
    25   15   17 1
    26   17   25 1
    27   18   26 1
    28   19   27 1
    29   20   28 1
    30   21   29 1
@<TRIPOS>MOLECULE
ZINC12502895
   29    30     0     0     0
SMALL
USER_CHARGES
(5R,6S,7S,8S,9S)-6,7,8-trihydroxy-9-(hydroxymethyl)-2-thioxo-10-oxa-1,3-diazaspiro[4.5]decan-4-one
@<TRIPOS>ATOM
      1 C1         -2.1735    1.3644   -1.2526 C.3       1 <0>         0.0815
      2 C2         -0.7532    1.9328   -1.2326 C.3       1 <0>         0.0526
      3 H1         -0.7973    3.0216   -1.2093 H         1 <0>         0.1062
      4 C3         -0.0173    1.4248    0.0099 C.3       1 <0>         0.0492
      5 H2         -0.5287    1.7769    0.9058 H         1 <0>         0.0861
      6 C4          1.4194    1.9558   -0.0010 C.3       1 <0>         0.0742
      7 H3          1.9617    1.5586    0.8571 H         1 <0>         0.0879
      8 C5          2.1061    1.5087   -1.2963 C.3       1 <0>         0.1034
      9 H4          2.1764    0.4211   -1.3146 H         1 <0>         0.1085
     10 C6          1.2847    1.9866   -2.4901 C.3       1 <0>         0.2919
     11 O1         -0.0532    1.5088   -2.4053 O.3       1 <0>        -0.3308
     12 C7          1.3028    3.4961   -2.5685 C.2       1 <0>         0.5100
     13 O2          0.8860    4.2791   -1.7420 O.2       1 <0>        -0.3909
     14 N1          1.8809    3.7885   -3.7519 N.am      1 <0>        -0.6357
     15 C8          2.2246    2.6805   -4.4198 C.2       1 <0>         0.5645
     16 S1          2.9793    2.6905   -5.9564 S.2       1 <0>        -0.5317
     17 N2          1.9092    1.5569   -3.7476 N.pl3     1 <0>        -0.6384
     18 O3          3.4174    2.0730   -1.3609 O.3       1 <0>        -0.5455
     19 O4          1.4022    3.3833    0.0631 O.3       1 <0>        -0.5181
     20 O5          0.0021   -0.0041    0.0020 O.3       1 <0>        -0.5498
     21 O6         -2.8973    1.9294   -2.3476 O.3       1 <0>        -0.5608
     22 H5         -2.1299    0.2812   -1.3662 H         1 <0>         0.0613
     23 H6         -2.6770    1.6117   -0.3180 H         1 <0>         0.0726
     24 H7          2.0292    4.6899   -4.0782 H         1 <0>         0.4451
     25 H8          2.0644    0.6441   -4.0368 H         1 <0>         0.4560
     26 H9          3.9936    1.8138   -0.6289 H         1 <0>         0.3960
     27 H10         0.9744    3.7363    0.8552 H         1 <0>         0.3800
     28 H11        -0.8759   -0.4094    0.0082 H         1 <0>         0.3866
     29 H12        -3.8082    1.6133   -2.4219 H         1 <0>         0.3880
@<TRIPOS>BOND
     1    1    2 1
     2    1   21 1
     3    1   22 1
     4    1   23 1
     5    2    3 1
     6    2   11 1
     7    2    4 1
     8    4    5 1
     9    4    6 1
    10    4   20 1
    11    6    7 1
    12    6    8 1
    13    6   19 1
    14    8    9 1
    15    8   10 1
    16    8   18 1
    17   10   17 1
    18   10   11 1
    19   10   12 1
    20   12   13 2
    21   12   14 am
    22   14   15 1
    23   14   24 1
    24   15   16 2
    25   15   17 1
    26   17   25 1
    27   18   26 1
    28   19   27 1
    29   20   28 1
    30   21   29 1
@<TRIPOS>MOLECULE
ZINC12502898
   29    30     0     0     0
SMALL
USER_CHARGES
(5R,6S,7S,8S,9R)-6,7,8-trihydroxy-9-(hydroxymethyl)-2-thioxo-10-oxa-1,3-diazaspiro[4.5]decan-4-one
@<TRIPOS>ATOM
      1 C1          1.2864    1.5618   -0.0018 C.3       1 <0>         0.0829
      2 C2          1.1449    3.0852    0.0077 C.3       1 <0>         0.0546
      3 H1          0.5164    3.3972   -0.8264 H         1 <0>         0.0839
      4 C3          2.5280    3.7274   -0.1269 C.3       1 <0>         0.0478
      5 H2          3.1673    3.3890    0.6885 H         1 <0>         0.0938
      6 C4          2.3857    5.2514   -0.0662 C.3       1 <0>         0.0864
      7 H3          1.7824    5.5965   -0.9058 H         1 <0>         0.0772
      8 C5          1.7009    5.6360    1.2500 C.3       1 <0>         0.1007
      9 H4          1.5318    6.7126    1.2715 H         1 <0>         0.0952
     10 C6          0.3638    4.9079    1.3511 C.3       1 <0>         0.2808
     11 O1          0.5459    3.5010    1.2379 O.3       1 <0>        -0.3159
     12 C7         -0.3243    5.2504    2.6524 C.2       1 <0>         0.5446
     13 O2          0.0788    5.0334    3.7750 O.2       1 <0>        -0.3928
     14 N1         -1.4817    5.8485    2.3016 N.am      1 <0>        -0.6352
     15 C8         -1.6126    5.9273    0.9717 C.2       1 <0>         0.5514
     16 S1         -2.9638    6.6278    0.1879 S.2       1 <0>        -0.5047
     17 N2         -0.5623    5.3930    0.3196 N.pl3     1 <0>        -0.6737
     18 O3          2.5334    5.2603    2.3489 O.3       1 <0>        -0.5306
     19 O4          3.6794    5.8554   -0.1266 O.3       1 <0>        -0.5503
     20 O5          3.1090    3.3515   -1.3772 O.3       1 <0>        -0.5540
     21 O6         -0.0110    0.9628    0.0073 O.3       1 <0>        -0.5609
     22 H5          1.8401    1.2428    0.8812 H         1 <0>         0.0657
     23 H6          1.8231    1.2523   -0.8987 H         1 <0>         0.0704
     24 H7         -2.1378    6.1797    2.9346 H         1 <0>         0.4522
     25 H8         -0.4415    5.3392   -0.6413 H         1 <0>         0.4524
     26 H9          3.4014    5.6865    2.3485 H         1 <0>         0.4002
     27 H10         4.1702    5.6538   -0.9350 H         1 <0>         0.3999
     28 H11         3.2258    2.3977   -1.4858 H         1 <0>         0.3889
     29 H12         0.0021   -0.0041    0.0020 H         1 <0>         0.3892
@<TRIPOS>BOND
     1    1    2 1
     2    1   21 1
     3    1   22 1
     4    1   23 1
     5    2    3 1
     6    2   11 1
     7    2    4 1
     8    4    5 1
     9    4    6 1
    10    4   20 1
    11    6    7 1
    12    6    8 1
    13    6   19 1
    14    8    9 1
    15    8   10 1
    16    8   18 1
    17   10   17 1
    18   10   11 1
    19   10   12 1
    20   12   13 2
    21   12   14 am
    22   14   15 1
    23   14   24 1
    24   15   16 2
    25   15   17 1
    26   17   25 1
    27   18   26 1
    28   19   27 1
    29   20   28 1
    30   21   29 1
@<TRIPOS>MOLECULE
ZINC21364693
   29    31     0     0     0
SMALL
USER_CHARGES
3-anilino-1H-quinoxalin-2-one
@<TRIPOS>ATOM
      1 C1         -0.0103    1.0760   -0.0156 C.ar      1 <0>        -0.1388
      2 C2          0.9264    1.7711    0.7274 C.ar      1 <0>        -0.0991
      3 C3          0.9130    3.1519    0.7407 C.ar      1 <0>        -0.1492
      4 C4         -0.0495    3.8427    0.0149 C.ar      1 <0>         0.1622
      5 C5         -0.9923    3.1411   -0.7262 C.ar      1 <0>        -0.1178
      6 C6         -0.9698    1.7604   -0.7392 C.ar      1 <0>        -0.0999
      7 N1         -0.0691    5.2395    0.0299 N.pl3     1 <0>        -0.6400
      8 C7         -1.2731    5.9156   -0.0599 C.2       1 <0>         0.3625
      9 C8         -1.2862    7.3872   -0.1568 C.2       1 <0>         0.5132
     10 O1         -0.2432    8.0146   -0.1589 O.2       1 <0>        -0.5193
     11 N2         -2.4714    8.0292   -0.2478 N.am      1 <0>        -0.6254
     12 H1         -2.4981    9.1259   -0.3282 H         1 <0>         0.4510
     13 C9         -3.6394    7.2883   -0.2380 C.ar      1 <0>         0.1070
     14 C10        -4.8731    7.9253   -0.3252 C.ar      1 <0>        -0.1413
     15 C11        -6.0325    7.1800   -0.3142 C.ar      1 <0>        -0.0870
     16 C12        -5.9789    5.7965   -0.2168 C.ar      1 <0>        -0.1284
     17 C13        -4.7791    5.1514   -0.1302 C.ar      1 <0>        -0.0614
     18 C14        -3.5852    5.8870   -0.1393 C.ar      1 <0>         0.0817
     19 N3         -2.3995    5.2490   -0.0532 N.2       1 <0>        -0.4927
     20 H2          0.0048   -0.0038   -0.0272 H         1 <0>         0.1220
     21 H3          1.6716    1.2334    1.2949 H         1 <0>         0.1252
     22 H4          1.6473    3.6942    1.3179 H         1 <0>         0.1244
     23 H5         -1.7421    3.6749   -1.2912 H         1 <0>         0.1350
     24 H6         -1.7025    1.2144   -1.3148 H         1 <0>         0.1240
     25 H7          0.8726    5.8019    0.1131 H         1 <0>         0.4549
     26 H8         -4.9222    9.0015   -0.4016 H         1 <0>         0.1327
     27 H9         -6.9894    7.6761   -0.3824 H         1 <0>         0.1328
     28 H10        -6.8952    5.2250   -0.2093 H         1 <0>         0.1330
     29 H11        -4.7493    4.0744   -0.0551 H         1 <0>         0.1388
@<TRIPOS>BOND
     1    1    6 ar
     2    1    2 ar
     3    1   20 1
     4    2    3 ar
     5    2   21 1
     6    3    4 ar
     7    3   22 1
     8    4    5 ar
     9    4    7 1
    10    5    6 ar
    11    5   23 1
    12    6   24 1
    13    7    8 1
    14    7   25 1
    15    8   19 2
    16    8    9 1
    17    9   10 2
    18    9   11 am
    19   11   12 1
    20   11   13 1
    21   13   18 ar
    22   13   14 ar
    23   14   15 ar
    24   14   26 1
    25   15   16 ar
    26   15   27 1
    27   16   17 ar
    28   16   28 1
    29   17   18 ar
    30   17   29 1
    31   18   19 1
@<TRIPOS>MOLECULE
ZINC21288966
   49    52     0     0     0
SMALL
USER_CHARGES
2-(2-chlorophenyl)-5,7-dihydroxy-8-[(3S,4R)-3-hydroxy-1-methyl-4-piperidyl]chromen-4-one
@<TRIPOS>ATOM
      1 C1          6.0895   -0.0238    5.9621 C.3       1 <0>        -0.0460
      2 N1          6.1756    1.0472    4.9603 N.4       1 <0>        -0.3934
      3 C2          5.9739    0.5180    3.6055 C.3       1 <0>        -0.0028
      4 C3          6.2126    1.6289    2.5802 C.3       1 <0>        -0.1464
      5 C4          5.2418    2.7821    2.8491 C.3       1 <0>        -0.0180
      6 H1          4.2050    2.4431    2.7074 H         1 <0>         0.1039
      7 C5          5.4391    3.2830    4.2825 C.3       1 <0>         0.1015
      8 H2          4.7709    4.1271    4.5084 H         1 <0>         0.0941
      9 C6          5.2218    2.1236    5.2574 C.3       1 <0>        -0.0361
     10 O1          6.7669    3.7898    4.4323 O.3       1 <0>        -0.5639
     11 C7          5.5132    3.9050    1.8814 C.ar      1 <0>        -0.2158
     12 C8          6.8017    4.3949    1.7322 C.ar      1 <0>         0.2946
     13 C9          7.0678    5.4304    0.8434 C.ar      1 <0>        -0.3049
     14 C10         6.0448    5.9841    0.0956 C.ar      1 <0>         0.3111
     15 C11         4.7411    5.4942    0.2412 C.ar      1 <0>        -0.3649
     16 C12         4.4748    4.4470    1.1407 C.ar      1 <0>         0.2362
     17 O2          3.2147    3.9814    1.2730 O.3       1 <0>        -0.2171
     18 C13         2.1871    4.4838    0.5705 C.2       1 <0>         0.1982
     19 C14         2.3394    5.4926   -0.3277 C.2       1 <0>        -0.2780
     20 C15         3.6225    6.0546   -0.5353 C.2       1 <0>         0.4382
     21 O3          3.7953    6.9641   -1.3304 O.2       1 <0>        -0.4786
     22 C16         0.8407    3.9147    0.7769 C.ar      1 <0>        -0.0680
     23 C17         0.6478    2.5322    0.7263 C.ar      1 <0>        -0.0708
     24 C18        -0.6124    2.0073    0.9205 C.ar      1 <0>        -0.1159
     25 C19        -1.6867    2.8467    1.1599 C.ar      1 <0>        -0.0780
     26 C20        -1.5036    4.2164    1.2169 C.ar      1 <0>        -0.1066
     27 C21        -0.2472    4.7566    1.0243 C.ar      1 <0>        -0.0057
     28 Cl1        -0.0199    6.4765    1.0889 Cl        1 <0>        -0.0424
     29 O4          6.3024    6.9947   -0.7728 O.3       1 <0>        -0.4999
     30 O5          7.8133    3.8585    2.4614 O.3       1 <0>        -0.4665
     31 H3          6.8128   -0.8151    5.7159 H         1 <0>         0.1242
     32 H4          5.0728   -0.4438    5.9634 H         1 <0>         0.1169
     33 H5          6.3184    0.3856    6.9571 H         1 <0>         0.1225
     34 H6          6.6809   -0.3050    3.4243 H         1 <0>         0.1308
     35 H7          4.9438    0.1448    3.5072 H         1 <0>         0.1211
     36 H8          7.2477    1.9910    2.6662 H         1 <0>         0.1216
     37 H9          6.0450    1.2349    1.5669 H         1 <0>         0.1057
     38 H10         4.1951    1.7434    5.1512 H         1 <0>         0.1298
     39 H11         5.3771    2.4772    6.2874 H         1 <0>         0.1312
     40 H12         7.0946    4.1958    5.4007 H         1 <0>         0.4106
     41 H13         8.0758    5.8030    0.7365 H         1 <0>         0.1471
     42 H14         1.4871    5.8659   -0.8759 H         1 <0>         0.1670
     43 H15         1.4839    1.8757    0.5352 H         1 <0>         0.1384
     44 H16        -0.7625    0.9385    0.8812 H         1 <0>         0.1407
     45 H17        -2.6721    2.4298    1.3071 H         1 <0>         0.1438
     46 H18        -2.3456    4.8651    1.4082 H         1 <0>         0.1476
     47 H19         5.4855    7.4321   -1.3656 H         1 <0>         0.4556
     48 H20         8.8375    4.2431    2.3473 H         1 <0>         0.4397
     49 H21         7.1882    1.4744    5.0059 H         1 <0>         0.4481
@<TRIPOS>BOND
     1    1    2 1
     2    1   31 1
     3    1   32 1
     4    1   33 1
     5    2    9 1
     6    2    3 1
     7    2   49 1
     8    3    4 1
     9    3   34 1
    10    3   35 1
    11    4    5 1
    12    4   36 1
    13    4   37 1
    14    5    6 1
    15    5    7 1
    16    5   11 1
    17    7    8 1
    18    7    9 1
    19    7   10 1
    20    9   38 1
    21    9   39 1
    22   10   40 1
    23   11   16 ar
    24   11   12 ar
    25   12   13 ar
    26   12   30 1
    27   13   14 ar
    28   13   41 1
    29   14   15 ar
    30   14   29 1
    31   15   20 1
    32   15   16 ar
    33   16   17 1
    34   17   18 1
    35   18   19 2
    36   18   22 1
    37   19   20 1
    38   19   42 1
    39   20   21 2
    40   22   27 ar
    41   22   23 ar
    42   23   24 ar
    43   23   43 1
    44   24   25 ar
    45   24   44 1
    46   25   26 ar
    47   25   45 1
    48   26   27 ar
    49   26   46 1
    50   27   28 1
    51   29   47 1
    52   30   48 1
@<TRIPOS>MOLECULE
ZINC00602032
   54    57     0     0     0
SMALL
USER_CHARGES
5-chloro-N-[2-(4-fluorophenyl)-1-[(4-hydroxy-1-piperidyl)carbonyl]ethyl]-1H-indole-2-carboxamide
@<TRIPOS>ATOM
      1 C1          6.2064    2.7071    0.6246 C.ar      1 <0>        -0.0773
      2 C2          7.4569    3.2944    0.5925 C.ar      1 <0>        -0.1441
      3 C3          8.5227    2.6214    0.0195 C.ar      1 <0>         0.1024
      4 C4          8.3353    1.3584   -0.5160 C.ar      1 <0>        -0.1422
      5 C5          7.0849    0.7709   -0.4781 C.ar      1 <0>        -0.0787
      6 C6          6.0216    1.4438    0.0943 C.ar      1 <0>        -0.0834
      7 C7          4.6585    0.8024    0.1346 C.3       1 <0>        -0.0907
      8 C8          4.5124   -0.0041    1.4266 C.3       1 <0>         0.1359
      9 H1          4.7236    0.6382    2.2816 H         1 <0>         0.1207
     10 C9          3.1055   -0.5339    1.5317 C.2       1 <0>         0.5178
     11 O1          2.8977   -1.7252    1.4396 O.2       1 <0>        -0.5321
     12 N1          2.0782    0.3162    1.7280 N.am      1 <0>        -0.6063
     13 C10         2.3204    1.7539    1.9093 C.3       1 <0>         0.1007
     14 C11         1.6427    2.2084    3.2058 C.3       1 <0>        -0.1314
     15 C12         0.1628    1.8204    3.1663 C.3       1 <0>         0.1050
     16 C13         0.0352    0.2989    3.0622 C.3       1 <0>        -0.1689
     17 C14         0.6948   -0.1772    1.7641 C.3       1 <0>         0.1132
     18 O2         -0.4797    2.2715    4.3603 O.3       1 <0>        -0.5653
     19 N2          5.4563   -1.1243    1.4124 N.am      1 <0>        -0.7148
     20 C15         6.7267   -0.9404    1.8234 C.2       1 <0>         0.5875
     21 O3          7.0895    0.1558    2.2060 O.2       1 <0>        -0.4969
     22 C16         7.6742   -2.0649    1.8091 C.2       1 <0>         0.0184
     23 C17         8.9748   -2.0040    2.1974 C.2       1 <0>        -0.0946
     24 C18         9.5356   -3.2933    2.0304 C.ar      1 <0>        -0.1108
     25 C19        10.8111   -3.8249    2.2617 C.ar      1 <0>        -0.0482
     26 C20        11.0561   -5.1417    1.9969 C.ar      1 <0>        -0.0606
     27 C21        10.0500   -5.9624    1.4994 C.ar      1 <0>        -0.0778
     28 C22         8.7889   -5.4628    1.2649 C.ar      1 <0>        -0.1174
     29 C23         8.5150   -4.1232    1.5269 C.ar      1 <0>         0.1181
     30 N3          7.3822   -3.3530    1.4044 N.pl3     1 <0>        -0.5758
     31 H2          6.5205   -3.6629    1.0845 H         1 <0>         0.4201
     32 Cl1        12.6378   -5.7971    2.2837 Cl        1 <0>        -0.0686
     33 F1          9.7447    3.1965   -0.0167 F         1 <0>        -0.1411
     34 H3          5.3740    3.2335    1.0678 H         1 <0>         0.1277
     35 H4          7.6020    4.2796    1.0105 H         1 <0>         0.1334
     36 H5          9.1659    0.8324   -0.9629 H         1 <0>         0.1310
     37 H6          6.9386   -0.2144   -0.8954 H         1 <0>         0.1203
     38 H7          4.5436    0.1390   -0.7226 H         1 <0>         0.0858
     39 H8          3.8916    1.5762    0.1006 H         1 <0>         0.0937
     40 H9          1.9025    2.3041    1.0663 H         1 <0>         0.0821
     41 H10         3.3924    1.9409    1.9724 H         1 <0>         0.0963
     42 H11         1.7326    3.2903    3.3035 H         1 <0>         0.0895
     43 H12         2.1230    1.7247    4.0564 H         1 <0>         0.0775
     44 H13        -0.3113    2.2846    2.3015 H         1 <0>         0.0595
     45 H14         0.5307   -0.1669    3.9141 H         1 <0>         0.0769
     46 H15        -1.0189    0.0217    3.0577 H         1 <0>         0.0816
     47 H16         0.1443    0.2154    0.9092 H         1 <0>         0.0750
     48 H17         0.6944   -1.2668    1.7324 H         1 <0>         0.0989
     49 H18        -1.4222    2.0596    4.4040 H         1 <0>         0.3814
     50 H19         5.1670   -1.9985    1.1073 H         1 <0>         0.4057
     51 H20         9.4888   -1.1289    2.5669 H         1 <0>         0.1594
     52 H21        11.5987   -3.1946    2.6473 H         1 <0>         0.1379
     53 H22        10.2599   -7.0020    1.2953 H         1 <0>         0.1399
     54 H23         8.0139   -6.1084    0.8790 H         1 <0>         0.1340
@<TRIPOS>BOND
     1    1    6 ar
     2    1    2 ar
     3    1   34 1
     4    2    3 ar
     5    2   35 1
     6    3    4 ar
     7    3   33 1
     8    4    5 ar
     9    4   36 1
    10    5    6 ar
    11    5   37 1
    12    6    7 1
    13    7    8 1
    14    7   38 1
    15    7   39 1
    16    8    9 1
    17    8   10 1
    18    8   19 1
    19   10   11 2
    20   10   12 am
    21   12   17 1
    22   12   13 1
    23   13   14 1
    24   13   40 1
    25   13   41 1
    26   14   15 1
    27   14   42 1
    28   14   43 1
    29   15   16 1
    30   15   18 1
    31   15   44 1
    32   16   17 1
    33   16   45 1
    34   16   46 1
    35   17   47 1
    36   17   48 1
    37   18   49 1
    38   19   20 am
    39   19   50 1
    40   20   21 2
    41   20   22 1
    42   22   30 1
    43   22   23 2
    44   23   24 1
    45   23   51 1
    46   24   29 ar
    47   24   25 ar
    48   25   26 ar
    49   25   52 1
    50   26   27 ar
    51   26   32 1
    52   27   28 ar
    53   27   53 1
    54   28   29 ar
    55   28   54 1
    56   29   30 1
    57   30   31 1
