@<TRIPOS>MOLECULE
ZINC03775883
   21    21     0     0     0
SMALL
USER_CHARGES
2-oxo-6-(sulfanylmethyl)hexahydropyrimidine-4-carboxylic acid
@<TRIPOS>ATOM
      1 C1         -1.1271    3.0136    0.7313 C.3       1 <0>        -0.1216
      2 C2         -1.2968    1.6654    0.0173 C.3       1 <0>         0.1598
      3 H1         -1.6291    1.8315   -1.0074 H         1 <0>         0.0856
      4 N1         -0.0111    0.9658    0.0074 N.am      1 <0>        -0.7339
      5 C3          1.1493    1.6387   -0.0001 C.2       1 <0>         0.7115
      6 O1          2.1892    1.0091   -0.0232 O.2       1 <0>        -0.6161
      7 N2          1.2079    2.9787    0.0173 N.am      1 <0>        -0.7082
      8 C4         -0.0078    3.7938    0.0335 C.3       1 <0>         0.0948
      9 H2         -0.3058    4.0238   -0.9895 H         1 <0>         0.0776
     10 C5          0.2549    5.0753    0.7817 C.2       1 <0>         0.4611
     11 O2          1.1860    5.1473    1.5482 O.co2     1 <0>        -0.6222
     12 C6         -2.3328    0.8207    0.7617 C.3       1 <0>        -0.0758
     13 S1         -2.5219   -0.7785   -0.0734 S.3       1 <0>        -0.2468
     14 H3         -0.8616    2.8477    1.7753 H         1 <0>         0.0774
     15 H4         -2.0572    3.5792    0.6755 H         1 <0>         0.1002
     16 H5          0.0021   -0.0041    0.0020 H         1 <0>         0.4135
     17 H6          2.0735    3.4164    0.0190 H         1 <0>         0.4166
     18 H7         -2.0002    0.6582    1.7869 H         1 <0>         0.0926
     19 H8         -3.2898    1.3424    0.7686 H         1 <0>         0.1017
     20 H9         -3.4450   -1.4228    0.6626 H         1 <0>         0.0884
     21 O3         -0.5456    6.1368    0.5965 O.co2     1 <0>        -0.7562
@<TRIPOS>BOND
     1    1    8 1
     2    1    2 1
     3    1   14 1
     4    1   15 1
     5    2    3 1
     6    2    4 1
     7    2   12 1
     8    4    5 am
     9    4   16 1
    10    5    6 2
    11    5    7 am
    12    7    8 1
    13    7   17 1
    14    8    9 1
    15    8   10 1
    16   10   11 2
    17   10   21 1
    18   12   13 1
    19   12   18 1
    20   12   19 1
    21   13   20 1
