@<TRIPOS>MOLECULE
ZINC49793374
   30    31     0     0     0
SMALL
USER_CHARGES

@<TRIPOS>ATOM
      1 C1         -0.2460    1.2558    0.0062 C.ar      1 <0>        -0.1602
      2 C2          0.7933    1.8955   -0.6515 C.ar      1 <0>        -0.1055
      3 C3          2.0524    1.3318   -0.6840 C.ar      1 <0>        -0.1522
      4 C4          2.2871    0.1157   -0.0558 C.ar      1 <0>         0.1918
      5 C5          1.2369   -0.5355    0.6115 C.ar      1 <0>        -0.1707
      6 C6         -0.0336    0.0493    0.6352 C.ar      1 <0>        -0.0645
      7 C7          1.4713   -1.8245    1.2809 C.2       1 <0>         0.5281
      8 O1          0.5345   -2.4356    1.7767 O.co2     1 <0>        -0.6765
      9 O2          2.6031   -2.2852    1.3418 O.co2     1 <0>        -0.6918
     10 N1          3.5557   -0.4546   -0.0878 N.am      1 <0>        -0.6450
     11 C8          4.6420    0.3267   -0.2492 C.2       1 <0>         0.7002
     12 O3          4.5239    1.5367   -0.2624 O.2       1 <0>        -0.5682
     13 N2          5.8591   -0.2333   -0.3958 N.am      1 <0>        -0.6820
     14 C9          6.9723    0.5719   -0.6616 C.ar      1 <0>         0.2043
     15 C10         7.0670    1.8364   -0.0958 C.ar      1 <0>        -0.1092
     16 C11         8.1677    2.6299   -0.3600 C.ar      1 <0>        -0.0037
     17 C12         9.1746    2.1650   -1.1876 C.ar      1 <0>        -0.1265
     18 C13         9.0824    0.9053   -1.7531 C.ar      1 <0>        -0.0038
     19 C14         7.9867    0.1055   -1.4871 C.ar      1 <0>        -0.1394
     20 Cl1        10.3472    0.3263   -2.7917 Cl        1 <0>        -0.0586
     21 Cl2         8.2866    4.2111    0.3465 Cl        1 <0>        -0.0556
     22 H1         -1.2264    1.7082    0.0291 H         1 <0>         0.1144
     23 H2          0.6162    2.8412   -1.1420 H         1 <0>         0.1154
     24 H3          2.8562    1.8368   -1.1990 H         1 <0>         0.1401
     25 H4         -0.8468   -0.4445    1.1465 H         1 <0>         0.1288
     26 H5          3.6584   -1.4146    0.0061 H         1 <0>         0.4264
     27 H6          5.9634   -1.1944   -0.3171 H         1 <0>         0.4158
     28 H7          6.2812    2.1998    0.5498 H         1 <0>         0.1615
     29 H8         10.0338    2.7864   -1.3928 H         1 <0>         0.1428
     30 H9          7.9175   -0.8794   -1.9249 H         1 <0>         0.1437
@<TRIPOS>BOND
     1    1    6 ar
     2    1    2 ar
     3    1   22 1
     4    2    3 ar
     5    2   23 1
     6    3    4 ar
     7    3   24 1
     8    4    5 ar
     9    4   10 1
    10    5    6 ar
    11    5    7 1
    12    6   25 1
    13    7    8 2
    14    7    9 1
    15   10   11 am
    16   10   26 1
    17   11   12 2
    18   11   13 am
    19   13   14 1
    20   13   27 1
    21   14   19 ar
    22   14   15 ar
    23   15   16 ar
    24   15   28 1
    25   16   17 ar
    26   16   21 1
    27   17   18 ar
    28   17   29 1
    29   18   19 ar
    30   18   20 1
    31   19   30 1
@<TRIPOS>MOLECULE
ZINC04902270
   36    38     0     0     0
SMALL
USER_CHARGES
2-[[5-(2-chlorophenyl)-2-furyl]methyleneaminoamino]benzoic acid
@<TRIPOS>ATOM
      1 C1         -0.1254    1.3711   -0.0558 C.ar      1 <0>        -0.1143
      2 C2          1.0565    2.0910   -0.0804 C.ar      1 <0>        -0.1011
      3 C3          2.2739    1.4346   -0.1070 C.ar      1 <0>        -0.1112
      4 C4          2.3176    0.0546   -0.1091 C.ar      1 <0>        -0.0155
      5 C5          1.1277   -0.6785   -0.0843 C.ar      1 <0>        -0.0045
      6 C6         -0.0975   -0.0077   -0.0575 C.ar      1 <0>        -0.0833
      7 C7          1.1654   -2.1540   -0.0868 C.2       1 <0>         0.0073
      8 C8          1.8750   -2.9294   -0.9548 C.2       1 <0>        -0.1641
      9 C9          1.6327   -4.2651   -0.6061 C.2       1 <0>        -0.1850
     10 C10         0.7694   -4.2454    0.4671 C.2       1 <0>         0.0663
     11 O1          0.4999   -2.9581    0.7646 O.3       1 <0>        -0.1466
     12 C11         0.2365   -5.4183    1.1631 C.2       1 <0>         0.0737
     13 N1         -0.5761   -5.2649    2.1690 N.2       1 <0>        -0.2131
     14 N2         -1.0861   -6.3871    2.8349 N.pl3     1 <0>        -0.5473
     15 C12        -1.9513   -6.2238    3.9059 C.ar      1 <0>         0.2353
     16 C13        -2.2269   -4.9515    4.3946 C.ar      1 <0>        -0.1815
     17 C14        -3.0924   -4.7917    5.4563 C.ar      1 <0>        -0.0851
     18 C15        -3.6850   -5.8947    6.0519 C.ar      1 <0>        -0.1841
     19 C16        -3.4207   -7.1638    5.5864 C.ar      1 <0>        -0.0380
     20 C17        -2.5503   -7.3436    4.5075 C.ar      1 <0>        -0.1799
     21 C18        -2.2627   -8.6976    4.0048 C.2       1 <0>         0.5020
     22 O2         -1.4279   -8.8588    3.1365 O.co2     1 <0>        -0.6401
     23 Cl1         3.8461   -0.7679   -0.1419 Cl        1 <0>        -0.0555
     24 H1         -1.0721    1.8905   -0.0397 H         1 <0>         0.1343
     25 H2          1.0281    3.1707   -0.0789 H         1 <0>         0.1347
     26 H3          3.1922    2.0028   -0.1265 H         1 <0>         0.1382
     27 H4         -1.0207   -0.5677   -0.0379 H         1 <0>         0.1378
     28 H5          2.5064   -2.5802   -1.7584 H         1 <0>         0.1516
     29 H6          2.0411   -5.1409   -1.0883 H         1 <0>         0.1581
     30 H7          0.5174   -6.4105    0.8423 H         1 <0>         0.1463
     31 H8         -0.8338   -7.2783    2.5468 H         1 <0>         0.4175
     32 H9         -1.7658   -4.0873    3.9396 H         1 <0>         0.1263
     33 H10        -3.3064   -3.8010    5.8295 H         1 <0>         0.1155
     34 H11        -4.3575   -5.7581    6.8859 H         1 <0>         0.1152
     35 H12        -3.8850   -8.0190    6.0548 H         1 <0>         0.1322
     36 O3         -2.9253   -9.7580    4.5078 O.co2     1 <0>        -0.7420
@<TRIPOS>BOND
     1    1    6 ar
     2    1    2 ar
     3    1   24 1
     4    2    3 ar
     5    2   25 1
     6    3    4 ar
     7    3   26 1
     8    4    5 ar
     9    4   23 1
    10    5    6 ar
    11    5    7 1
    12    6   27 1
    13    7   11 1
    14    7    8 2
    15    8    9 1
    16    8   28 1
    17    9   10 2
    18    9   29 1
    19   10   11 1
    20   10   12 1
    21   12   13 2
    22   12   30 1
    23   13   14 1
    24   14   15 1
    25   14   31 1
    26   15   20 ar
    27   15   16 ar
    28   16   17 ar
    29   16   32 1
    30   17   18 ar
    31   17   33 1
    32   18   19 ar
    33   18   34 1
    34   19   20 ar
    35   19   35 1
    36   20   21 1
    37   21   22 2
    38   21   36 1
@<TRIPOS>MOLECULE
ZINC14960644
   43    45     0     0     0
SMALL
USER_CHARGES
2-[[2-fluoro-4-(3-methoxyphenyl)phenyl]carbamoyl]cyclopentene-1-carboxylic acid
@<TRIPOS>ATOM
      1 C1         -9.6047    5.7141   -9.2650 C.3       1 <0>         0.0280
      2 O1         -8.5597    5.2609   -8.4021 O.3       1 <0>        -0.3167
      3 C2         -8.8340    5.2157   -7.0718 C.ar      1 <0>         0.1303
      4 C3        -10.0849    5.5998   -6.6076 C.ar      1 <0>        -0.2128
      5 C4        -10.3685    5.5551   -5.2556 C.ar      1 <0>        -0.0773
      6 C5         -9.4113    5.1227   -4.3596 C.ar      1 <0>        -0.1507
      7 C6         -8.1513    4.7409   -4.8166 C.ar      1 <0>         0.0083
      8 C7         -7.8660    4.7862   -6.1794 C.ar      1 <0>        -0.1443
      9 C8         -7.1189    4.2818   -3.8554 C.ar      1 <0>        -0.0586
     10 C9         -5.8609    3.8943   -4.3146 C.ar      1 <0>        -0.0854
     11 C10        -4.9002    3.4732   -3.4198 C.ar      1 <0>        -0.1079
     12 C11        -5.1881    3.4231   -2.0612 C.ar      1 <0>         0.1488
     13 C12        -6.4435    3.8089   -1.5994 C.ar      1 <0>         0.0555
     14 C13        -7.4057    4.2370   -2.4920 C.ar      1 <0>        -0.1161
     15 F1         -6.7199    3.7649   -0.2777 F         1 <0>        -0.1393
     16 N1         -4.2145    2.9904   -1.1569 N.am      1 <0>        -0.6737
     17 C14        -2.9082    3.0985   -1.4703 C.2       1 <0>         0.5668
     18 O2         -2.5733    3.6629   -2.4935 O.2       1 <0>        -0.4766
     19 C15        -1.8842    2.5317   -0.5710 C.2       1 <0>        -0.2340
     20 C16        -0.5617    2.6675   -0.7383 C.2       1 <0>        -0.0183
     21 C17         0.1877    1.9611    0.3677 C.3       1 <0>        -0.0960
     22 C18        -0.8621    1.7295    1.4779 C.3       1 <0>        -0.1195
     23 C19        -2.1810    1.7178    0.6672 C.3       1 <0>        -0.0770
     24 C20         0.0739    3.4029   -1.8473 C.2       1 <0>         0.5037
     25 O3          0.5979    2.7941   -2.7583 O.co2     1 <0>        -0.6275
     26 H1         -9.2547    5.7016  -10.2972 H         1 <0>         0.0996
     27 H2        -10.4683    5.0564   -9.1662 H         1 <0>         0.0545
     28 H3         -9.8883    6.7299   -8.9897 H         1 <0>         0.0549
     29 H4        -10.8387    5.9342   -7.3051 H         1 <0>         0.1265
     30 H5        -11.3431    5.8549   -4.8996 H         1 <0>         0.1258
     31 H6         -9.6376    5.0843   -3.3042 H         1 <0>         0.1272
     32 H7         -6.8926    4.4868   -6.5391 H         1 <0>         0.1369
     33 H8         -5.6373    3.9285   -5.3706 H         1 <0>         0.1363
     34 H9         -3.9241    3.1779   -3.7756 H         1 <0>         0.1619
     35 H10        -8.3798    4.5364   -2.1343 H         1 <0>         0.1398
     36 H11        -4.4790    2.6123   -0.3037 H         1 <0>         0.4102
     37 H12         0.5794    1.0082    0.0117 H         1 <0>         0.0886
     38 H13         0.9983    2.5890    0.7375 H         1 <0>         0.0812
     39 H14        -0.6995    0.7730    1.9745 H         1 <0>         0.0743
     40 H15        -0.8541    2.5474    2.1985 H         1 <0>         0.0724
     41 H16        -2.9830    2.1810    1.2421 H         1 <0>         0.0647
     42 H17        -2.4514    0.6977    0.3946 H         1 <0>         0.0720
     43 O4          0.0733    4.7506   -1.8500 O.co2     1 <0>        -0.7365
@<TRIPOS>BOND
     1    1    2 1
     2    1   26 1
     3    1   27 1
     4    1   28 1
     5    2    3 1
     6    3    8 ar
     7    3    4 ar
     8    4    5 ar
     9    4   29 1
    10    5    6 ar
    11    5   30 1
    12    6    7 ar
    13    6   31 1
    14    7    8 ar
    15    7    9 1
    16    8   32 1
    17    9   14 ar
    18    9   10 ar
    19   10   11 ar
    20   10   33 1
    21   11   12 ar
    22   11   34 1
    23   12   13 ar
    24   12   16 1
    25   13   14 ar
    26   13   15 1
    27   14   35 1
    28   16   17 am
    29   16   36 1
    30   17   18 2
    31   17   19 1
    32   19   23 1
    33   19   20 2
    34   20   21 1
    35   20   24 1
    36   21   22 1
    37   21   37 1
    38   21   38 1
    39   22   23 1
    40   22   39 1
    41   22   40 1
    42   23   41 1
    43   23   42 1
    44   24   25 2
    45   24   43 1
@<TRIPOS>MOLECULE
ZINC01587011
   42    45     0     0     0
SMALL
USER_CHARGES
6-fluoro-2-[4-(2-fluorophenyl)phenyl]-3-methyl-quinoline-4-carboxylic acid
@<TRIPOS>ATOM
      1 C1          3.6391   -0.9089   -0.0380 C.3       1 <0>        -0.1135
      2 C2          2.3835   -0.0757   -0.0210 C.ar      1 <0>        -0.1250
      3 C3          2.4625    1.3104   -0.0144 C.ar      1 <0>        -0.0169
      4 C4          1.2026    2.0547    0.0016 C.ar      1 <0>        -0.0665
      5 C5          1.1805    3.4528    0.0097 C.ar      1 <0>        -0.1045
      6 C6         -0.0175    4.1083    0.0250 C.ar      1 <0>         0.0841
      7 C7         -1.2196    3.3989    0.0332 C.ar      1 <0>        -0.1351
      8 C8         -1.2318    2.0387    0.0306 C.ar      1 <0>        -0.0687
      9 C9         -0.0160    1.3291    0.0093 C.ar      1 <0>         0.1196
     10 N1          0.0021   -0.0041    0.0020 N.ar      1 <0>        -0.4794
     11 C10         1.1239   -0.6935   -0.0124 C.ar      1 <0>         0.2050
     12 C11         1.0534   -2.1737   -0.0202 C.ar      1 <0>        -0.0298
     13 C12         1.9990   -2.9135   -0.7309 C.ar      1 <0>        -0.1003
     14 C13         1.9365   -4.2893   -0.7337 C.ar      1 <0>        -0.1055
     15 C14         0.9214   -4.9427   -0.0350 C.ar      1 <0>        -0.0531
     16 C15        -0.0271   -4.2032    0.6713 C.ar      1 <0>        -0.1037
     17 C16         0.0382   -2.8276    0.6786 C.ar      1 <0>        -0.0768
     18 C17         0.8509   -6.4237   -0.0428 C.ar      1 <0>        -0.0728
     19 C18         0.9110   -7.1210   -1.2483 C.ar      1 <0>        -0.0792
     20 C19         0.8454   -8.4992   -1.2496 C.ar      1 <0>        -0.1298
     21 C20         0.7207   -9.1909   -0.0577 C.ar      1 <0>        -0.0933
     22 C21         0.6605   -8.5068    1.1423 C.ar      1 <0>        -0.1545
     23 C22         0.7300   -7.1259    1.1576 C.ar      1 <0>         0.1088
     24 F1          0.6767   -6.4579    2.3307 F         1 <0>        -0.1320
     25 F2         -0.0395    5.4591    0.0329 F         1 <0>        -0.1407
     26 C23         3.7660    2.0060   -0.0235 C.2       1 <0>         0.5007
     27 O1          4.2914    2.2976   -1.0791 O.co2     1 <0>        -0.6139
     28 H1          3.9319   -1.1039   -1.0696 H         1 <0>         0.0739
     29 H2          4.4389   -0.3711    0.4712 H         1 <0>         0.0790
     30 H3          3.4547   -1.8543    0.4723 H         1 <0>         0.0739
     31 H4          2.1051    4.0109    0.0035 H         1 <0>         0.1446
     32 H5         -2.1549    3.9386    0.0460 H         1 <0>         0.1388
     33 H6         -2.1707    1.5051    0.0410 H         1 <0>         0.1425
     34 H7          2.7821   -2.4074   -1.2759 H         1 <0>         0.1422
     35 H8          2.6708   -4.8621   -1.2805 H         1 <0>         0.1280
     36 H9         -0.8130   -4.7093    1.2122 H         1 <0>         0.1234
     37 H10        -0.6963   -2.2550    1.2255 H         1 <0>         0.1324
     38 H11         1.0083   -6.5832   -2.1798 H         1 <0>         0.1353
     39 H12         0.8919   -9.0396   -2.1835 H         1 <0>         0.1306
     40 H13         0.6706  -10.2697   -0.0648 H         1 <0>         0.1316
     41 H14         0.5628   -9.0521    2.0694 H         1 <0>         0.1357
     42 O2          4.3719    2.3168    1.1390 O.co2     1 <0>        -0.7350
@<TRIPOS>BOND
     1    1    2 1
     2    1   28 1
     3    1   29 1
     4    1   30 1
     5    2   11 ar
     6    2    3 ar
     7    3    4 ar
     8    3   26 1
     9    4    9 ar
    10    4    5 ar
    11    5    6 ar
    12    5   31 1
    13    6    7 ar
    14    6   25 1
    15    7    8 ar
    16    7   32 1
    17    8    9 ar
    18    8   33 1
    19    9   10 ar
    20   10   11 ar
    21   11   12 1
    22   12   17 ar
    23   12   13 ar
    24   13   14 ar
    25   13   34 1
    26   14   15 ar
    27   14   35 1
    28   15   16 ar
    29   15   18 1
    30   16   17 ar
    31   16   36 1
    32   17   37 1
    33   18   23 ar
    34   18   19 ar
    35   19   20 ar
    36   19   38 1
    37   20   21 ar
    38   20   39 1
    39   21   22 ar
    40   21   40 1
    41   22   23 ar
    42   22   41 1
    43   23   24 1
    44   26   27 2
    45   26   42 1
@<TRIPOS>MOLECULE
ZINC00499675
   38    40     0     0     0
SMALL
USER_CHARGES
2-(4-phenylbenzoyl)aminobenzoic acid
@<TRIPOS>ATOM
      1 C1          8.4977   -3.0783    0.8825 C.ar      1 <0>        -0.1208
      2 C2          7.2837   -3.7377    0.8108 C.ar      1 <0>        -0.1185
      3 C3          6.1116   -3.0197    0.6888 C.ar      1 <0>        -0.1079
      4 C4          6.1525   -1.6272    0.6378 C.ar      1 <0>        -0.0445
      5 C5          7.3792   -0.9683    0.7053 C.ar      1 <0>        -0.1094
      6 C6          8.5445   -1.6966    0.8320 C.ar      1 <0>        -0.1199
      7 C7          4.8966   -0.8500    0.5063 C.ar      1 <0>        -0.0281
      8 C8          4.9412    0.5434    0.4556 C.ar      1 <0>        -0.1233
      9 C9          3.7759    1.2660    0.3339 C.ar      1 <0>        -0.0571
     10 C10         2.5479    0.6032    0.2611 C.ar      1 <0>        -0.1251
     11 C11         2.5041   -0.7923    0.3173 C.ar      1 <0>        -0.0718
     12 C12         3.6712   -1.5129    0.4337 C.ar      1 <0>        -0.1169
     13 C13         1.2970    1.3772    0.1311 C.2       1 <0>         0.5529
     14 O1          1.3354    2.5915    0.0873 O.2       1 <0>        -0.5372
     15 N1          0.1129    0.7374    0.0610 N.am      1 <0>        -0.6372
     16 C14        -1.0713    1.4673    0.0265 C.ar      1 <0>         0.1703
     17 C15        -1.1209    2.6861   -0.6374 C.ar      1 <0>        -0.1399
     18 C16        -2.2979    3.4058   -0.6749 C.ar      1 <0>        -0.1071
     19 C17        -3.4344    2.9257   -0.0435 C.ar      1 <0>        -0.1546
     20 C18        -3.4031    1.7214    0.6249 C.ar      1 <0>        -0.0617
     21 C19        -2.2202    0.9783    0.6673 C.ar      1 <0>        -0.1437
     22 C20        -2.1794   -0.3105    1.3809 C.2       1 <0>         0.4957
     23 O2         -1.1270   -0.9062    1.4995 O.co2     1 <0>        -0.6351
     24 H1          9.4125   -3.6443    0.9780 H         1 <0>         0.1212
     25 H2          7.2533   -4.8166    0.8500 H         1 <0>         0.1241
     26 H3          5.1644   -3.5355    0.6325 H         1 <0>         0.1285
     27 H4          7.4172    0.1102    0.6618 H         1 <0>         0.1265
     28 H5          9.4951   -1.1871    0.8881 H         1 <0>         0.1231
     29 H6          5.8905    1.0554    0.5115 H         1 <0>         0.1302
     30 H7          3.8107    2.3447    0.2951 H         1 <0>         0.1381
     31 H8          1.5552   -1.3054    0.2656 H         1 <0>         0.1397
     32 H9          3.6378   -2.5917    0.4730 H         1 <0>         0.1321
     33 H10         0.0863   -0.2318    0.0305 H         1 <0>         0.4227
     34 H11        -0.2385    3.0694   -1.1281 H         1 <0>         0.1342
     35 H12        -2.3325    4.3511   -1.1960 H         1 <0>         0.1174
     36 H13        -4.3493    3.4987   -0.0754 H         1 <0>         0.1169
     37 H14        -4.2914    1.3522    1.1158 H         1 <0>         0.1329
     38 O3         -3.3092   -0.8283    1.9018 O.co2     1 <0>        -0.7468
@<TRIPOS>BOND
     1    1    6 ar
     2    1    2 ar
     3    1   24 1
     4    2    3 ar
     5    2   25 1
     6    3    4 ar
     7    3   26 1
     8    4    5 ar
     9    4    7 1
    10    5    6 ar
    11    5   27 1
    12    6   28 1
    13    7   12 ar
    14    7    8 ar
    15    8    9 ar
    16    8   29 1
    17    9   10 ar
    18    9   30 1
    19   10   11 ar
    20   10   13 1
    21   11   12 ar
    22   11   31 1
    23   12   32 1
    24   13   14 2
    25   13   15 am
    26   15   16 1
    27   15   33 1
    28   16   21 ar
    29   16   17 ar
    30   17   18 ar
    31   17   34 1
    32   18   19 ar
    33   18   35 1
    34   19   20 ar
    35   19   36 1
    36   20   21 ar
    37   20   37 1
    38   21   22 1
    39   22   23 2
    40   22   38 1
@<TRIPOS>MOLECULE
ZINC01578570
   48    51     0     0     0
SMALL
USER_CHARGES
2-(4-cyclohexylphenyl)-6-fluoro-3-methyl-quinoline-4-carboxylic acid
@<TRIPOS>ATOM
      1 C1         -4.6180    0.9256   -1.0836 C.3       1 <0>        -0.1080
      2 C2         -3.5456    1.7923   -0.4756 C.ar      1 <0>        -0.1247
      3 C3         -2.9509    1.4316    0.7263 C.ar      1 <0>        -0.0183
      4 C4         -1.9128    2.3177    1.2540 C.ar      1 <0>        -0.0675
      5 C5         -1.2529    2.0361    2.4543 C.ar      1 <0>        -0.1044
      6 C6         -0.2897    2.8900    2.9107 C.ar      1 <0>         0.0832
      7 C7          0.0429    4.0403    2.1935 C.ar      1 <0>        -0.1355
      8 C8         -0.5807    4.3425    1.0231 C.ar      1 <0>        -0.0690
      9 C9         -1.5786    3.4853    0.5215 C.ar      1 <0>         0.1188
     10 N1         -2.2066    3.7568   -0.6228 N.ar      1 <0>        -0.4803
     11 C10        -3.1434    2.9740   -1.1152 C.ar      1 <0>         0.2077
     12 C11        -3.7912    3.3510   -2.3948 C.ar      1 <0>        -0.0387
     13 C12        -3.0197    3.8113   -3.4606 C.ar      1 <0>        -0.0783
     14 C13        -3.6277    4.1567   -4.6504 C.ar      1 <0>        -0.1204
     15 C14        -5.0009    4.0563   -4.7832 C.ar      1 <0>        -0.0725
     16 C15        -5.7721    3.6047   -3.7273 C.ar      1 <0>        -0.1208
     17 C16        -5.1746    3.2519   -2.5343 C.ar      1 <0>        -0.0924
     18 C17        -5.6594    4.4400   -6.0833 C.3       1 <0>        -0.0456
     19 C18        -5.1117    3.5626   -7.2107 C.3       1 <0>        -0.1116
     20 C19        -5.7802    3.9521   -8.5307 C.3       1 <0>        -0.1196
     21 C20        -5.4841    5.4213   -8.8382 C.3       1 <0>        -0.1204
     22 C21        -6.0318    6.2987   -7.7108 C.3       1 <0>        -0.1195
     23 C22        -5.3633    5.9092   -6.3908 C.3       1 <0>        -0.1110
     24 F1          0.3484    2.6182    4.0701 F         1 <0>        -0.1410
     25 C23        -3.3460    0.1999    1.4403 C.2       1 <0>         0.5010
     26 O1         -4.2391    0.2347    2.2627 O.co2     1 <0>        -0.6142
     27 H1         -5.5979    1.2888   -0.7735 H         1 <0>         0.0709
     28 H2         -4.5436    0.9640   -2.1703 H         1 <0>         0.0697
     29 H3         -4.4884   -0.1029   -0.7466 H         1 <0>         0.0781
     30 H4         -1.5032    1.1488    3.0168 H         1 <0>         0.1442
     31 H5          0.8074    4.7013    2.5743 H         1 <0>         0.1384
     32 H6         -0.3116    5.2369    0.4807 H         1 <0>         0.1421
     33 H7         -1.9479    3.8940   -3.3567 H         1 <0>         0.1255
     34 H8         -3.0305    4.5099   -5.4781 H         1 <0>         0.1208
     35 H9         -6.8439    3.5283   -3.8365 H         1 <0>         0.1229
     36 H10        -5.7777    2.8995   -1.7106 H         1 <0>         0.1305
     37 H11        -6.7367    4.2958   -6.0014 H         1 <0>         0.0765
     38 H12        -4.0344    3.7067   -7.2926 H         1 <0>         0.0644
     39 H13        -5.3226    2.5158   -6.9916 H         1 <0>         0.0642
     40 H14        -6.8575    3.8079   -8.4488 H         1 <0>         0.0610
     41 H15        -5.3900    3.3270   -9.3339 H         1 <0>         0.0609
     42 H16        -5.9604    5.6988   -9.7786 H         1 <0>         0.0585
     43 H17        -4.4068    5.5655   -8.9201 H         1 <0>         0.0610
     44 H18        -7.1091    6.1546   -7.6288 H         1 <0>         0.0609
     45 H19        -5.8209    7.3454   -7.9298 H         1 <0>         0.0605
     46 H20        -5.7535    6.5343   -5.5876 H         1 <0>         0.0632
     47 H21        -4.2860    6.0533   -6.4727 H         1 <0>         0.0644
     48 O2         -2.7194   -0.9629    1.1750 O.co2     1 <0>        -0.7357
@<TRIPOS>BOND
     1    1    2 1
     2    1   27 1
     3    1   28 1
     4    1   29 1
     5    2   11 ar
     6    2    3 ar
     7    3    4 ar
     8    3   25 1
     9    4    9 ar
    10    4    5 ar
    11    5    6 ar
    12    5   30 1
    13    6    7 ar
    14    6   24 1
    15    7    8 ar
    16    7   31 1
    17    8    9 ar
    18    8   32 1
    19    9   10 ar
    20   10   11 ar
    21   11   12 1
    22   12   17 ar
    23   12   13 ar
    24   13   14 ar
    25   13   33 1
    26   14   15 ar
    27   14   34 1
    28   15   16 ar
    29   15   18 1
    30   16   17 ar
    31   16   35 1
    32   17   36 1
    33   18   23 1
    34   18   19 1
    35   18   37 1
    36   19   20 1
    37   19   38 1
    38   19   39 1
    39   20   21 1
    40   20   40 1
    41   20   41 1
    42   21   22 1
    43   21   42 1
    44   21   43 1
    45   22   23 1
    46   22   44 1
    47   22   45 1
    48   23   46 1
    49   23   47 1
    50   25   26 2
    51   25   48 1
@<TRIPOS>MOLECULE
ZINC29327729
   42    45     0     0     0
SMALL
USER_CHARGES
3-methyl-2-(4-phenylphenyl)quinoline-4-carboxylic acid
@<TRIPOS>ATOM
      1 C1         -0.9666    1.8153    2.3109 C.3       1 <0>        -0.1131
      2 C2         -1.7673    2.2265    1.1022 C.ar      1 <0>        -0.1328
      3 C3         -1.3036    1.9421   -0.1749 C.ar      1 <0>        -0.0176
      4 C4         -2.1304    2.3761   -1.3015 C.ar      1 <0>        -0.0874
      5 C5         -1.7503    2.1294   -2.6251 C.ar      1 <0>        -0.0691
      6 C6         -2.5541    2.5446   -3.6452 C.ar      1 <0>        -0.1343
      7 C7         -3.7521    3.2070   -3.3860 C.ar      1 <0>        -0.1048
      8 C8         -4.1545    3.4582   -2.1105 C.ar      1 <0>        -0.1021
      9 C9         -3.3514    3.0444   -1.0312 C.ar      1 <0>         0.1270
     10 N1         -3.7199    3.2763    0.2293 N.ar      1 <0>        -0.4839
     11 C10        -2.9886    2.8999    1.2575 C.ar      1 <0>         0.2031
     12 C11        -3.4723    3.1975    2.6263 C.ar      1 <0>        -0.0260
     13 C12        -4.8116    2.9853    2.9545 C.ar      1 <0>        -0.0802
     14 C13        -5.2593    3.2555    4.2286 C.ar      1 <0>        -0.1134
     15 C14        -4.3769    3.7535    5.1870 C.ar      1 <0>        -0.0489
     16 C15        -3.0394    3.9716    4.8574 C.ar      1 <0>        -0.1106
     17 C16        -2.5897    3.6952    3.5853 C.ar      1 <0>        -0.0984
     18 C17        -4.8608    4.0508    6.5570 C.ar      1 <0>        -0.0372
     19 C18        -3.9799    4.5427    7.5187 C.ar      1 <0>        -0.1122
     20 C19        -4.4371    4.8230    8.7903 C.ar      1 <0>        -0.1180
     21 C20        -5.7642    4.6058    9.1145 C.ar      1 <0>        -0.1246
     22 C21        -6.6417    4.1123    8.1658 C.ar      1 <0>        -0.1186
     23 C22        -6.1970    3.8339    6.8894 C.ar      1 <0>        -0.1128
     24 C23        -0.0235    1.2350   -0.3883 C.2       1 <0>         0.5023
     25 O1         -0.0032    0.0224   -0.4543 O.co2     1 <0>        -0.6165
     26 O2          1.1201    1.9357   -0.5152 O.co2     1 <0>        -0.7381
     27 H1         -0.0484    1.3042    1.9859 H         1 <0>         0.0766
     28 H2         -1.5653    1.1335    2.9327 H         1 <0>         0.0676
     29 H3         -0.7017    2.7081    2.8963 H         1 <0>         0.0750
     30 H4         -0.8236    1.6171   -2.8377 H         1 <0>         0.1315
     31 H5         -2.2583    2.3579   -4.6670 H         1 <0>         0.1242
     32 H6         -4.3714    3.5268   -4.2110 H         1 <0>         0.1244
     33 H7         -5.0860    3.9732   -1.9272 H         1 <0>         0.1299
     34 H8         -5.4961    2.6045    2.2109 H         1 <0>         0.1290
     35 H9         -6.2949    3.0864    4.4842 H         1 <0>         0.1258
     36 H10        -2.3562    4.3569    5.5998 H         1 <0>         0.1279
     37 H11        -1.5538    3.8634    3.3303 H         1 <0>         0.1390
     38 H12        -2.9426    4.7085    7.2679 H         1 <0>         0.1267
     39 H13        -3.7565    5.2084    9.5350 H         1 <0>         0.1227
     40 H14        -6.1166    4.8220   10.1123 H         1 <0>         0.1201
     41 H15        -7.6767    3.9443    8.4246 H         1 <0>         0.1222
     42 H16        -6.8829    3.4483    6.1496 H         1 <0>         0.1257
@<TRIPOS>BOND
     1    1    2 1
     2    1   27 1
     3    1   28 1
     4    1   29 1
     5    2   11 ar
     6    2    3 ar
     7    3    4 ar
     8    3   24 1
     9    4    9 ar
    10    4    5 ar
    11    5    6 ar
    12    5   30 1
    13    6    7 ar
    14    6   31 1
    15    7    8 ar
    16    7   32 1
    17    8    9 ar
    18    8   33 1
    19    9   10 ar
    20   10   11 ar
    21   11   12 1
    22   12   17 ar
    23   12   13 ar
    24   13   14 ar
    25   13   34 1
    26   14   15 ar
    27   14   35 1
    28   15   16 ar
    29   15   18 1
    30   16   17 ar
    31   16   36 1
    32   17   37 1
    33   18   23 ar
    34   18   19 ar
    35   19   20 ar
    36   19   38 1
    37   20   21 ar
    38   20   39 1
    39   21   22 ar
    40   21   40 1
    41   22   23 ar
    42   22   41 1
    43   23   42 1
    44   24   25 2
    45   24   26 1
@<TRIPOS>MOLECULE
ZINC00004840
   28    29     0     0     0
SMALL
USER_CHARGES

@<TRIPOS>ATOM
      1 C1         -2.0048   -5.1025   -1.8704 C.3       1 <0>        -0.0933
      2 C2         -1.2139   -4.0474   -1.1410 C.2       1 <0>         0.1701
      3 C3         -1.7196   -2.9078   -0.5837 C.2       1 <0>        -0.3292
      4 C4         -0.5908   -2.1910    0.0120 C.2       1 <0>         0.1084
      5 N1          0.4747   -2.9028   -0.2091 N.2       1 <0>        -0.2980
      6 O1          0.1034   -4.0660   -0.9216 O.3       1 <0>        -0.0768
      7 C5         -3.1304   -2.4816   -0.5823 C.2       1 <0>         0.5995
      8 O2         -3.9754   -3.1743   -1.1163 O.2       1 <0>        -0.5123
      9 N2         -3.4841   -1.3242    0.0109 N.am      1 <0>        -0.6699
     10 C6         -4.8050   -0.8717   -0.0709 C.ar      1 <0>         0.1788
     11 C7         -5.0702    0.4885   -0.1638 C.ar      1 <0>        -0.1455
     12 C8         -6.3756    0.9320   -0.2448 C.ar      1 <0>        -0.0493
     13 C9         -7.4181    0.0235   -0.2336 C.ar      1 <0>        -0.1984
     14 C10        -7.1575   -1.3313   -0.1407 C.ar      1 <0>        -0.0495
     15 C11        -5.8541   -1.7818   -0.0651 C.ar      1 <0>        -0.1224
     16 C12        -8.8413    0.5111   -0.3222 C.3       1 <0>         0.5096
     17 F1         -9.2269    0.5829   -1.6651 F         1 <0>        -0.1760
     18 F2         -9.6817   -0.3771    0.3575 F         1 <0>        -0.1766
     19 F3         -8.9365    1.7802    0.2588 F         1 <0>        -0.1772
     20 H1         -1.3345   -5.8967   -2.1991 H         1 <0>         0.0899
     21 H2         -2.7597   -5.5174   -1.2024 H         1 <0>         0.1099
     22 H3         -2.4924   -4.6567   -2.7374 H         1 <0>         0.1099
     23 H4         -0.6347   -1.2480    0.5367 H         1 <0>         0.2098
     24 H5         -2.8226   -0.8051    0.4944 H         1 <0>         0.4139
     25 H6         -4.2565    1.1985   -0.1722 H         1 <0>         0.1396
     26 H7         -6.5825    1.9896   -0.3167 H         1 <0>         0.1416
     27 H8         -7.9739   -2.0383   -0.1318 H         1 <0>         0.1410
     28 H9         -5.6510   -2.8404    0.0025 H         1 <0>         0.1522
@<TRIPOS>BOND
     1    1    2 1
     2    1   20 1
     3    1   21 1
     4    1   22 1
     5    2    6 1
     6    2    3 2
     7    3    4 1
     8    3    7 1
     9    4    5 2
    10    4   23 1
    11    5    6 1
    12    7    8 2
    13    7    9 am
    14    9   10 1
    15    9   24 1
    16   10   15 ar
    17   10   11 ar
    18   11   12 ar
    19   11   25 1
    20   12   13 ar
    21   12   26 1
    22   13   14 ar
    23   13   16 1
    24   14   15 ar
    25   14   27 1
    26   15   28 1
    27   16   17 1
    28   16   18 1
    29   16   19 1
@<TRIPOS>MOLECULE
ZINC13512456
   27    27     0     0     0
SMALL
USER_CHARGES

@<TRIPOS>ATOM
      1 C1         -0.9674    1.4640    0.1676 C.3       1 <0>        -0.1905
      2 C2         -1.1434   -0.0270    0.2981 C.2       1 <0>         0.4134
      3 C3         -0.4468   -0.7338    1.2983 C.2       1 <0>        -0.4480
      4 C4          0.4285   -0.0354    2.1909 C.1       1 <0>         0.3002
      5 N1          1.1228    0.5187    2.8990 N.1       1 <0>        -0.5409
      6 C5         -0.6101   -2.1170    1.4193 C.2       1 <0>         0.5439
      7 O1         -1.4328   -2.7734    0.5804 O.3       1 <0>        -0.6144
      8 N2          0.0627   -2.7996    2.3854 N.pl3     1 <0>        -0.6791
      9 C6         -0.0081   -4.1953    2.4333 C.ar      1 <0>         0.2158
     10 C7          0.0025   -4.9336    1.2568 C.ar      1 <0>        -0.1163
     11 C8         -0.0671   -6.3120    1.3077 C.ar      1 <0>        -0.0522
     12 C9         -0.1472   -6.9572    2.5282 C.ar      1 <0>        -0.2228
     13 C10        -0.1580   -6.2251    3.7014 C.ar      1 <0>        -0.0520
     14 C11        -0.0833   -4.8468    3.6577 C.ar      1 <0>        -0.1651
     15 C12        -0.2235   -8.4614    2.5799 C.3       1 <0>         0.5127
     16 F1          1.0692   -8.9918    2.6479 F         1 <0>        -0.1822
     17 F2         -0.9484   -8.8530    3.7106 F         1 <0>        -0.1821
     18 F3         -0.8623   -8.9357    1.4291 F         1 <0>        -0.1799
     19 O2         -1.8861   -0.6196   -0.4593 O.2       1 <0>        -0.5069
     20 H1         -0.1431    1.6743   -0.5138 H         1 <0>         0.0721
     21 H2         -1.8840    1.9052   -0.2239 H         1 <0>         0.0664
     22 H3         -0.7478    1.8909    1.1462 H         1 <0>         0.0613
     23 H4          0.5914   -2.3180    3.0407 H         1 <0>         0.4039
     24 H5          0.0646   -4.4303    0.3033 H         1 <0>         0.1470
     25 H6         -0.0593   -6.8866    0.3933 H         1 <0>         0.1327
     26 H7         -0.2210   -6.7321    4.6529 H         1 <0>         0.1315
     27 H8         -0.0876   -4.2758    4.5745 H         1 <0>         0.1315
@<TRIPOS>BOND
     1    1    2 1
     2    1   20 1
     3    1   21 1
     4    1   22 1
     5    2    3 1
     6    2   19 2
     7    3    4 1
     8    3    6 2
     9    4    5 3
    10    6    7 1
    11    6    8 1
    12    8    9 1
    13    8   23 1
    14    9   14 ar
    15    9   10 ar
    16   10   11 ar
    17   10   24 1
    18   11   12 ar
    19   11   25 1
    20   12   13 ar
    21   12   15 1
    22   13   14 ar
    23   13   26 1
    24   14   27 1
    25   15   16 1
    26   15   17 1
    27   15   18 1
@<TRIPOS>MOLECULE
ZINC13512456
   27    27     0     0     0
SMALL
USER_CHARGES

@<TRIPOS>ATOM
      1 C1         -4.3940    1.4371    1.2142 C.3       1 <0>        -0.1588
      2 C2         -4.3693   -0.0697    1.2134 C.2       1 <0>         0.3465
      3 O1         -5.3576   -0.7583    1.8094 O.3       1 <0>        -0.6134
      4 C3         -3.3444   -0.7344    0.6080 C.2       1 <0>        -0.4253
      5 C4         -3.3204   -2.2041    0.6072 C.2       1 <0>         0.5876
      6 N1         -2.3072   -2.8612    0.0087 N.am      1 <0>        -0.6934
      7 C5         -2.2326   -4.2554    0.0908 C.ar      1 <0>         0.2107
      8 C6         -0.9963   -4.8823    0.1770 C.ar      1 <0>        -0.1657
      9 C7         -0.9262   -6.2593    0.2579 C.ar      1 <0>        -0.0504
     10 C8         -2.0851   -7.0137    0.2526 C.ar      1 <0>        -0.2242
     11 C9         -3.3176   -6.3925    0.1664 C.ar      1 <0>        -0.0503
     12 C10        -3.3950   -5.0156    0.0920 C.ar      1 <0>        -0.1293
     13 C11        -2.0048   -8.5159    0.3405 C.3       1 <0>         0.5125
     14 F1         -2.0341   -8.9067    1.6835 F         1 <0>        -0.1806
     15 F2         -3.0925   -9.0814   -0.3336 F         1 <0>        -0.1807
     16 F3         -0.8131   -8.9544   -0.2468 F         1 <0>        -0.1825
     17 O2         -4.2151   -2.8275    1.1468 O.2       1 <0>        -0.5196
     18 C12        -2.2913   -0.0007   -0.0271 C.1       1 <0>         0.2988
     19 N2         -1.4559    0.5813   -0.5310 N.1       1 <0>        -0.5362
     20 H1         -5.2823    1.7856    1.7410 H         1 <0>         0.0653
     21 H2         -3.5027    1.8148    1.7153 H         1 <0>         0.0665
     22 H3         -4.4147    1.8006    0.1868 H         1 <0>         0.0666
     23 H4         -1.6297   -2.3671   -0.4789 H         1 <0>         0.4035
     24 H5         -0.0908   -4.2938    0.1805 H         1 <0>         0.1324
     25 H6          0.0349   -6.7474    0.3250 H         1 <0>         0.1319
     26 H7         -4.2209   -6.9846    0.1622 H         1 <0>         0.1333
     27 H8         -4.3580   -4.5308    0.0298 H         1 <0>         0.1548
@<TRIPOS>BOND
     1    1    2 1
     2    1   20 1
     3    1   21 1
     4    1   22 1
     5    2    3 1
     6    2    4 2
     7    4    5 1
     8    4   18 1
     9    5    6 am
    10    5   17 2
    11    6    7 1
    12    6   23 1
    13    7   12 ar
    14    7    8 ar
    15    8    9 ar
    16    8   24 1
    17    9   10 ar
    18    9   25 1
    19   10   11 ar
    20   10   13 1
    21   11   12 ar
    22   11   26 1
    23   12   27 1
    24   13   14 1
    25   13   15 1
    26   13   16 1
    27   18   19 3
