@<TRIPOS>MOLECULE
ZINC36176209
   28    29     0     0     0
SMALL
USER_CHARGES

@<TRIPOS>ATOM
      1 C1         -0.0142    1.3818    0.0489 C.ar      1 <0>        -0.1575
      2 C2          0.1464    0.2239    0.7876 C.ar      1 <0>        -0.1045
      3 C3          1.3503   -0.4523    0.7614 C.ar      1 <0>        -0.1176
      4 C4          2.4005    0.0319   -0.0080 C.ar      1 <0>         0.1789
      5 C5          2.2358    1.1953   -0.7488 C.ar      1 <0>        -0.1671
      6 C6          1.0293    1.8666   -0.7181 C.ar      1 <0>        -0.1055
      7 N1          3.6209   -0.6500   -0.0363 N.pl3     1 <0>        -0.6773
      8 C7          3.6443   -2.0073    0.0589 C.2       1 <0>         0.5464
      9 O1          2.4911   -2.7014    0.0668 O.3       1 <0>        -0.6172
     10 C8          4.8661   -2.6808    0.1486 C.2       1 <0>        -0.4432
     11 C9          6.0930   -1.9424    0.1401 C.1       1 <0>         0.3025
     12 N2          7.0663   -1.3566    0.1334 N.1       1 <0>        -0.5443
     13 C10         4.8904   -4.0862    0.2472 C.2       1 <0>         0.4451
     14 O2          3.8494   -4.7127    0.2543 O.2       1 <0>        -0.5018
     15 C11         6.2074   -4.8122    0.3438 C.3       1 <0>        -0.1984
     16 C12         6.3813   -6.0757   -0.5013 C.3       1 <0>        -0.1605
     17 C13         6.2086   -6.1872    1.0148 C.3       1 <0>        -0.1619
     18 H1         -0.9581    1.9062    0.0675 H         1 <0>         0.1134
     19 H2         -0.6704   -0.1519    1.3859 H         1 <0>         0.1180
     20 H3          1.4752   -1.3564    1.3388 H         1 <0>         0.1416
     21 H4          3.0504    1.5744   -1.3480 H         1 <0>         0.1171
     22 H5          0.9007    2.7713   -1.2939 H         1 <0>         0.1162
     23 H6          4.4509   -0.1556   -0.1239 H         1 <0>         0.4002
     24 H7          7.0831   -4.1799    0.4904 H         1 <0>         0.1026
     25 H8          5.5431   -6.3818   -1.1272 H         1 <0>         0.0970
     26 H9          7.3715   -6.2748   -0.9111 H         1 <0>         0.0891
     27 H10         7.0852   -6.4596    1.6025 H         1 <0>         0.0885
     28 H11         5.2568   -6.5667    1.3864 H         1 <0>         0.1002
@<TRIPOS>BOND
     1    1    6 ar
     2    1    2 ar
     3    1   18 1
     4    2    3 ar
     5    2   19 1
     6    3    4 ar
     7    3   20 1
     8    4    5 ar
     9    4    7 1
    10    5    6 ar
    11    5   21 1
    12    6   22 1
    13    7    8 1
    14    7   23 1
    15    8    9 1
    16    8   10 2
    17   10   11 1
    18   10   13 1
    19   11   12 3
    20   13   14 2
    21   13   15 1
    22   15   17 1
    23   15   16 1
    24   15   24 1
    25   16   17 1
    26   16   25 1
    27   16   26 1
    28   17   27 1
    29   17   28 1
@<TRIPOS>MOLECULE
ZINC36176322
   34    35     0     0     0
SMALL
USER_CHARGES

@<TRIPOS>ATOM
      1 C1          0.6785    1.2130    0.3869 C.3       1 <0>        -0.1306
      2 C2          0.1039   -0.1634    0.1719 C.ar      1 <0>        -0.0155
      3 C3          0.3306   -0.8275   -1.0179 C.ar      1 <0>        -0.1716
      4 C4         -0.1994   -2.0959   -1.2152 C.ar      1 <0>         0.2199
      5 C5         -0.9561   -2.6926   -0.2146 C.ar      1 <0>        -0.1263
      6 C6         -1.1789   -2.0232    0.9724 C.ar      1 <0>        -0.0506
      7 C7         -0.6450   -0.7624    1.1679 C.ar      1 <0>        -0.2279
      8 C8         -0.8851   -0.0374    2.4671 C.3       1 <0>         0.5143
      9 F1         -1.6626   -0.8377    3.3109 F         1 <0>        -0.1804
     10 F2          0.3413    0.2352    3.0826 F         1 <0>        -0.1807
     11 F3         -1.5568    1.1634    2.2138 F         1 <0>        -0.1814
     12 N1          0.0278   -2.7708   -2.4187 N.pl3     1 <0>        -0.6748
     13 C9          0.1489   -4.1262   -2.4263 C.2       1 <0>         0.5442
     14 O1          0.1643   -4.8071   -1.2653 O.3       1 <0>        -0.6121
     15 C10         0.2574   -4.8115   -3.6400 C.2       1 <0>        -0.4392
     16 C11         0.3828   -6.2149   -3.6479 C.2       1 <0>         0.4457
     17 C12         0.4997   -6.9536   -4.9562 C.3       1 <0>        -0.1993
     18 C13         1.4591   -8.1442   -5.0120 C.3       1 <0>        -0.1603
     19 C14        -0.0528   -8.3792   -5.0144 C.3       1 <0>        -0.1609
     20 O2          0.3966   -6.8295   -2.5999 O.2       1 <0>        -0.4996
     21 C15         0.2410   -4.0871   -4.8752 C.1       1 <0>         0.3006
     22 N2          0.2281   -3.5125   -5.8550 N.1       1 <0>        -0.5397
     23 H1          1.6709    1.1273    0.8295 H         1 <0>         0.0782
     24 H2          0.7509    1.7301   -0.5699 H         1 <0>         0.0737
     25 H3          0.0295    1.7772    1.0566 H         1 <0>         0.0724
     26 H4          0.9190   -0.3607   -1.7939 H         1 <0>         0.1302
     27 H5         -1.3699   -3.6787   -0.3651 H         1 <0>         0.1538
     28 H6         -1.7674   -2.4864    1.7506 H         1 <0>         0.1349
     29 H7          0.0991   -2.2728   -3.2480 H         1 <0>         0.4040
     30 H8          0.4054   -6.3404   -5.8524 H         1 <0>         0.1028
     31 H9          1.9963   -8.3143   -5.9451 H         1 <0>         0.0894
     32 H10         2.0057   -8.3931   -4.1025 H         1 <0>         0.0981
     33 H11        -0.5008   -8.7828   -4.1064 H         1 <0>         0.0997
     34 H12        -0.5101   -8.7040   -5.9490 H         1 <0>         0.0891
@<TRIPOS>BOND
     1    1    2 1
     2    1   23 1
     3    1   24 1
     4    1   25 1
     5    2    7 ar
     6    2    3 ar
     7    3    4 ar
     8    3   26 1
     9    4    5 ar
    10    4   12 1
    11    5    6 ar
    12    5   27 1
    13    6    7 ar
    14    6   28 1
    15    7    8 1
    16    8    9 1
    17    8   10 1
    18    8   11 1
    19   12   13 1
    20   12   29 1
    21   13   14 1
    22   13   15 2
    23   15   21 1
    24   15   16 1
    25   16   20 2
    26   16   17 1
    27   17   19 1
    28   17   18 1
    29   17   30 1
    30   18   19 1
    31   18   31 1
    32   18   32 1
    33   19   33 1
    34   19   34 1
    35   21   22 3
@<TRIPOS>MOLECULE
ZINC48548065
   32    33     0     0     0
SMALL
USER_CHARGES

@<TRIPOS>ATOM
      1 C1          0.5596    1.1893   -0.4839 C.3       1 <0>         0.0302
      2 O1         -0.0404   -0.0019    0.0291 O.3       1 <0>        -0.3226
      3 C2          0.5942   -0.6169    1.0624 C.ar      1 <0>         0.0880
      4 C3          1.7666   -0.0803    1.5742 C.ar      1 <0>        -0.1892
      5 C4          2.4116   -0.7043    2.6235 C.ar      1 <0>        -0.1279
      6 C5          1.8863   -1.8695    3.1667 C.ar      1 <0>         0.1467
      7 C6          0.7126   -2.4061    2.6539 C.ar      1 <0>        -0.0774
      8 C7          0.0657   -1.7777    1.6082 C.ar      1 <0>        -0.1311
      9 N1          2.5399   -2.5031    4.2305 N.pl3     1 <0>        -0.6756
     10 C8          2.5118   -3.8591    4.3353 C.2       1 <0>         0.5469
     11 O2          1.9536   -4.5982    3.3586 O.3       1 <0>        -0.6185
     12 C9          3.0628   -4.4851    5.4576 C.2       1 <0>        -0.4435
     13 C10         3.6567   -3.6988    6.4967 C.1       1 <0>         0.3028
     14 N2          4.1278   -3.0750    7.3210 N.1       1 <0>        -0.5452
     15 C11         3.0337   -5.8895    5.5662 C.2       1 <0>         0.4450
     16 O3          2.5298   -6.5567    4.6845 O.2       1 <0>        -0.5019
     17 C12         3.6276   -6.5642    6.7758 C.3       1 <0>        -0.1983
     18 C13         4.4868   -7.8081    6.5402 C.3       1 <0>        -0.1607
     19 C14         3.0898   -7.9472    7.1485 C.3       1 <0>        -0.1620
     20 H1          1.5618    0.9634   -0.8484 H         1 <0>         0.0513
     21 H2         -0.0459    1.5774   -1.3029 H         1 <0>         0.0933
     22 H3          0.6207    1.9356    0.3082 H         1 <0>         0.0508
     23 H4          2.1752    0.8257    1.1514 H         1 <0>         0.1231
     24 H5          3.3245   -0.2866    3.0216 H         1 <0>         0.1212
     25 H6          0.3036   -3.3124    3.0755 H         1 <0>         0.1500
     26 H7         -0.8496   -2.1923    1.2124 H         1 <0>         0.1280
     27 H8          3.0128   -1.9752    4.8927 H         1 <0>         0.3998
     28 H9          3.9158   -5.9000    7.5905 H         1 <0>         0.1024
     29 H10         4.6224   -8.1385    5.5104 H         1 <0>         0.0970
     30 H11         5.3406   -7.9624    7.2000 H         1 <0>         0.0889
     31 H12         3.0245   -8.1930    8.2084 H         1 <0>         0.0883
     32 H13         2.3064   -8.3691    6.5188 H         1 <0>         0.1003
@<TRIPOS>BOND
     1    1    2 1
     2    1   20 1
     3    1   21 1
     4    1   22 1
     5    2    3 1
     6    3    8 ar
     7    3    4 ar
     8    4    5 ar
     9    4   23 1
    10    5    6 ar
    11    5   24 1
    12    6    7 ar
    13    6    9 1
    14    7    8 ar
    15    7   25 1
    16    8   26 1
    17    9   10 1
    18    9   27 1
    19   10   11 1
    20   10   12 2
    21   12   13 1
    22   12   15 1
    23   13   14 3
    24   15   16 2
    25   15   17 1
    26   17   19 1
    27   17   18 1
    28   17   28 1
    29   18   19 1
    30   18   29 1
    31   18   30 1
    32   19   31 1
    33   19   32 1
@<TRIPOS>MOLECULE
ZINC00004840
   28    29     0     0     0
SMALL
USER_CHARGES

@<TRIPOS>ATOM
      1 C1         -2.0048   -5.1025   -1.8704 C.3       1 <0>        -0.0933
      2 C2         -1.2139   -4.0474   -1.1410 C.2       1 <0>         0.1701
      3 C3         -1.7196   -2.9078   -0.5837 C.2       1 <0>        -0.3292
      4 C4         -0.5908   -2.1910    0.0120 C.2       1 <0>         0.1084
      5 N1          0.4747   -2.9028   -0.2091 N.2       1 <0>        -0.2980
      6 O1          0.1034   -4.0660   -0.9216 O.3       1 <0>        -0.0768
      7 C5         -3.1304   -2.4816   -0.5823 C.2       1 <0>         0.5995
      8 O2         -3.9754   -3.1743   -1.1163 O.2       1 <0>        -0.5123
      9 N2         -3.4841   -1.3242    0.0109 N.am      1 <0>        -0.6699
     10 C6         -4.8050   -0.8717   -0.0709 C.ar      1 <0>         0.1788
     11 C7         -5.0702    0.4885   -0.1638 C.ar      1 <0>        -0.1455
     12 C8         -6.3756    0.9320   -0.2448 C.ar      1 <0>        -0.0493
     13 C9         -7.4181    0.0235   -0.2336 C.ar      1 <0>        -0.1984
     14 C10        -7.1575   -1.3313   -0.1407 C.ar      1 <0>        -0.0495
     15 C11        -5.8541   -1.7818   -0.0651 C.ar      1 <0>        -0.1224
     16 C12        -8.8413    0.5111   -0.3222 C.3       1 <0>         0.5096
     17 F1         -9.2269    0.5829   -1.6651 F         1 <0>        -0.1760
     18 F2         -9.6817   -0.3771    0.3575 F         1 <0>        -0.1766
     19 F3         -8.9365    1.7802    0.2588 F         1 <0>        -0.1772
     20 H1         -1.3345   -5.8967   -2.1991 H         1 <0>         0.0899
     21 H2         -2.7597   -5.5174   -1.2024 H         1 <0>         0.1099
     22 H3         -2.4924   -4.6567   -2.7374 H         1 <0>         0.1099
     23 H4         -0.6347   -1.2480    0.5367 H         1 <0>         0.2098
     24 H5         -2.8226   -0.8051    0.4944 H         1 <0>         0.4139
     25 H6         -4.2565    1.1985   -0.1722 H         1 <0>         0.1396
     26 H7         -6.5825    1.9896   -0.3167 H         1 <0>         0.1416
     27 H8         -7.9739   -2.0383   -0.1318 H         1 <0>         0.1410
     28 H9         -5.6510   -2.8404    0.0025 H         1 <0>         0.1522
@<TRIPOS>BOND
     1    1    2 1
     2    1   20 1
     3    1   21 1
     4    1   22 1
     5    2    6 1
     6    2    3 2
     7    3    4 1
     8    3    7 1
     9    4    5 2
    10    4   23 1
    11    5    6 1
    12    7    8 2
    13    7    9 am
    14    9   10 1
    15    9   24 1
    16   10   15 ar
    17   10   11 ar
    18   11   12 ar
    19   11   25 1
    20   12   13 ar
    21   12   26 1
    22   13   14 ar
    23   13   16 1
    24   14   15 ar
    25   14   27 1
    26   15   28 1
    27   16   17 1
    28   16   18 1
    29   16   19 1
@<TRIPOS>MOLECULE
ZINC13512456
   27    27     0     0     0
SMALL
USER_CHARGES

@<TRIPOS>ATOM
      1 C1         -0.9674    1.4640    0.1676 C.3       1 <0>        -0.1905
      2 C2         -1.1434   -0.0270    0.2981 C.2       1 <0>         0.4134
      3 C3         -0.4468   -0.7338    1.2983 C.2       1 <0>        -0.4480
      4 C4          0.4285   -0.0354    2.1909 C.1       1 <0>         0.3002
      5 N1          1.1228    0.5187    2.8990 N.1       1 <0>        -0.5409
      6 C5         -0.6101   -2.1170    1.4193 C.2       1 <0>         0.5439
      7 O1         -1.4328   -2.7734    0.5804 O.3       1 <0>        -0.6144
      8 N2          0.0627   -2.7996    2.3854 N.pl3     1 <0>        -0.6791
      9 C6         -0.0081   -4.1953    2.4333 C.ar      1 <0>         0.2158
     10 C7          0.0025   -4.9336    1.2568 C.ar      1 <0>        -0.1163
     11 C8         -0.0671   -6.3120    1.3077 C.ar      1 <0>        -0.0522
     12 C9         -0.1472   -6.9572    2.5282 C.ar      1 <0>        -0.2228
     13 C10        -0.1580   -6.2251    3.7014 C.ar      1 <0>        -0.0520
     14 C11        -0.0833   -4.8468    3.6577 C.ar      1 <0>        -0.1651
     15 C12        -0.2235   -8.4614    2.5799 C.3       1 <0>         0.5127
     16 F1          1.0692   -8.9918    2.6479 F         1 <0>        -0.1822
     17 F2         -0.9484   -8.8530    3.7106 F         1 <0>        -0.1821
     18 F3         -0.8623   -8.9357    1.4291 F         1 <0>        -0.1799
     19 O2         -1.8861   -0.6196   -0.4593 O.2       1 <0>        -0.5069
     20 H1         -0.1431    1.6743   -0.5138 H         1 <0>         0.0721
     21 H2         -1.8840    1.9052   -0.2239 H         1 <0>         0.0664
     22 H3         -0.7478    1.8909    1.1462 H         1 <0>         0.0613
     23 H4          0.5914   -2.3180    3.0407 H         1 <0>         0.4039
     24 H5          0.0646   -4.4303    0.3033 H         1 <0>         0.1470
     25 H6         -0.0593   -6.8866    0.3933 H         1 <0>         0.1327
     26 H7         -0.2210   -6.7321    4.6529 H         1 <0>         0.1315
     27 H8         -0.0876   -4.2758    4.5745 H         1 <0>         0.1315
@<TRIPOS>BOND
     1    1    2 1
     2    1   20 1
     3    1   21 1
     4    1   22 1
     5    2    3 1
     6    2   19 2
     7    3    4 1
     8    3    6 2
     9    4    5 3
    10    6    7 1
    11    6    8 1
    12    8    9 1
    13    8   23 1
    14    9   14 ar
    15    9   10 ar
    16   10   11 ar
    17   10   24 1
    18   11   12 ar
    19   11   25 1
    20   12   13 ar
    21   12   15 1
    22   13   14 ar
    23   13   26 1
    24   14   27 1
    25   15   16 1
    26   15   17 1
    27   15   18 1
@<TRIPOS>MOLECULE
ZINC13512456
   27    27     0     0     0
SMALL
USER_CHARGES

@<TRIPOS>ATOM
      1 C1         -4.3940    1.4371    1.2142 C.3       1 <0>        -0.1588
      2 C2         -4.3693   -0.0697    1.2134 C.2       1 <0>         0.3465
      3 O1         -5.3576   -0.7583    1.8094 O.3       1 <0>        -0.6134
      4 C3         -3.3444   -0.7344    0.6080 C.2       1 <0>        -0.4253
      5 C4         -3.3204   -2.2041    0.6072 C.2       1 <0>         0.5876
      6 N1         -2.3072   -2.8612    0.0087 N.am      1 <0>        -0.6934
      7 C5         -2.2326   -4.2554    0.0908 C.ar      1 <0>         0.2107
      8 C6         -0.9963   -4.8823    0.1770 C.ar      1 <0>        -0.1657
      9 C7         -0.9262   -6.2593    0.2579 C.ar      1 <0>        -0.0504
     10 C8         -2.0851   -7.0137    0.2526 C.ar      1 <0>        -0.2242
     11 C9         -3.3176   -6.3925    0.1664 C.ar      1 <0>        -0.0503
     12 C10        -3.3950   -5.0156    0.0920 C.ar      1 <0>        -0.1293
     13 C11        -2.0048   -8.5159    0.3405 C.3       1 <0>         0.5125
     14 F1         -2.0341   -8.9067    1.6835 F         1 <0>        -0.1806
     15 F2         -3.0925   -9.0814   -0.3336 F         1 <0>        -0.1807
     16 F3         -0.8131   -8.9544   -0.2468 F         1 <0>        -0.1825
     17 O2         -4.2151   -2.8275    1.1468 O.2       1 <0>        -0.5196
     18 C12        -2.2913   -0.0007   -0.0271 C.1       1 <0>         0.2988
     19 N2         -1.4559    0.5813   -0.5310 N.1       1 <0>        -0.5362
     20 H1         -5.2823    1.7856    1.7410 H         1 <0>         0.0653
     21 H2         -3.5027    1.8148    1.7153 H         1 <0>         0.0665
     22 H3         -4.4147    1.8006    0.1868 H         1 <0>         0.0666
     23 H4         -1.6297   -2.3671   -0.4789 H         1 <0>         0.4035
     24 H5         -0.0908   -4.2938    0.1805 H         1 <0>         0.1324
     25 H6          0.0349   -6.7474    0.3250 H         1 <0>         0.1319
     26 H7         -4.2209   -6.9846    0.1622 H         1 <0>         0.1333
     27 H8         -4.3580   -4.5308    0.0298 H         1 <0>         0.1548
@<TRIPOS>BOND
     1    1    2 1
     2    1   20 1
     3    1   21 1
     4    1   22 1
     5    2    3 1
     6    2    4 2
     7    4    5 1
     8    4   18 1
     9    5    6 am
    10    5   17 2
    11    6    7 1
    12    6   23 1
    13    7   12 ar
    14    7    8 ar
    15    8    9 ar
    16    8   24 1
    17    9   10 ar
    18    9   25 1
    19   10   11 ar
    20   10   13 1
    21   11   12 ar
    22   11   26 1
    23   12   27 1
    24   13   14 1
    25   13   15 1
    26   13   16 1
    27   18   19 3
