@<TRIPOS>MOLECULE
ZINC03775575
   68    71     0     0     0
SMALL
NO_CHARGES

@<TRIPOS>ATOM
      1 C1         -0.1332    0.9866   -0.0935 C.3       1 <0>        -0.1195
      2 C2         -0.1527   -0.5035    0.1302 C.ar      1 <0>        -0.0470
      3 C3         -0.2460   -1.3404   -0.9367 C.ar      1 <0>        -0.1024
      4 C4         -0.2657   -2.7335   -0.7415 C.ar      1 <0>        -0.0347
      5 C5         -0.1872   -3.2551    0.5719 C.ar      1 <0>        -0.0297
      6 C6         -0.2086   -4.7079    0.7624 C.ar      1 <0>        -0.2039
      7 C7         -0.3063   -5.5287   -0.3656 C.ar      1 <0>         0.1689
      8 C8         -0.3813   -4.9639   -1.6442 C.ar      1 <0>         0.0750
      9 C9         -0.3627   -3.6149   -1.8332 C.ar      1 <0>        -0.0411
     10 C10        -0.4467   -3.0593   -3.2316 C.3       1 <0>        -0.0595
     11 C11         0.7028   -3.6182   -4.0724 C.3       1 <0>        -0.1516
     12 C12        -1.7818   -3.4621   -3.8610 C.3       1 <0>        -0.1487
     13 O1         -0.4752   -5.7829   -2.7254 O.3       1 <0>        -0.4766
     14 O2         -0.3279   -6.8761   -0.2203 O.3       1 <0>        -0.4682
     15 C13        -0.1292   -5.2865    2.1020 C.2       1 <0>         0.3607
     16 O3         -0.2442   -6.4855    2.2531 O.2       1 <0>        -0.4500
     17 C14        -0.0914   -2.3815    1.6623 C.ar      1 <0>         0.1208
     18 C15        -0.0686   -1.0082    1.4362 C.ar      1 <0>        -0.0391
     19 C16         0.0389   -0.0749    2.5810 C.ar      1 <0>        -0.0461
     20 C17         1.3026    0.3395    3.0269 C.ar      1 <0>        -0.0567
     21 C18         1.4264    1.1957    4.0752 C.ar      1 <0>        -0.1031
     22 C19         0.2795    1.6801    4.7303 C.ar      1 <0>        -0.0342
     23 C20        -1.0013    1.2694    4.2899 C.ar      1 <0>        -0.0312
     24 C21        -1.1147    0.3908    3.2051 C.ar      1 <0>         0.1359
     25 O4         -2.3383   -0.0064    2.7694 O.3       1 <0>        -0.4811
     26 C22        -2.1884    1.7809    4.9804 C.ar      1 <0>        -0.2012
     27 C23        -2.0107    2.6597    6.0536 C.ar      1 <0>         0.1673
     28 C24        -0.7222    3.0362    6.4509 C.ar      1 <0>         0.0764
     29 C25         0.3883    2.5670    5.8164 C.ar      1 <0>        -0.0431
     30 C26         1.7523    3.0037    6.2855 C.3       1 <0>        -0.0586
     31 C27         1.8520    4.5288    6.2142 C.3       1 <0>        -0.1518
     32 C28         1.9658    2.5455    7.7295 C.3       1 <0>        -0.1488
     33 O5         -0.5754    3.8922    7.4970 O.3       1 <0>        -0.4763
     34 O6         -3.0900    3.1490    6.7114 O.3       1 <0>        -0.4658
     35 C29        -3.5286    1.3817    4.5565 C.2       1 <0>         0.3587
     36 O7         -4.5042    1.8859    5.0738 O.2       1 <0>        -0.4469
     37 C30         2.5397   -0.1719    2.3347 C.3       1 <0>        -0.1187
     38 O8         -0.0154   -2.8696    2.9275 O.3       1 <0>        -0.4830
     39 H1          0.8960    1.3212   -0.2231 H         1 <0>         0.0749
     40 H2         -0.7087    1.2274   -0.9874 H         1 <0>         0.0721
     41 H3         -0.5729    1.4892    0.7680 H         1 <0>         0.0722
     42 H4         -0.3056   -0.9353   -1.9360 H         1 <0>         0.1397
     43 H5         -0.3754   -1.9722   -3.1955 H         1 <0>         0.0863
     44 H6          0.6315   -4.7053   -4.1084 H         1 <0>         0.0803
     45 H7          0.6421   -3.2163   -5.0838 H         1 <0>         0.0593
     46 H8          1.6540   -3.3312   -3.6239 H         1 <0>         0.0528
     47 H9         -1.8426   -3.0602   -4.8724 H         1 <0>         0.0667
     48 H10        -1.8532   -4.5492   -3.8971 H         1 <0>         0.0587
     49 H11        -2.6008   -3.0639   -3.2620 H         1 <0>         0.0571
     50 H12        -1.3834   -5.9991   -2.9774 H         1 <0>         0.3853
     51 H13        -1.2152   -7.2464   -0.1170 H         1 <0>         0.3976
     52 H14         0.0317   -4.6473    2.9576 H         1 <0>         0.1324
     53 H15         2.4070    1.5045    4.4061 H         1 <0>         0.1398
     54 H16        -2.6683   -0.8070    3.1998 H         1 <0>         0.3955
     55 H17         2.5156    2.5594    5.6467 H         1 <0>         0.0860
     56 H18         1.0887    4.9730    6.8530 H         1 <0>         0.0798
     57 H19         2.8385    4.8446    6.5535 H         1 <0>         0.0593
     58 H20         1.6998    4.8552    5.1854 H         1 <0>         0.0531
     59 H21         1.8948    1.4590    7.7803 H         1 <0>         0.0567
     60 H22         2.9524    2.8614    8.0688 H         1 <0>         0.0665
     61 H23         1.2025    2.9898    8.3683 H         1 <0>         0.0591
     62 H24        -0.5043    3.4545    8.3563 H         1 <0>         0.3850
     63 H25        -3.3748    2.6056    7.4588 H         1 <0>         0.3953
     64 H26        -3.6512    0.6381    3.7829 H         1 <0>         0.1327
     65 H27         2.8051    0.5020    1.5201 H         1 <0>         0.0775
     66 H28         3.3619   -0.2202    3.0487 H         1 <0>         0.0736
     67 H29         2.3470   -1.1673    1.9346 H         1 <0>         0.0662
     68 H30         0.8876   -3.0316    3.2331 H         1 <0>         0.3935
@<TRIPOS>BOND
     1    1    2 1
     2    1   39 1
     3    1   40 1
     4    1   41 1
     5    2   18 ar
     6    2    3 ar
     7    3    4 ar
     8    3   42 1
     9    4    9 ar
    10    4    5 ar
    11    5    6 ar
    12    5   17 ar
    13    6    7 ar
    14    6   15 1
    15    7    8 ar
    16    7   14 1
    17    8    9 ar
    18    8   13 1
    19    9   10 1
    20   10   11 1
    21   10   12 1
    22   10   43 1
    23   11   44 1
    24   11   45 1
    25   11   46 1
    26   12   47 1
    27   12   48 1
    28   12   49 1
    29   13   50 1
    30   14   51 1
    31   15   16 2
    32   15   52 1
    33   17   18 ar
    34   17   38 1
    35   18   19 1
    36   19   24 ar
    37   19   20 ar
    38   20   21 ar
    39   20   37 1
    40   21   22 ar
    41   21   53 1
    42   22   29 ar
    43   22   23 ar
    44   23   24 ar
    45   23   26 ar
    46   24   25 1
    47   25   54 1
    48   26   27 ar
    49   26   35 1
    50   27   28 ar
    51   27   34 1
    52   28   29 ar
    53   28   33 1
    54   29   30 1
    55   30   31 1
    56   30   32 1
    57   30   55 1
    58   31   56 1
    59   31   57 1
    60   31   58 1
    61   32   59 1
    62   32   60 1
    63   32   61 1
    64   33   62 1
    65   34   63 1
    66   35   36 2
    67   35   64 1
    68   37   65 1
    69   37   66 1
    70   37   67 1
    71   38   68 1
