@<TRIPOS>MOLECULE
ZINC40873910
   20    19     0     0     0
SMALL
USER_CHARGES

@<TRIPOS>ATOM
      1 C1         -0.0184    1.5028    0.0103 C.3       1 <0>        -0.0242
      2 C2          0.0021   -0.0041    0.0020 C.2       1 <0>         0.5012
      3 O1          1.0605   -0.5961   -0.0113 O.2       1 <0>        -0.5282
      4 N1         -1.1558   -0.6938    0.0094 N.am      1 <0>        -0.6914
      5 C3         -1.1360   -2.1586    0.0013 C.3       1 <0>         0.1090
      6 C4         -2.5498   -2.6802    0.0120 C.2       1 <0>         0.5187
      7 O2         -3.4822   -1.9047    0.0251 O.2       1 <0>        -0.5159
      8 N2         -2.7780   -4.0085    0.0071 N.am      1 <0>        -0.5859
      9 O3         -4.1065   -4.4986    0.0171 O.3       1 <0>        -0.3066
     10 N3          1.3598    2.0112   -0.0001 N.4       1 <0>        -0.6206
     11 H1         -0.5455    1.8639   -0.8728 H         1 <0>         0.1680
     12 H2         -0.5286    1.8543    0.9071 H         1 <0>         0.1680
     13 H3         -2.0023   -0.2203    0.0200 H         1 <0>         0.4245
     14 H4         -0.6258   -2.5101   -0.8955 H         1 <0>         0.1183
     15 H5         -0.6088   -2.5197    0.8844 H         1 <0>         0.1183
     16 H6         -2.0323   -4.6287   -0.0034 H         1 <0>         0.4153
     17 H7         -4.1697   -5.4636    0.0125 H         1 <0>         0.3988
     18 H8          1.8478    1.6770    0.8173 H         1 <0>         0.4429
     19 H9          1.8321    1.6858   -0.8303 H         1 <0>         0.4430
     20 H10         1.3461    3.0201    0.0054 H         1 <0>         0.4470
@<TRIPOS>BOND
     1    1    2 1
     2    1   10 1
     3    1   11 1
     4    1   12 1
     5    2    3 2
     6    2    4 am
     7    4    5 1
     8    4   13 1
     9    5    6 1
    10    5   14 1
    11    5   15 1
    12    6    7 2
    13    6    8 am
    14    8    9 1
    15    8   16 1
    16    9   17 1
    17   10   18 1
    18   10   19 1
    19   10   20 1
