@<TRIPOS>MOLECULE
ZINC20330769
   25    25     0     0     0
SMALL
USER_CHARGES

@<TRIPOS>ATOM
      1 C1         -0.0167    1.3776    0.0096 C.ar      1 <0>        -0.2189
      2 C2          1.1849    2.0698    0.0019 C.ar      1 <0>        -0.0778
      3 C3          2.3651    1.3426   -0.0133 C.ar      1 <0>        -0.0974
      4 C4          2.3054   -0.0383   -0.0202 C.ar      1 <0>         0.2026
      5 N1          1.1443   -0.6632   -0.0129 N.ar      1 <0>        -0.4933
      6 C5          0.0021   -0.0041    0.0020 C.ar      1 <0>         0.0694
      7 C6          3.6964    2.0488   -0.0227 C.3       1 <0>        -0.0587
      8 C7          4.1610    2.2805    1.4165 C.3       1 <0>        -1.0232
      9 O1          3.2001    3.0846    2.1036 O.3       1 <0>        -0.5126
     10 P1          4.3300    0.6765    2.2662 P.3       1 <0>         2.2096
     11 O2          2.9224   -0.0003    2.3889 O.2       1 <0>        -1.1551
     12 O3          5.2860   -0.2523    1.4430 O.3       1 <0>        -1.1595
     13 O4          4.9267    0.9037    3.6968 O.3       1 <0>        -1.1738
     14 P2          5.7714    3.1348    1.4051 P.3       1 <0>         2.2736
     15 O5          6.8103    2.2654    0.6622 O.2       1 <0>        -1.0950
     16 O6          5.6282    4.4942    0.6850 O.3       1 <0>        -1.1341
     17 O7          6.2603    3.3787    2.9196 O.3       1 <0>        -0.8692
     18 H1         -0.9552    1.9117    0.0259 H         1 <0>         0.1028
     19 H2          1.2009    3.1496    0.0072 H         1 <0>         0.1051
     20 H3          3.2203   -0.6121   -0.0320 H         1 <0>         0.1604
     21 H4         -0.9294   -0.5505    0.0083 H         1 <0>         0.1257
     22 H5          4.4293    1.4355   -0.5468 H         1 <0>         0.0836
     23 H6          3.5953    3.0079   -0.5308 H         1 <0>         0.0435
     24 H7          3.0587    3.9546    1.7058 H         1 <0>         0.3114
     25 H8          7.1126    3.8300    2.9899 H         1 <0>         0.3810
@<TRIPOS>BOND
     1    1    6 ar
     2    1    2 ar
     3    1   18 1
     4    2    3 ar
     5    2   19 1
     6    3    4 ar
     7    3    7 1
     8    4    5 ar
     9    4   20 1
    10    5    6 ar
    11    6   21 1
    12    7    8 1
    13    7   22 1
    14    7   23 1
    15    8    9 1
    16    8   10 1
    17    8   14 1
    18    9   24 1
    19   10   11 2
    20   10   12 1
    21   10   13 1
    22   14   15 2
    23   14   16 1
    24   14   17 1
    25   17   25 1
@<TRIPOS>MOLECULE
ZINC20330769
   26    26     0     0     0
SMALL
USER_CHARGES

@<TRIPOS>ATOM
      1 C1         -0.0167    1.3776    0.0096 C.ar      1 <0>        -0.1773
      2 C2          1.1849    2.0698    0.0019 C.ar      1 <0>         0.0283
      3 C3          2.3651    1.3426   -0.0133 C.ar      1 <0>        -0.1221
      4 C4          2.3054   -0.0383   -0.0202 C.ar      1 <0>         0.1000
      5 N1          1.1443   -0.6632   -0.0129 N.ar      1 <0>        -0.5148
      6 C5          0.0021   -0.0041    0.0020 C.ar      1 <0>         0.0733
      7 C6          3.6964    2.0488   -0.0227 C.3       1 <0>        -0.0571
      8 C7          4.1610    2.2805    1.4165 C.3       1 <0>        -1.0245
      9 O1          4.2934    1.0232    2.0825 O.3       1 <0>        -0.5216
     10 P1          5.7714    3.1348    1.4051 P.3       1 <0>         2.2278
     11 O2          5.6018    4.5455    0.7983 O.2       1 <0>        -1.0644
     12 O3          6.3222    3.2618    2.9126 O.3       1 <0>        -0.8884
     13 O4          6.7773    2.3263    0.5557 O.3       1 <0>        -1.1006
     14 P2          2.9351    3.3063    2.2930 P.3       1 <0>         2.2653
     15 O5          2.7919    4.6658    1.5729 O.2       1 <0>        -1.0708
     16 O6          1.5703    2.5824    2.3027 O.3       1 <0>        -1.0817
     17 O7          3.4240    3.5502    3.8075 O.3       1 <0>        -0.8946
     18 H1         -0.9552    1.9117    0.0259 H         1 <0>         0.1177
     19 H2          1.2009    3.1496    0.0072 H         1 <0>         0.1345
     20 H3          3.2203   -0.6121   -0.0320 H         1 <0>         0.1325
     21 H4         -0.9294   -0.5505    0.0083 H         1 <0>         0.1343
     22 H5          4.4293    1.4355   -0.5468 H         1 <0>         0.0682
     23 H6          3.5953    3.0079   -0.5308 H         1 <0>         0.0890
     24 H7          4.9310    0.4247    1.6698 H         1 <0>         0.3450
     25 H8          2.8185    4.0897    4.3342 H         1 <0>         0.4006
     26 H9          7.1776    3.7072    2.9826 H         1 <0>         0.4013
@<TRIPOS>BOND
     1    1    6 ar
     2    1    2 ar
     3    1   18 1
     4    2    3 ar
     5    2   19 1
     6    3    4 ar
     7    3    7 1
     8    4    5 ar
     9    4   20 1
    10    5    6 ar
    11    6   21 1
    12    7    8 1
    13    7   22 1
    14    7   23 1
    15    8    9 1
    16    8   10 1
    17    8   14 1
    18    9   24 1
    19   10   11 2
    20   10   12 1
    21   10   13 1
    22   12   26 1
    23   14   15 2
    24   14   16 1
    25   14   17 1
    26   17   25 1
