@<TRIPOS>MOLECULE
ZINC03813042
   19    19     0     0     0
SMALL
USER_CHARGES

@<TRIPOS>ATOM
      1 C1         -0.0184    1.5028    0.0103 C.3       1 <0>        -0.1669
      2 C2          0.0021   -0.0041    0.0020 C.2       1 <0>         0.5048
      3 O1          1.0605   -0.5961   -0.0113 O.2       1 <0>        -0.4597
      4 N1         -1.1558   -0.6938    0.0094 N.am      1 <0>        -0.6127
      5 C3         -1.1370   -2.0844    0.0017 C.2       1 <0>         0.2593
      6 N2         -0.1026   -2.9019   -0.0067 N.2       1 <0>        -0.3105
      7 N3         -0.2439   -4.1575   -0.0130 N.2       1 <0>        -0.1075
      8 C4         -1.4599   -4.6659   -0.0111 C.2       1 <0>        -0.5832
      9 S1         -2.4308   -3.1653    0.0083 S.3       1 <0>         0.2359
     10 S2         -1.9811   -6.3490   -0.0183 S.o2      1 <0>         2.7480
     11 O2         -1.9574   -6.7873    1.3333 O.2       1 <0>        -0.9356
     12 O3         -3.1545   -6.4075   -0.8177 O.2       1 <0>        -0.9350
     13 N4         -0.8199   -7.2178   -0.8179 N.pl3     1 <0>        -1.2313
     14 H1          1.0042    1.8801    0.0026 H         1 <0>         0.1076
     15 H2         -0.5455    1.8639   -0.8728 H         1 <0>         0.1002
     16 H3         -0.5286    1.8543    0.9071 H         1 <0>         0.1002
     17 H4         -2.0023   -0.2203    0.0200 H         1 <0>         0.4348
     18 H5         -0.6611   -8.1456   -0.5837 H         1 <0>         0.4284
     19 H6         -0.2986   -6.7988   -1.5204 H         1 <0>         0.4232
@<TRIPOS>BOND
     1    1    2 1
     2    1   14 1
     3    1   15 1
     4    1   16 1
     5    2    3 2
     6    2    4 am
     7    4    5 1
     8    4   17 1
     9    5    9 1
    10    5    6 2
    11    6    7 1
    12    7    8 2
    13    8    9 1
    14    8   10 1
    15   10   11 2
    16   10   12 2
    17   10   13 1
    18   13   18 1
    19   13   19 1
@<TRIPOS>MOLECULE
ZINC03813042
   18    18     0     0     0
SMALL
USER_CHARGES

@<TRIPOS>ATOM
      1 C1         -0.0184    1.5028    0.0103 C.3       1 <0>        -0.1624
      2 C2          0.0021   -0.0041    0.0020 C.2       1 <0>         0.5010
      3 O1          0.0203   -0.6161    1.0490 O.2       1 <0>        -0.4698
      4 N1          0.0001   -0.6716   -1.1688 N.am      1 <0>        -0.6150
      5 C3          0.0189   -2.0622   -1.1765 C.2       1 <0>         0.2229
      6 N2          0.0342   -2.8992   -0.1578 N.2       1 <0>        -0.3133
      7 N3          0.0506   -4.1518   -0.3231 N.2       1 <0>        -0.1306
      8 C4          0.0525   -4.6369   -1.5486 C.2       1 <0>        -0.4261
      9 S1          0.0209   -3.1183   -2.4906 S.3       1 <0>         0.1375
     10 S2          0.0731   -6.3097   -2.1017 S.o2      1 <0>         2.6009
     11 O2         -1.2748   -6.7592   -2.0864 O.2       1 <0>        -1.0365
     12 O3          0.8728   -6.3393   -3.2760 O.2       1 <0>        -1.0415
     13 N4          0.8799   -7.1939   -0.9573 N.2       1 <0>        -1.3126
     14 H1          1.0042    1.8801    0.0026 H         1 <0>         0.1013
     15 H2         -0.5455    1.8639   -0.8728 H         1 <0>         0.0851
     16 H3         -0.5286    1.8543    0.9071 H         1 <0>         0.1022
     17 H4         -0.0145   -0.1822   -2.0061 H         1 <0>         0.4269
     18 H5          0.9999   -8.1489   -1.0779 H         1 <0>         0.3298
@<TRIPOS>BOND
     1    1    2 1
     2    1   14 1
     3    1   15 1
     4    1   16 1
     5    2    3 2
     6    2    4 am
     7    4    5 1
     8    4   17 1
     9    5    9 1
    10    5    6 2
    11    6    7 1
    12    7    8 2
    13    8    9 1
    14    8   10 1
    15   10   11 2
    16   10   12 2
    17   10   13 1
    18   13   18 1
@<TRIPOS>MOLECULE
ZINC00002028
   14    14     0     0     0
SMALL
USER_CHARGES

@<TRIPOS>ATOM
      1 C1         -0.0167    1.3775    0.0096 C.ar      1 <0>        -0.0860
      2 C2          1.1691    2.0869    0.0021 C.ar      1 <0>        -0.1556
      3 C3          2.3821    1.4130   -0.0131 C.ar      1 <0>         0.1220
      4 C4          2.4035    0.0268   -0.0207 C.ar      1 <0>        -0.1743
      5 C5          1.2125   -0.6826   -0.0131 C.ar      1 <0>         0.1220
      6 C6          0.0021   -0.0041    0.0020 C.ar      1 <0>        -0.1556
      7 O1          1.2303   -2.0415   -0.0210 O.3       1 <0>        -0.4973
      8 O2          3.5479    2.1112   -0.0209 O.3       1 <0>        -0.4972
      9 H1         -0.9596    1.9038    0.0259 H         1 <0>         0.1338
     10 H2          1.1518    3.1668    0.0077 H         1 <0>         0.1327
     11 H3          3.3465   -0.4995   -0.0328 H         1 <0>         0.1354
     12 H4         -0.9260   -0.5563    0.0079 H         1 <0>         0.1327
     13 H5          1.2440   -2.4398    0.8601 H         1 <0>         0.3937
     14 H6          3.8939    2.3088    0.8602 H         1 <0>         0.3937
@<TRIPOS>BOND
     1    1    6 ar
     2    1    2 ar
     3    1    9 1
     4    2    3 ar
     5    2   10 1
     6    3    4 ar
     7    3    8 1
     8    4    5 ar
     9    4   11 1
    10    5    6 ar
    11    5    7 1
    12    6   12 1
    13    7   13 1
    14    8   14 1
@<TRIPOS>MOLECULE
ZINC00001504
   17    17     0     0     0
SMALL
USER_CHARGES

@<TRIPOS>ATOM
      1 C1         -0.0167    1.3773    0.0096 C.ar      1 <0>        -0.1008
      2 C2          1.1859    2.0916    0.0020 C.ar      1 <0>        -0.1093
      3 C3          2.4041    1.4044   -0.0134 C.ar      1 <0>        -0.1008
      4 C4          2.4161    0.0229   -0.0209 C.ar      1 <0>         0.0731
      5 C5          1.2168   -0.6855   -0.0137 C.ar      1 <0>         0.0424
      6 C6          0.0021   -0.0041    0.0020 C.ar      1 <0>         0.0741
      7 O1         -1.1668   -0.6993    0.0099 O.3       1 <0>        -0.4936
      8 O2          1.2319   -2.0439   -0.0216 O.3       1 <0>        -0.4848
      9 O3          3.6001   -0.6461   -0.0358 O.3       1 <0>        -0.4884
     10 C7          1.1695    3.5640    0.0095 C.2       1 <0>         0.5214
     11 O4          0.1034    4.1638    0.0225 O.co2     1 <0>        -0.6808
     12 O5          2.2221    4.1875    0.0028 O.co2     1 <0>        -0.6809
     13 H1         -0.9588    1.9051    0.0260 H         1 <0>         0.1414
     14 H2          3.3343    1.9531   -0.0196 H         1 <0>         0.1412
     15 H3         -1.5136   -0.8957   -0.8712 H         1 <0>         0.3861
     16 H4          1.2445   -2.4422    0.8595 H         1 <0>         0.3793
     17 H5          3.9509   -0.8443    0.8433 H         1 <0>         0.3804
@<TRIPOS>BOND
     1    1    6 ar
     2    1    2 ar
     3    1   13 1
     4    2    3 ar
     5    2   10 1
     6    3    4 ar
     7    3   14 1
     8    4    5 ar
     9    4    9 1
    10    5    6 ar
    11    5    8 1
    12    6    7 1
    13    7   15 1
    14    8   16 1
    15    9   17 1
    16   10   11 2
    17   10   12 1
@<TRIPOS>MOLECULE
ZINC00330141
   15    15     0     0     0
SMALL
USER_CHARGES

@<TRIPOS>ATOM
      1 C1         -0.0167    1.3781    0.0096 C.ar      1 <0>        -0.0940
      2 C2          1.1687    2.0892    0.0021 C.ar      1 <0>        -0.1399
      3 C3          2.3819    1.4179   -0.0135 C.ar      1 <0>         0.0957
      4 C4          2.4051    0.0284   -0.0211 C.ar      1 <0>         0.0526
      5 C5          1.2111   -0.6829   -0.0131 C.ar      1 <0>         0.0957
      6 C6          0.0021   -0.0041    0.0020 C.ar      1 <0>        -0.1399
      7 O1          1.2285   -2.0427   -0.0209 O.3       1 <0>        -0.4854
      8 O2          3.5938   -0.6341   -0.0369 O.3       1 <0>        -0.4765
      9 O3          3.5476    2.1185   -0.0218 O.3       1 <0>        -0.4854
     10 H1         -0.9599    1.9038    0.0260 H         1 <0>         0.1374
     11 H2          1.1498    3.1690    0.0081 H         1 <0>         0.1377
     12 H3         -0.9262   -0.5560    0.0082 H         1 <0>         0.1377
     13 H4          1.2425   -2.4410    0.8601 H         1 <0>         0.3900
     14 H5          3.9465   -0.8303    0.8419 H         1 <0>         0.3843
     15 H6          3.8936    2.3166    0.8592 H         1 <0>         0.3900
@<TRIPOS>BOND
     1    1    6 ar
     2    1    2 ar
     3    1   10 1
     4    2    3 ar
     5    2   11 1
     6    3    4 ar
     7    3    9 1
     8    4    5 ar
     9    4    8 1
    10    5    6 ar
    11    5    7 1
    12    6   12 1
    13    7   13 1
    14    8   14 1
    15    9   15 1
@<TRIPOS>MOLECULE
ZINC00013246
   16    16     0     0     0
SMALL
USER_CHARGES

@<TRIPOS>ATOM
      1 C1         -0.0169    1.3941    0.0097 C.ar      1 <0>        -0.0778
      2 C2          1.1667    2.0988    0.0022 C.ar      1 <0>        -0.1480
      3 C3          2.3803    1.4243   -0.0135 C.ar      1 <0>         0.0645
      4 C4          2.4071    0.0296   -0.0212 C.ar      1 <0>         0.0578
      5 C5          1.2253   -0.6836   -0.0138 C.ar      1 <0>        -0.0946
      6 C6          0.0021   -0.0041    0.0020 C.ar      1 <0>        -0.1246
      7 C7         -1.2618   -0.7594    0.0105 C.2       1 <0>         0.5201
      8 O1         -2.3303   -0.1638    0.0243 O.co2     1 <0>        -0.6838
      9 O2         -1.2434   -1.9826    0.0038 O.co2     1 <0>        -0.6840
     10 O3          3.5977   -0.6275   -0.0366 O.3       1 <0>        -0.4911
     11 O4          3.5436    2.1239   -0.0217 O.3       1 <0>        -0.4917
     12 H1         -0.9593    1.9214    0.0260 H         1 <0>         0.1350
     13 H2          1.1507    3.1787    0.0081 H         1 <0>         0.1257
     14 H3          1.2447   -1.7634   -0.0205 H         1 <0>         0.1374
     15 H4          3.9508   -0.8223    0.8423 H         1 <0>         0.3777
     16 H5          3.8896    2.3221    0.8592 H         1 <0>         0.3773
@<TRIPOS>BOND
     1    1    6 ar
     2    1    2 ar
     3    1   12 1
     4    2    3 ar
     5    2   13 1
     6    3    4 ar
     7    3   11 1
     8    4    5 ar
     9    4   10 1
    10    5    6 ar
    11    5   14 1
    12    6    7 1
    13    7    8 2
    14    7    9 1
    15   10   15 1
    16   11   16 1
@<TRIPOS>MOLECULE
ZINC00332752
   15    15     0     0     0
SMALL
USER_CHARGES

@<TRIPOS>ATOM
      1 C1         -0.0169    1.3948    0.0097 C.ar      1 <0>        -0.0719
      2 C2          1.1668    2.0970    0.0022 C.ar      1 <0>        -0.1621
      3 C3          2.3803    1.4181   -0.0135 C.ar      1 <0>         0.0845
      4 C4          2.4040    0.0278   -0.0217 C.ar      1 <0>        -0.1621
      5 C5          1.2254   -0.6827   -0.0142 C.ar      1 <0>        -0.0719
      6 C6          0.0021   -0.0041    0.0020 C.ar      1 <0>        -0.1403
      7 C7         -1.2616   -0.7598    0.0105 C.2       1 <0>         0.5192
      8 O1         -2.3302   -0.1645    0.0243 O.co2     1 <0>        -0.6869
      9 O2         -1.2429   -1.9830    0.0038 O.co2     1 <0>        -0.6870
     10 O3          3.5446    2.1144   -0.0213 O.3       1 <0>        -0.5035
     11 H1         -0.9589    1.9228    0.0260 H         1 <0>         0.1309
     12 H2          1.1531    3.1769    0.0081 H         1 <0>         0.1198
     13 H3          3.3488   -0.4952   -0.0342 H         1 <0>         0.1198
     14 H4          1.2447   -1.7625   -0.0213 H         1 <0>         0.1309
     15 H5          3.8909    2.3116    0.8597 H         1 <0>         0.3806
@<TRIPOS>BOND
     1    1    6 ar
     2    1    2 ar
     3    1   11 1
     4    2    3 ar
     5    2   12 1
     6    3    4 ar
     7    3   10 1
     8    4    5 ar
     9    4   13 1
    10    5    6 ar
    11    5   14 1
    12    6    7 1
    13    7    8 2
    14    7    9 1
    15   10   15 1
@<TRIPOS>MOLECULE
ZINC05133378
   14    14     0     0     0
SMALL
USER_CHARGES

@<TRIPOS>ATOM
      1 C1         -0.0167    1.3828    0.0096 C.ar      1 <0>        -0.1290
      2 C2          1.1700    2.0896    0.0021 C.ar      1 <0>        -0.1290
      3 C3          2.3804    1.4126   -0.0130 C.ar      1 <0>         0.0956
      4 C4          2.3992    0.0257   -0.0202 C.ar      1 <0>        -0.1290
      5 C5          1.2125   -0.6811   -0.0117 C.ar      1 <0>        -0.1290
      6 C6          0.0021   -0.0041    0.0020 C.ar      1 <0>         0.0956
      7 O1         -1.1662   -0.6999    0.0098 O.3       1 <0>        -0.4988
      8 O2          3.5486    2.1084   -0.0214 O.3       1 <0>        -0.4988
      9 H1         -0.9592    1.9099    0.0260 H         1 <0>         0.1343
     10 H2          1.1553    3.1695    0.0077 H         1 <0>         0.1342
     11 H3          3.3417   -0.5015   -0.0327 H         1 <0>         0.1343
     12 H4          1.2271   -1.7610   -0.0180 H         1 <0>         0.1342
     13 H5         -1.5128   -0.8965   -0.8712 H         1 <0>         0.3927
     14 H6          3.8953    2.3056    0.8596 H         1 <0>         0.3927
@<TRIPOS>BOND
     1    1    6 ar
     2    1    2 ar
     3    1    9 1
     4    2    3 ar
     5    2   10 1
     6    3    4 ar
     7    3    8 1
     8    4    5 ar
     9    4   11 1
    10    5    6 ar
    11    5   12 1
    12    6    7 1
    13    7   13 1
    14    8   14 1
@<TRIPOS>MOLECULE
ZINC00388546
   16    16     0     0     0
SMALL
USER_CHARGES
3,5-dihydroxybenzoic acid
@<TRIPOS>ATOM
      1 C1          2.4040    0.0171   -0.0203 C.ar      1 <0>        -0.1155
      2 C2          2.3899    1.4126   -0.0131 C.ar      1 <0>        -0.0844
      3 C3          1.1719    2.0939    0.0021 C.ar      1 <0>        -0.1062
      4 C4         -0.0167    1.3832    0.0096 C.ar      1 <0>         0.0953
      5 C5          0.0021   -0.0041    0.0020 C.ar      1 <0>        -0.1744
      6 C6          1.2105   -0.6855   -0.0127 C.ar      1 <0>         0.0959
      7 O1          1.2230   -2.0445   -0.0201 O.3       1 <0>        -0.4993
      8 O2         -1.2034    2.0456    0.0189 O.3       1 <0>        -0.4991
      9 C7          3.6606    2.1665   -0.0212 C.2       1 <0>         0.4900
     10 O3          4.7196    1.5717   -0.0341 O.co2     1 <0>        -0.6258
     11 H1          3.3442   -0.5142   -0.0321 H         1 <0>         0.1363
     12 H2          1.1564    3.1738    0.0077 H         1 <0>         0.1401
     13 H3         -0.9267   -0.5551    0.0079 H         1 <0>         0.1264
     14 H4          1.2186   -2.4331   -0.9056 H         1 <0>         0.3845
     15 H5         -1.5427    2.2325    0.9049 H         1 <0>         0.3847
     16 O4          3.6446    3.5135   -0.0142 O.co2     1 <0>        -0.7485
@<TRIPOS>BOND
     1    1    6 ar
     2    1    2 ar
     3    1   11 1
     4    2    3 ar
     5    2    9 1
     6    3    4 ar
     7    3   12 1
     8    4    5 ar
     9    4    8 1
    10    5    6 ar
    11    5   13 1
    12    6    7 1
    13    7   14 1
    14    8   15 1
    15    9   10 2
    16    9   16 1
