@<TRIPOS>MOLECULE
ZINC29136213
   39    43     0     0     0
SMALL
USER_CHARGES
2-(6-chloro-1H-phenanthro[9,10-d]imidazol-2-yl)benzene-1,3-dicarbonitrile
@<TRIPOS>ATOM
      1 C1         -2.8499   11.1210   -0.1519 C.ar      1 <0>        -0.1066
      2 C2         -3.5503    9.9232   -0.2140 C.ar      1 <0>        -0.1052
      3 C3         -2.8939    8.7274   -0.1693 C.ar      1 <0>        -0.1112
      4 C4         -1.4980    8.6990   -0.0596 C.ar      1 <0>        -0.0109
      5 C5         -0.7834    9.9138    0.0038 C.ar      1 <0>        -0.0207
      6 C6         -1.4778   11.1248   -0.0439 C.ar      1 <0>        -0.0984
      7 C7          0.6814    9.8930    0.1185 C.ar      1 <0>        -0.0294
      8 C8          1.4080   11.0849    0.1821 C.ar      1 <0>        -0.0941
      9 C9          2.7805   11.0423    0.2890 C.ar      1 <0>        -0.0289
     10 C10         3.4471    9.8238    0.3339 C.ar      1 <0>        -0.1037
     11 C11         2.7558    8.6478    0.2731 C.ar      1 <0>        -0.0766
     12 C12         1.3623    8.6610    0.1644 C.ar      1 <0>         0.0115
     13 C13         0.6067    7.4015    0.0976 C.ar      1 <0>         0.0636
     14 C14        -0.7807    7.4268   -0.0110 C.ar      1 <0>         0.0491
     15 N1         -1.1928    6.1162   -0.0568 N.pl3     1 <0>        -0.5691
     16 H1         -2.2630    5.8791   -0.1491 H         1 <0>         0.4475
     17 C15        -0.0704    5.3391    0.0314 C.2       1 <0>         0.2519
     18 N2          0.9874    6.1134    0.1193 N.2       1 <0>        -0.4330
     19 C16        -0.0504    3.8650    0.0228 C.ar      1 <0>         0.0794
     20 C17         1.1729    3.1717   -0.0396 C.ar      1 <0>         0.0186
     21 C18         1.1768    1.7765   -0.0465 C.ar      1 <0>        -0.0346
     22 C19        -0.0125    1.0758    0.0080 C.ar      1 <0>        -0.1077
     23 C20        -1.2207    1.7433    0.0642 C.ar      1 <0>        -0.0338
     24 C21        -1.2544    3.1381    0.0774 C.ar      1 <0>        -0.0302
     25 C22        -2.5084    3.8268    0.1407 C.1       1 <0>         0.2598
     26 N3         -3.5031    4.3731    0.1910 N.1       1 <0>        -0.4021
     27 C23         2.4077    3.8948   -0.0952 C.1       1 <0>         0.2471
     28 N4          3.3872    4.4684   -0.1393 N.1       1 <0>        -0.3734
     29 Cl1         3.6846   12.5221    0.3676 Cl        1 <0>        -0.0630
     30 H2         -3.3865   12.0575   -0.1890 H         1 <0>         0.1329
     31 H3         -4.6269    9.9383   -0.2990 H         1 <0>         0.1306
     32 H4         -3.4508    7.8033   -0.2188 H         1 <0>         0.1195
     33 H5         -0.9403   12.0603    0.0043 H         1 <0>         0.1368
     34 H6          0.8958   12.0350    0.1480 H         1 <0>         0.1430
     35 H7          4.5237    9.8068    0.4175 H         1 <0>         0.1393
     36 H8          3.2857    7.7074    0.3086 H         1 <0>         0.1441
     37 H9          2.1140    1.2418   -0.0943 H         1 <0>         0.1532
     38 H10         0.0021   -0.0041    0.0020 H         1 <0>         0.1545
     39 H11        -2.1432    1.1829    0.1019 H         1 <0>         0.1505
@<TRIPOS>BOND
     1    1    6 ar
     2    1    2 ar
     3    1   30 1
     4    2    3 ar
     5    2   31 1
     6    3    4 ar
     7    3   32 1
     8    4   14 ar
     9    4    5 ar
    10    5    6 ar
    11    5    7 ar
    12    6   33 1
    13    7   12 ar
    14    7    8 ar
    15    8    9 ar
    16    8   34 1
    17    9   10 ar
    18    9   29 1
    19   10   11 ar
    20   10   35 1
    21   11   12 ar
    22   11   36 1
    23   12   13 ar
    24   13   18 1
    25   13   14 ar
    26   14   15 1
    27   15   16 1
    28   15   17 1
    29   17   18 2
    30   17   19 1
    31   19   24 ar
    32   19   20 ar
    33   20   21 ar
    34   20   27 1
    35   21   22 ar
    36   21   37 1
    37   22   23 ar
    38   22   38 1
    39   23   24 ar
    40   23   39 1
    41   24   25 1
    42   25   26 3
    43   27   28 3
