@<TRIPOS>MOLECULE
ZINC03783066
   69    73     0     0     0
SMALL
USER_CHARGES

@<TRIPOS>ATOM
      1 C1         -0.2101    1.4175   -4.4385 C.3       1 <0>        -0.1032
      2 C2         -0.1304    0.0033   -3.9241 C.ar      1 <0>        -0.0980
      3 C3          0.5410   -0.9602   -4.6513 C.ar      1 <0>        -0.0941
      4 C4          0.6141   -2.2580   -4.1803 C.ar      1 <0>        -0.1139
      5 C5          0.0161   -2.5962   -2.9800 C.ar      1 <0>        -0.0938
      6 C6         -0.6564   -1.6379   -2.2477 C.ar      1 <0>        -0.1193
      7 C7         -0.7273   -0.3316   -2.7155 C.ar      1 <0>         0.1758
      8 N1         -1.4021    0.6415   -1.9748 N.pl3     1 <0>        -0.6867
      9 C8         -0.6798    1.4341   -0.9767 C.3       1 <0>         0.1172
     10 C9         -2.8323    0.8694   -2.1960 C.3       1 <0>         0.1183
     11 C10         1.3467   -3.3067   -4.9770 C.3       1 <0>         0.1474
     12 N2          2.7527   -3.3381   -4.5665 N.pl3     1 <0>        -0.4464
     13 C11         3.7775   -2.6802   -5.1560 C.2       1 <0>         0.1635
     14 N3          4.8801   -2.9513   -4.5073 N.2       1 <0>        -0.4772
     15 C12         4.6007   -3.7784   -3.4977 C.2       1 <0>        -0.0264
     16 C13         3.2742   -4.0305   -3.5158 C.2       1 <0>         0.0117
     17 C14         2.5550   -4.9247   -2.5403 C.3       1 <0>        -0.0457
     18 C15         3.4421   -5.1232   -1.3045 C.3       1 <0>         0.0858
     19 H1          3.4285   -4.2183   -0.6970 H         1 <0>         0.0631
     20 N4          4.8186   -5.4024   -1.7400 N.am      1 <0>        -0.5941
     21 C16         5.5502   -4.3574   -2.4758 C.3       1 <0>         0.2048
     22 C17         5.3982   -6.5903   -1.4767 C.2       1 <0>         0.5028
     23 O1          4.7536   -7.4784   -0.9603 O.2       1 <0>        -0.4450
     24 C18         6.8474   -6.8150   -1.8238 C.3       1 <0>        -0.0317
     25 C19         7.7019   -5.8204   -1.0811 C.ar      1 <0>        -0.0647
     26 C20         7.4999   -5.6083    0.2698 C.ar      1 <0>        -0.1008
     27 C21         8.2837   -4.6959    0.9510 C.ar      1 <0>        -0.1149
     28 C22         9.2698   -3.9959    0.2814 C.ar      1 <0>        -0.1231
     29 C23         9.4724   -4.2086   -1.0694 C.ar      1 <0>        -0.1197
     30 C24         8.6914   -5.1241   -1.7497 C.ar      1 <0>        -0.1111
     31 C25         7.2472   -8.2136   -1.4299 C.ar      1 <0>        -0.0567
     32 C26         7.0645   -8.6443   -0.1292 C.ar      1 <0>        -0.0721
     33 C27         7.4312   -9.9272    0.2321 C.ar      1 <0>        -0.1224
     34 C28         7.9803  -10.7796   -0.7075 C.ar      1 <0>        -0.1225
     35 C29         8.1623  -10.3492   -2.0085 C.ar      1 <0>        -0.1287
     36 C30         7.7915   -9.0677   -2.3708 C.ar      1 <0>        -0.1114
     37 C31         2.9237   -6.2825   -0.4931 C.2       1 <0>         0.5181
     38 O2          2.6297   -7.3294   -1.0445 O.co2     1 <0>        -0.6612
     39 O3          2.7984   -6.1736    0.7148 O.co2     1 <0>        -0.7014
     40 H2          0.6424    1.9872   -4.0687 H         1 <0>         0.0652
     41 H3         -0.1962    1.4091   -5.5284 H         1 <0>         0.0606
     42 H4         -1.1341    1.8792   -4.0905 H         1 <0>         0.0670
     43 H5          1.0091   -0.6994   -5.5890 H         1 <0>         0.1214
     44 H6          0.0747   -3.6110   -2.6151 H         1 <0>         0.1287
     45 H7         -1.1235   -1.9027   -1.3107 H         1 <0>         0.1252
     46 H8          0.1251    1.9849   -1.4633 H         1 <0>         0.0392
     47 H9         -1.3666    2.1364   -0.5041 H         1 <0>         0.0644
     48 H10        -0.2607    0.7709   -0.2200 H         1 <0>         0.0421
     49 H11        -3.4097    0.2251   -1.5331 H         1 <0>         0.0336
     50 H12        -3.0705    1.9124   -1.9872 H         1 <0>         0.0561
     51 H13        -3.0807    0.6404   -3.2324 H         1 <0>         0.0530
     52 H14         0.8939   -4.2818   -4.7972 H         1 <0>         0.0997
     53 H15         1.2833   -3.0669   -6.0383 H         1 <0>         0.1013
     54 H16         3.6980   -2.0372   -6.0201 H         1 <0>         0.1997
     55 H17         1.6144   -4.4603   -2.2440 H         1 <0>         0.0714
     56 H18         2.3571   -5.8898   -3.0068 H         1 <0>         0.0908
     57 H19         6.4188   -4.7847   -2.9768 H         1 <0>         0.0877
     58 H20         5.8670   -3.5795   -1.7811 H         1 <0>         0.0703
     59 H21         6.9883   -6.6854   -2.8968 H         1 <0>         0.1021
     60 H22         6.7295   -6.1552    0.7930 H         1 <0>         0.1248
     61 H23         8.1254   -4.5297    2.0064 H         1 <0>         0.1210
     62 H24         9.8817   -3.2825    0.8134 H         1 <0>         0.1180
     63 H25        10.2426   -3.6614   -1.5927 H         1 <0>         0.1200
     64 H26         8.8522   -5.2930   -2.8042 H         1 <0>         0.1217
     65 H27         6.6355   -7.9784    0.6049 H         1 <0>         0.1227
     66 H28         7.2891  -10.2635    1.2485 H         1 <0>         0.1191
     67 H29         8.2675  -11.7817   -0.4251 H         1 <0>         0.1162
     68 H30         8.5916  -11.0150   -2.7425 H         1 <0>         0.1172
     69 H31         7.9302   -8.7327   -3.3881 H         1 <0>         0.1174
@<TRIPOS>BOND
     1    1    2 1
     2    1   40 1
     3    1   41 1
     4    1   42 1
     5    2    7 ar
     6    2    3 ar
     7    3    4 ar
     8    3   43 1
     9    4    5 ar
    10    4   11 1
    11    5    6 ar
    12    5   44 1
    13    6    7 ar
    14    6   45 1
    15    7    8 1
    16    8    9 1
    17    8   10 1
    18    9   46 1
    19    9   47 1
    20    9   48 1
    21   10   49 1
    22   10   50 1
    23   10   51 1
    24   11   12 1
    25   11   52 1
    26   11   53 1
    27   12   16 1
    28   12   13 1
    29   13   14 2
    30   13   54 1
    31   14   15 1
    32   15   21 1
    33   15   16 2
    34   16   17 1
    35   17   18 1
    36   17   55 1
    37   17   56 1
    38   18   19 1
    39   18   20 1
    40   18   37 1
    41   20   21 1
    42   20   22 am
    43   21   57 1
    44   21   58 1
    45   22   23 2
    46   22   24 1
    47   24   25 1
    48   24   31 1
    49   24   59 1
    50   25   30 ar
    51   25   26 ar
    52   26   27 ar
    53   26   60 1
    54   27   28 ar
    55   27   61 1
    56   28   29 ar
    57   28   62 1
    58   29   30 ar
    59   29   63 1
    60   30   64 1
    61   31   36 ar
    62   31   32 ar
    63   32   33 ar
    64   32   65 1
    65   33   34 ar
    66   33   66 1
    67   34   35 ar
    68   34   67 1
    69   35   36 ar
    70   35   68 1
    71   36   69 1
    72   37   38 2
    73   37   39 1
