@<TRIPOS>MOLECULE
ZINC00213065
   18    18     0     0     0
SMALL
USER_CHARGES
2-(4-hydroxyphenyl)acetic acid
@<TRIPOS>ATOM
      1 C1         -2.9894    0.5002   -1.1792 C.ar      1 <0>        -0.1011
      2 C2         -4.0234   -0.4159   -1.1819 C.ar      1 <0>        -0.1418
      3 C3         -4.5396   -0.8811    0.0188 C.ar      1 <0>         0.0749
      4 C4         -4.0120   -0.4290    1.2196 C.ar      1 <0>        -0.1419
      5 C5         -2.9743    0.4829    1.2169 C.ar      1 <0>        -0.1008
      6 C6         -2.4615    0.9450    0.0189 C.ar      1 <0>        -0.0352
      7 C7         -1.3295    1.9397    0.0189 C.3       1 <0>        -0.1323
      8 C8         -0.0143    1.2041    0.0087 C.2       1 <0>         0.4646
      9 O1          0.0021   -0.0041    0.0020 O.co2     1 <0>        -0.6297
     10 O2         -5.5602   -1.7785    0.0187 O.3       1 <0>        -0.5015
     11 H1         -2.5903    0.8663   -2.1136 H         1 <0>         0.1211
     12 H2         -4.4324   -0.7664   -2.1180 H         1 <0>         0.1211
     13 H3         -4.4124   -0.7894    2.1556 H         1 <0>         0.1211
     14 H4         -2.5630    0.8349    2.1514 H         1 <0>         0.1211
     15 H5         -1.3915    2.5607    0.9126 H         1 <0>         0.0766
     16 H6         -1.4000    2.5704   -0.8673 H         1 <0>         0.0768
     17 H7         -6.4389   -1.3748    0.0253 H         1 <0>         0.3792
     18 O3          1.1389    1.8910    0.0013 O.co2     1 <0>        -0.7721
@<TRIPOS>BOND
     1    1    6 ar
     2    1    2 ar
     3    1   11 1
     4    2    3 ar
     5    2   12 1
     6    3    4 ar
     7    3   10 1
     8    4    5 ar
     9    4   13 1
    10    5    6 ar
    11    5   14 1
    12    6    7 1
    13    7    8 1
    14    7   15 1
    15    7   16 1
    16    8    9 2
    17    8   18 1
    18   10   17 1
@<TRIPOS>MOLECULE
ZINC03813042
   19    19     0     0     0
SMALL
USER_CHARGES

@<TRIPOS>ATOM
      1 C1         -0.0184    1.5028    0.0103 C.3       1 <0>        -0.1669
      2 C2          0.0021   -0.0041    0.0020 C.2       1 <0>         0.5048
      3 O1          1.0605   -0.5961   -0.0113 O.2       1 <0>        -0.4597
      4 N1         -1.1558   -0.6938    0.0094 N.am      1 <0>        -0.6127
      5 C3         -1.1370   -2.0844    0.0017 C.2       1 <0>         0.2593
      6 N2         -0.1026   -2.9019   -0.0067 N.2       1 <0>        -0.3105
      7 N3         -0.2439   -4.1575   -0.0130 N.2       1 <0>        -0.1075
      8 C4         -1.4599   -4.6659   -0.0111 C.2       1 <0>        -0.5832
      9 S1         -2.4308   -3.1653    0.0083 S.3       1 <0>         0.2359
     10 S2         -1.9811   -6.3490   -0.0183 S.o2      1 <0>         2.7480
     11 O2         -1.9574   -6.7873    1.3333 O.2       1 <0>        -0.9356
     12 O3         -3.1545   -6.4075   -0.8177 O.2       1 <0>        -0.9350
     13 N4         -0.8199   -7.2178   -0.8179 N.pl3     1 <0>        -1.2313
     14 H1          1.0042    1.8801    0.0026 H         1 <0>         0.1076
     15 H2         -0.5455    1.8639   -0.8728 H         1 <0>         0.1002
     16 H3         -0.5286    1.8543    0.9071 H         1 <0>         0.1002
     17 H4         -2.0023   -0.2203    0.0200 H         1 <0>         0.4348
     18 H5         -0.6611   -8.1456   -0.5837 H         1 <0>         0.4284
     19 H6         -0.2986   -6.7988   -1.5204 H         1 <0>         0.4232
@<TRIPOS>BOND
     1    1    2 1
     2    1   14 1
     3    1   15 1
     4    1   16 1
     5    2    3 2
     6    2    4 am
     7    4    5 1
     8    4   17 1
     9    5    9 1
    10    5    6 2
    11    6    7 1
    12    7    8 2
    13    8    9 1
    14    8   10 1
    15   10   11 2
    16   10   12 2
    17   10   13 1
    18   13   18 1
    19   13   19 1
@<TRIPOS>MOLECULE
ZINC03813042
   18    18     0     0     0
SMALL
USER_CHARGES

@<TRIPOS>ATOM
      1 C1         -0.0184    1.5028    0.0103 C.3       1 <0>        -0.1624
      2 C2          0.0021   -0.0041    0.0020 C.2       1 <0>         0.5010
      3 O1          0.0203   -0.6161    1.0490 O.2       1 <0>        -0.4698
      4 N1          0.0001   -0.6716   -1.1688 N.am      1 <0>        -0.6150
      5 C3          0.0189   -2.0622   -1.1765 C.2       1 <0>         0.2229
      6 N2          0.0342   -2.8992   -0.1578 N.2       1 <0>        -0.3133
      7 N3          0.0506   -4.1518   -0.3231 N.2       1 <0>        -0.1306
      8 C4          0.0525   -4.6369   -1.5486 C.2       1 <0>        -0.4261
      9 S1          0.0209   -3.1183   -2.4906 S.3       1 <0>         0.1375
     10 S2          0.0731   -6.3097   -2.1017 S.o2      1 <0>         2.6009
     11 O2         -1.2748   -6.7592   -2.0864 O.2       1 <0>        -1.0365
     12 O3          0.8728   -6.3393   -3.2760 O.2       1 <0>        -1.0415
     13 N4          0.8799   -7.1939   -0.9573 N.2       1 <0>        -1.3126
     14 H1          1.0042    1.8801    0.0026 H         1 <0>         0.1013
     15 H2         -0.5455    1.8639   -0.8728 H         1 <0>         0.0851
     16 H3         -0.5286    1.8543    0.9071 H         1 <0>         0.1022
     17 H4         -0.0145   -0.1822   -2.0061 H         1 <0>         0.4269
     18 H5          0.9999   -8.1489   -1.0779 H         1 <0>         0.3298
@<TRIPOS>BOND
     1    1    2 1
     2    1   14 1
     3    1   15 1
     4    1   16 1
     5    2    3 2
     6    2    4 am
     7    4    5 1
     8    4   17 1
     9    5    9 1
    10    5    6 2
    11    6    7 1
    12    7    8 2
    13    8    9 1
    14    8   10 1
    15   10   11 2
    16   10   12 2
    17   10   13 1
    18   13   18 1
@<TRIPOS>MOLECULE
ZINC00002101
   19    19     0     0     0
SMALL
USER_CHARGES

@<TRIPOS>ATOM
      1 C1         -0.0168    1.3849    0.0097 C.ar      1 <0>        -0.2192
      2 C2          1.1707    2.0901    0.0021 C.ar      1 <0>         0.0295
      3 C3          2.3774    1.4150   -0.0135 C.ar      1 <0>        -0.7336
      4 C4          2.3998    0.0323   -0.0211 C.ar      1 <0>         0.0295
      5 C5          1.2161   -0.6790   -0.0137 C.ar      1 <0>        -0.2192
      6 C6          0.0021   -0.0041    0.0020 C.ar      1 <0>         0.2713
      7 N1         -1.1970   -0.7204    0.0101 N.pl3     1 <0>        -0.8647
      8 S1          3.8900    2.3186   -0.0243 S.o2      1 <0>         2.7050
      9 O1          4.8717    1.4606   -0.5894 O.2       1 <0>        -0.9693
     10 O2          3.5945    3.5988   -0.5657 O.2       1 <0>        -0.9693
     11 N2          4.3264    2.5618    1.5546 N.pl3     1 <0>        -1.2522
     12 H1         -0.9589    1.9127    0.0260 H         1 <0>         0.1318
     13 H2          1.1567    3.1700    0.0080 H         1 <0>         0.1423
     14 H3          3.3440   -0.4918   -0.0333 H         1 <0>         0.1423
     15 H4          1.2342   -1.7588   -0.0200 H         1 <0>         0.1318
     16 H5         -2.0441   -0.2480    0.0210 H         1 <0>         0.4043
     17 H6         -1.1825   -1.6903    0.0047 H         1 <0>         0.4042
     18 H7          3.7678    2.2202    2.2703 H         1 <0>         0.4159
     19 H8          5.1405    3.0458    1.7638 H         1 <0>         0.4195
@<TRIPOS>BOND
     1    1    6 ar
     2    1    2 ar
     3    1   12 1
     4    2    3 ar
     5    2   13 1
     6    3    4 ar
     7    3    8 1
     8    4    5 ar
     9    4   14 1
    10    5    6 ar
    11    5   15 1
    12    6    7 1
    13    7   16 1
    14    7   17 1
    15    8    9 2
    16    8   10 2
    17    8   11 1
    18   11   18 1
    19   11   19 1
@<TRIPOS>MOLECULE
ZINC01530804
   42    44     0     0     0
SMALL
USER_CHARGES

@<TRIPOS>ATOM
      1 C1         -0.1414    1.1782    1.1025 C.3       1 <0>        -0.1657
      2 C2         -0.0047   -0.3406    0.9788 C.3       1 <0>         0.2393
      3 O1          0.4336   -0.6809   -0.3520 O.3       1 <0>        -0.3486
      4 C3          1.8586   -0.8253   -0.2194 C.3       1 <0>         0.0180
      5 H1          2.3279    0.1582   -0.1959 H         1 <0>         0.0955
      6 C4          2.4671   -1.6561   -1.3282 C.3       1 <0>         0.0615
      7 O2          1.9135   -2.9701   -1.3154 O.3       1 <0>        -0.3068
      8 C5          2.1315   -3.6952   -0.1268 C.3       1 <0>         0.2582
      9 C6          1.5886   -2.9749    1.1170 C.3       1 <0>         0.0223
     10 H2          0.5124   -3.1112    1.2238 H         1 <0>         0.1391
     11 C7          1.9968   -1.5000    1.1552 C.3       1 <0>         0.0492
     12 H3          2.9929   -1.3657    1.5768 H         1 <0>         0.1317
     13 O3          0.9684   -0.8158    1.9209 O.3       1 <0>        -0.3662
     14 O4          2.3254   -3.6306    2.1835 O.3       1 <0>        -0.3622
     15 C8          3.5307   -4.1478    1.6005 C.3       1 <0>         0.2431
     16 O5          3.5253   -3.8561    0.1888 O.3       1 <0>        -0.3666
     17 C9          4.7443   -3.4871    2.2574 C.3       1 <0>        -0.1505
     18 C10         3.5958   -5.6617    1.8124 C.3       1 <0>        -0.1864
     19 C11         1.4685   -5.0698   -0.2356 C.3       1 <0>         0.0825
     20 O6          2.1389   -5.8445   -1.2317 O.3       1 <0>        -0.7265
     21 S1          1.5597   -7.2386   -1.4254 S.o2      1 <0>         2.6826
     22 O7          2.4548   -7.9350   -2.2815 O.2       1 <0>        -1.0652
     23 O8          1.2135   -7.7177   -0.1332 O.2       1 <0>        -1.0999
     24 N1          0.1411   -7.0674   -2.2625 N.2       1 <0>        -1.3687
     25 C12        -1.3558   -1.0027    1.2569 C.3       1 <0>        -0.1582
     26 H4          0.8207    1.6475    0.8968 H         1 <0>         0.0616
     27 H5         -0.8808    1.5361    0.3860 H         1 <0>         0.0773
     28 H6         -0.4614    1.4331    2.1128 H         1 <0>         0.0749
     29 H7          2.2585   -1.1852   -2.2889 H         1 <0>         0.1202
     30 H8          3.5458   -1.7168   -1.1842 H         1 <0>         0.0862
     31 H9          4.7535   -3.7210    3.3219 H         1 <0>         0.0808
     32 H10         5.6571   -3.8626    1.7950 H         1 <0>         0.0792
     33 H11         4.6869   -2.4069    2.1231 H         1 <0>         0.0625
     34 H12         2.5933   -6.0827    1.7363 H         1 <0>         0.0832
     35 H13         4.2360   -6.1079    1.0514 H         1 <0>         0.0832
     36 H14         4.0046   -5.8730    2.8005 H         1 <0>         0.0768
     37 H15         1.5314   -5.5806    0.7253 H         1 <0>         0.1099
     38 H16         0.4218   -4.9473   -0.5141 H         1 <0>         0.1013
     39 H17        -0.3863   -7.8495   -2.4881 H         1 <0>         0.3260
     40 H18        -2.0938   -0.6361    0.5434 H         1 <0>         0.0779
     41 H19        -1.2583   -2.0836    1.1559 H         1 <0>         0.0696
     42 H20        -1.6777   -0.7600    2.2696 H         1 <0>         0.0781
@<TRIPOS>BOND
     1    1    2 1
     2    1   26 1
     3    1   27 1
     4    1   28 1
     5    2   13 1
     6    2    3 1
     7    2   25 1
     8    3    4 1
     9    4    5 1
    10    4   11 1
    11    4    6 1
    12    6    7 1
    13    6   29 1
    14    6   30 1
    15    7    8 1
    16    8   16 1
    17    8    9 1
    18    8   19 1
    19    9   10 1
    20    9   11 1
    21    9   14 1
    22   11   12 1
    23   11   13 1
    24   14   15 1
    25   15   16 1
    26   15   17 1
    27   15   18 1
    28   17   31 1
    29   17   32 1
    30   17   33 1
    31   18   34 1
    32   18   35 1
    33   18   36 1
    34   19   20 1
    35   19   37 1
    36   19   38 1
    37   20   21 1
    38   21   22 2
    39   21   23 2
    40   21   24 1
    41   24   39 1
    42   25   40 1
    43   25   41 1
    44   25   42 1
@<TRIPOS>MOLECULE
ZINC01530804
   43    45     0     0     0
SMALL
USER_CHARGES

@<TRIPOS>ATOM
      1 C1         -0.1414    1.1782    1.1025 C.3       1 <0>        -0.1689
      2 C2         -0.0047   -0.3406    0.9788 C.3       1 <0>         0.2400
      3 O1          0.4336   -0.6809   -0.3520 O.3       1 <0>        -0.3516
      4 C3          1.8586   -0.8253   -0.2194 C.3       1 <0>         0.0156
      5 H1          2.3279    0.1582   -0.1959 H         1 <0>         0.1022
      6 C4          2.4671   -1.6561   -1.3282 C.3       1 <0>         0.0660
      7 O2          1.9135   -2.9701   -1.3154 O.3       1 <0>        -0.3195
      8 C5          2.1315   -3.6952   -0.1268 C.3       1 <0>         0.2579
      9 C6          1.5886   -2.9749    1.1170 C.3       1 <0>         0.0224
     10 H2          0.5124   -3.1112    1.2238 H         1 <0>         0.1406
     11 C7          1.9968   -1.5000    1.1552 C.3       1 <0>         0.0483
     12 H3          2.9929   -1.3657    1.5768 H         1 <0>         0.1355
     13 O3          0.9684   -0.8158    1.9209 O.3       1 <0>        -0.3615
     14 O4          2.3254   -3.6306    2.1835 O.3       1 <0>        -0.3573
     15 C8          3.5307   -4.1478    1.6005 C.3       1 <0>         0.2406
     16 O5          3.5253   -3.8561    0.1888 O.3       1 <0>        -0.3608
     17 C9          4.7443   -3.4871    2.2574 C.3       1 <0>        -0.1549
     18 C10         3.5958   -5.6617    1.8124 C.3       1 <0>        -0.1875
     19 C11         1.4685   -5.0698   -0.2356 C.3       1 <0>         0.0540
     20 O6          2.1389   -5.8445   -1.2317 O.3       1 <0>        -0.7190
     21 S1          1.5597   -7.2386   -1.4254 S.o2      1 <0>         2.7922
     22 O7          2.4548   -7.9350   -2.2815 O.2       1 <0>        -0.9521
     23 O8          1.2135   -7.7177   -0.1332 O.2       1 <0>        -0.9902
     24 N1          0.1411   -7.0674   -2.2625 N.pl3     1 <0>        -1.2682
     25 C12        -1.3558   -1.0027    1.2569 C.3       1 <0>        -0.1570
     26 H4          0.8207    1.6475    0.8968 H         1 <0>         0.0640
     27 H5         -0.8808    1.5361    0.3860 H         1 <0>         0.0795
     28 H6         -0.4614    1.4331    2.1128 H         1 <0>         0.0783
     29 H7          2.2585   -1.1852   -2.2889 H         1 <0>         0.1264
     30 H8          3.5458   -1.7168   -1.1842 H         1 <0>         0.0924
     31 H9          4.7535   -3.7210    3.3219 H         1 <0>         0.0862
     32 H10         5.6571   -3.8626    1.7950 H         1 <0>         0.0829
     33 H11         4.6869   -2.4069    2.1231 H         1 <0>         0.0666
     34 H12         2.5933   -6.0827    1.7363 H         1 <0>         0.0754
     35 H13         4.2360   -6.1079    1.0514 H         1 <0>         0.0857
     36 H14         4.0046   -5.8730    2.8005 H         1 <0>         0.0871
     37 H15         1.5314   -5.5806    0.7253 H         1 <0>         0.1339
     38 H16         0.4218   -4.9473   -0.5141 H         1 <0>         0.1071
     39 H17        -0.1624   -6.1849   -2.5271 H         1 <0>         0.4163
     40 H18        -2.0938   -0.6361    0.5434 H         1 <0>         0.0797
     41 H19        -1.2583   -2.0836    1.1559 H         1 <0>         0.0641
     42 H20        -1.6777   -0.7600    2.2696 H         1 <0>         0.0821
     43 H21        -0.3863   -7.8495   -2.4881 H         1 <0>         0.4258
@<TRIPOS>BOND
     1    1    2 1
     2    1   26 1
     3    1   27 1
     4    1   28 1
     5    2   13 1
     6    2    3 1
     7    2   25 1
     8    3    4 1
     9    4    5 1
    10    4   11 1
    11    4    6 1
    12    6    7 1
    13    6   29 1
    14    6   30 1
    15    7    8 1
    16    8   16 1
    17    8    9 1
    18    8   19 1
    19    9   10 1
    20    9   11 1
    21    9   14 1
    22   11   12 1
    23   11   13 1
    24   14   15 1
    25   15   16 1
    26   15   17 1
    27   15   18 1
    28   17   31 1
    29   17   32 1
    30   17   33 1
    31   18   34 1
    32   18   35 1
    33   18   36 1
    34   19   20 1
    35   19   37 1
    36   19   38 1
    37   20   21 1
    38   21   22 2
    39   21   23 2
    40   21   24 1
    41   24   39 1
    42   24   43 1
    43   25   40 1
    44   25   41 1
    45   25   42 1
@<TRIPOS>MOLECULE
ZINC01863457
   50    51     0     0     0
SMALL
USER_CHARGES

@<TRIPOS>ATOM
      1 C1         -0.0187    1.5258    0.0104 C.3       1 <0>        -0.1537
      2 C2          0.0021   -0.0041    0.0020 C.3       1 <0>        -0.0789
      3 H1          0.5123   -0.3556   -0.8948 H         1 <0>         0.0725
      4 C3         -1.4333   -0.5336    0.0129 C.3       1 <0>        -0.0826
      5 C4         -2.1247   -0.1373   -1.2662 C.ar      1 <0>        -0.0452
      6 C5         -2.8073    1.0629   -1.3379 C.ar      1 <0>        -0.1376
      7 C6         -3.4431    1.4310   -2.5089 C.ar      1 <0>        -0.1042
      8 C7         -3.3968    0.5966   -3.6143 C.ar      1 <0>         0.0676
      9 C8         -2.7093   -0.6111   -3.5422 C.ar      1 <0>         0.1058
     10 C9         -2.0701   -0.9719   -2.3669 C.ar      1 <0>        -0.1936
     11 O1         -2.6610   -1.4334   -4.6243 O.3       1 <0>        -0.3082
     12 C10        -1.9373   -2.6568   -4.4776 C.3       1 <0>         0.0249
     13 O2         -4.0221    0.9571   -4.7669 O.3       1 <0>        -0.4872
     14 C11         0.7421   -0.5109    1.2415 C.3       1 <0>        -0.0789
     15 H2          0.2319   -0.1594    2.1383 H         1 <0>         0.0725
     16 C12         2.1775    0.0187    1.2307 C.3       1 <0>        -0.1537
     17 C13         0.7628   -2.0407    1.2331 C.3       1 <0>        -0.0826
     18 C14         1.3823   -2.5418    2.5123 C.ar      1 <0>        -0.0452
     19 C15         2.7475   -2.7481    2.5829 C.ar      1 <0>        -0.1376
     20 C16         3.3206   -3.2076    3.7540 C.ar      1 <0>        -0.1042
     21 C17         2.5264   -3.4620    4.8606 C.ar      1 <0>         0.0677
     22 C18         1.1524   -3.2538    4.7897 C.ar      1 <0>         0.1058
     23 C19         0.5850   -2.7886    3.6143 C.ar      1 <0>        -0.1936
     24 O3          0.3687   -3.5020    5.8731 O.3       1 <0>        -0.3083
     25 C20        -1.0331   -3.2658    5.7276 C.3       1 <0>         0.0249
     26 O4          3.0885   -3.9145    6.0133 O.3       1 <0>        -0.4872
     27 H3          1.0039    1.9031    0.0027 H         1 <0>         0.0585
     28 H4         -0.5459    1.8868   -0.8726 H         1 <0>         0.0601
     29 H5         -0.5289    1.8773    0.9072 H         1 <0>         0.0546
     30 H6         -1.4190   -1.6203    0.0965 H         1 <0>         0.0767
     31 H7         -1.9701   -0.1109    0.8621 H         1 <0>         0.0759
     32 H8         -2.8441    1.7141   -0.4771 H         1 <0>         0.1282
     33 H9         -3.9762    2.3687   -2.5622 H         1 <0>         0.1355
     34 H10        -1.5328   -1.9069   -2.3095 H         1 <0>         0.1313
     35 H11        -1.9775   -3.2169   -5.4119 H         1 <0>         0.1020
     36 H12        -0.8988   -2.4372   -4.2301 H         1 <0>         0.0555
     37 H13        -2.3837   -3.2495   -3.6792 H         1 <0>         0.0559
     38 H14        -3.4662    1.4647   -5.3738 H         1 <0>         0.3861
     39 H15         2.1627    1.1086    1.2367 H         1 <0>         0.0585
     40 H16         2.7046   -0.3424    2.1137 H         1 <0>         0.0601
     41 H17         2.6876   -0.3328    0.3339 H         1 <0>         0.0546
     42 H18        -0.2567   -2.4175    1.1513 H         1 <0>         0.0767
     43 H19         1.3491   -2.3915    0.3838 H         1 <0>         0.0759
     44 H20         3.3676   -2.5503    1.7211 H         1 <0>         0.1282
     45 H21         4.3872   -3.3687    3.8063 H         1 <0>         0.1356
     46 H22        -0.4807   -2.6226    3.5578 H         1 <0>         0.1313
     47 H23        -1.5405   -3.5028    6.6628 H         1 <0>         0.1020
     48 H24        -1.2011   -2.2180    5.4785 H         1 <0>         0.0555
     49 H25        -1.4270   -3.8964    4.9306 H         1 <0>         0.0559
     50 H26         3.3635   -3.2124    6.6188 H         1 <0>         0.3862
@<TRIPOS>BOND
     1    1    2 1
     2    1   27 1
     3    1   28 1
     4    1   29 1
     5    2    3 1
     6    2    4 1
     7    2   14 1
     8    4    5 1
     9    4   30 1
    10    4   31 1
    11    5   10 ar
    12    5    6 ar
    13    6    7 ar
    14    6   32 1
    15    7    8 ar
    16    7   33 1
    17    8    9 ar
    18    8   13 1
    19    9   10 ar
    20    9   11 1
    21   10   34 1
    22   11   12 1
    23   12   35 1
    24   12   36 1
    25   12   37 1
    26   13   38 1
    27   14   15 1
    28   14   16 1
    29   14   17 1
    30   16   39 1
    31   16   40 1
    32   16   41 1
    33   17   18 1
    34   17   42 1
    35   17   43 1
    36   18   23 ar
    37   18   19 ar
    38   19   20 ar
    39   19   44 1
    40   20   21 ar
    41   20   45 1
    42   21   22 ar
    43   21   26 1
    44   22   23 ar
    45   22   24 1
    46   23   46 1
    47   24   25 1
    48   25   47 1
    49   25   48 1
    50   25   49 1
    51   26   50 1
@<TRIPOS>MOLECULE
ZINC00157085
   20    20     0     0     0
SMALL
USER_CHARGES
2-(4-hydroxyphenyl)acetamide
@<TRIPOS>ATOM
      1 C1          0.0021   -0.0041    0.0020 C.ar      1 <0>        -0.0885
      2 C2         -0.0167    1.3772    0.0096 C.ar      1 <0>        -0.1437
      3 C3          1.1759    2.0860    0.0020 C.ar      1 <0>         0.1060
      4 C4          2.3846    1.4052   -0.0127 C.ar      1 <0>        -0.1437
      5 C5          2.3980    0.0239   -0.0207 C.ar      1 <0>        -0.0885
      6 C6          1.2080   -0.6802   -0.0131 C.ar      1 <0>        -0.0803
      7 C7          1.2256   -2.1871   -0.0209 C.3       1 <0>        -0.1029
      8 C8          1.2176   -2.6822   -1.4442 C.2       1 <0>         0.5151
      9 O1          1.1994   -1.8895   -2.3619 O.2       1 <0>        -0.5317
     10 N1          1.2306   -4.0059   -1.6973 N.am      1 <0>        -0.8584
     11 O2          1.1601    3.4449    0.0090 O.3       1 <0>        -0.4996
     12 H1         -0.9260   -0.5563    0.0083 H         1 <0>         0.1252
     13 H2         -0.9589    1.9049    0.0169 H         1 <0>         0.1296
     14 H3          3.3144    1.9547   -0.0183 H         1 <0>         0.1296
     15 H4          3.3387   -0.5065   -0.0325 H         1 <0>         0.1252
     16 H5          2.1247   -2.5426    0.4824 H         1 <0>         0.1056
     17 H6          0.3449   -2.5634    0.4997 H         1 <0>         0.1056
     18 H7          1.2451   -4.6399   -0.9633 H         1 <0>         0.4020
     19 H8          1.2254   -4.3246   -2.6134 H         1 <0>         0.4028
     20 H9          1.1638    3.8337    0.8944 H         1 <0>         0.3907
@<TRIPOS>BOND
     1    1    6 ar
     2    1    2 ar
     3    1   12 1
     4    2    3 ar
     5    2   13 1
     6    3    4 ar
     7    3   11 1
     8    4    5 ar
     9    4   14 1
    10    5    6 ar
    11    5   15 1
    12    6    7 1
    13    7    8 1
    14    7   16 1
    15    7   17 1
    16    8    9 2
    17    8   10 am
    18   10   18 1
    19   10   19 1
    20   11   20 1
@<TRIPOS>MOLECULE
ZINC00164581
   20    20     0     0     0
SMALL
USER_CHARGES

@<TRIPOS>ATOM
      1 C1         -0.0167    1.3784    0.0096 C.ar      1 <0>        -0.0976
      2 C2          1.1695    2.0865    0.0021 C.ar      1 <0>        -0.1432
      3 C3          2.3802    1.4093   -0.0131 C.ar      1 <0>         0.1032
      4 C4          2.3963    0.0221   -0.0206 C.ar      1 <0>        -0.1432
      5 C5          1.2074   -0.6814   -0.0130 C.ar      1 <0>        -0.0976
      6 C6          0.0021   -0.0041    0.0020 C.ar      1 <0>        -0.0939
      7 C7         -1.2934   -0.7740    0.0107 C.3       1 <0>        -0.0807
      8 C8         -1.7461   -1.0268   -1.4288 C.3       1 <0>         0.0802
      9 O1         -2.9745   -1.7569   -1.4205 O.3       1 <0>        -0.5758
     10 O2          3.5484    2.1036   -0.0209 O.3       1 <0>        -0.5001
     11 H1         -0.9594    1.9052    0.0259 H         1 <0>         0.1282
     12 H2          1.1543    3.1664    0.0076 H         1 <0>         0.1301
     13 H3          3.3375   -0.5074   -0.0328 H         1 <0>         0.1301
     14 H4          1.2194   -1.7613   -0.0189 H         1 <0>         0.1281
     15 H5         -1.1460   -1.7274    0.5180 H         1 <0>         0.0810
     16 H6         -2.0553   -0.1973    0.5352 H         1 <0>         0.0810
     17 H7         -1.8934   -0.0734   -1.9361 H         1 <0>         0.0477
     18 H8         -0.9842   -1.6035   -1.9533 H         1 <0>         0.0476
     19 H9         -3.3213   -1.9531   -2.3016 H         1 <0>         0.3830
     20 H10         3.8951    2.3001    0.8601 H         1 <0>         0.3920
@<TRIPOS>BOND
     1    1    6 ar
     2    1    2 ar
     3    1   11 1
     4    2    3 ar
     5    2   12 1
     6    3    4 ar
     7    3   10 1
     8    4    5 ar
     9    4   13 1
    10    5    6 ar
    11    5   14 1
    12    6    7 1
    13    7    8 1
    14    7   15 1
    15    7   16 1
    16    8    9 1
    17    8   17 1
    18    8   18 1
    19    9   19 1
    20   10   20 1
@<TRIPOS>MOLECULE
ZINC14676741
   25    26     0     0     0
SMALL
USER_CHARGES

@<TRIPOS>ATOM
      1 C1         -0.0588    1.4171    0.1090 C.ar      1 <0>        -0.1200
      2 C2          1.1113    2.1428    0.1596 C.ar      1 <0>        -0.1242
      3 C3          2.3371    1.4910    0.1655 C.ar      1 <0>         0.0892
      4 C4          2.3915    0.0979    0.1203 C.ar      1 <0>         0.0891
      5 C5          1.2245   -0.6377    0.0700 C.ar      1 <0>        -0.1080
      6 C6         -0.0129    0.0186    0.0639 C.ar      1 <0>        -0.0557
      7 C7         -1.2580   -0.7577    0.0105 C.2       1 <0>        -0.0439
      8 C8         -2.3919   -0.1893   -0.4719 C.2       1 <0>         0.0009
      9 C9         -3.7580   -0.7440   -0.4469 C.2       1 <0>         0.5373
     10 O1         -4.1033   -1.8191    0.0166 O.2       1 <0>        -0.4655
     11 N1         -4.5450    0.1680   -1.0348 N.2       1 <0>        -0.6406
     12 C10        -3.8378    1.2092   -1.4164 C.2       1 <0>         0.6549
     13 N2         -2.5241    1.0557   -1.0976 N.pl3     1 <0>        -0.6748
     14 N3         -4.3570    2.3070   -2.0476 N.pl3     1 <0>        -0.8032
     15 O2          3.5947   -0.5358    0.1255 O.3       1 <0>        -0.4856
     16 O3          3.4871    2.2123    0.2150 O.3       1 <0>        -0.4862
     17 H1         -1.0110    1.9267    0.1087 H         1 <0>         0.1303
     18 H2          1.0748    3.2216    0.1943 H         1 <0>         0.1390
     19 H3          1.2655   -1.7163    0.0346 H         1 <0>         0.1436
     20 H4         -1.2715   -1.7812    0.3551 H         1 <0>         0.1619
     21 H5         -1.8115    1.6901   -1.2729 H         1 <0>         0.4265
     22 H6         -5.3065    2.3515   -2.2408 H         1 <0>         0.4340
     23 H7         -3.7754    3.0405   -2.3018 H         1 <0>         0.4172
     24 H8          3.9235   -0.7484    1.0096 H         1 <0>         0.3920
     25 H9          3.8003    2.3920    1.1120 H         1 <0>         0.3916
@<TRIPOS>BOND
     1    1    6 ar
     2    1    2 ar
     3    1   17 1
     4    2    3 ar
     5    2   18 1
     6    3    4 ar
     7    3   16 1
     8    4    5 ar
     9    4   15 1
    10    5    6 ar
    11    5   19 1
    12    6    7 1
    13    7    8 2
    14    7   20 1
    15    8   13 1
    16    8    9 1
    17    9   10 2
    18    9   11 1
    19   11   12 2
    20   12   13 1
    21   12   14 1
    22   13   21 1
    23   14   22 1
    24   14   23 1
    25   15   24 1
    26   16   25 1
@<TRIPOS>MOLECULE
ZINC00407042
   18    18     0     0     0
SMALL
USER_CHARGES
2-(3-chloro-4-hydroxy-phenyl)acetic acid
@<TRIPOS>ATOM
      1 C1         -1.2184    1.7509    0.0173 C.ar      1 <0>        -0.0949
      2 C2         -0.0126    1.0758    0.0080 C.ar      1 <0>        -0.1300
      3 C3          1.1785    1.7859    0.0004 C.ar      1 <0>         0.0890
      4 C4          1.1562    3.1742    0.0081 C.ar      1 <0>        -0.0549
      5 C5         -0.0525    3.8443    0.0233 C.ar      1 <0>        -0.0923
      6 C6         -1.2384    3.1331    0.0303 C.ar      1 <0>        -0.0236
      7 C7         -2.5550    3.8661    0.0469 C.3       1 <0>        -0.1329
      8 C8         -3.0072    4.1186   -1.3683 C.2       1 <0>         0.4656
      9 O1         -2.3299    3.7419   -2.2952 O.co2     1 <0>        -0.6302
     10 Cl1         2.6449    4.0672   -0.0019 Cl        1 <0>        -0.0744
     11 O2          2.3656    1.1240   -0.0150 O.3       1 <0>        -0.4914
     12 H1         -2.1461    1.1980    0.0183 H         1 <0>         0.1286
     13 H2          0.0021   -0.0041    0.0020 H         1 <0>         0.1321
     14 H3         -0.0708    4.9242    0.0293 H         1 <0>         0.1319
     15 H4         -3.3005    3.2623    0.5643 H         1 <0>         0.0810
     16 H5         -2.4347    4.8174    0.5651 H         1 <0>         0.0798
     17 H6          2.7005    0.9376   -0.9028 H         1 <0>         0.3854
     18 O3         -4.1625    4.7619   -1.5991 O.co2     1 <0>        -0.7689
@<TRIPOS>BOND
     1    1    6 ar
     2    1    2 ar
     3    1   12 1
     4    2    3 ar
     5    2   13 1
     6    3    4 ar
     7    3   11 1
     8    4    5 ar
     9    4   10 1
    10    5    6 ar
    11    5   14 1
    12    6    7 1
    13    7    8 1
    14    7   15 1
    15    7   16 1
    16    8    9 2
    17    8   18 1
    18   11   17 1
