@<TRIPOS>MOLECULE
ZINC04188704
   42    45     0     0     0
SMALL
USER_CHARGES
N-benzyl-N-(4-phenylthiazol-2-yl)-cyclopropanecarboxamide
@<TRIPOS>ATOM
      1 C1          2.9522   -1.1745   -3.9273 C.ar      1 <0>        -0.1082
      2 C2          3.0994    0.1187   -3.4615 C.ar      1 <0>        -0.1232
      3 C3          2.6209    0.4615   -2.2107 C.ar      1 <0>        -0.0901
      4 C4          1.9956   -0.4890   -1.4256 C.ar      1 <0>        -0.1202
      5 C5          1.8535   -1.7836   -1.8890 C.ar      1 <0>        -0.1006
      6 C6          2.3269   -2.1250   -3.1421 C.ar      1 <0>        -0.1236
      7 C7          1.4744   -0.1154   -0.0618 C.3       1 <0>         0.1496
      8 N1          0.1361    0.4659   -0.1930 N.am      1 <0>        -0.4947
      9 C8         -0.0128    1.8383   -0.3516 C.2       1 <0>         0.3252
     10 N2          0.9127    2.7776   -0.4086 N.2       1 <0>        -0.5298
     11 C9          0.5899    4.0527   -0.5652 C.2       1 <0>         0.1191
     12 C10        -0.7275    4.4030   -0.6698 C.2       1 <0>        -0.2415
     13 S1         -1.5079    2.7994   -0.5404 S.3       1 <0>         0.1076
     14 C11         1.6475    5.0907   -0.6259 C.ar      1 <0>        -0.0234
     15 C12         2.9915    4.7213   -0.6173 C.ar      1 <0>        -0.0873
     16 C13         3.9714    5.6911   -0.6789 C.ar      1 <0>        -0.1231
     17 C14         3.6219    7.0283   -0.7379 C.ar      1 <0>        -0.1146
     18 C15         2.2898    7.4010   -0.7418 C.ar      1 <0>        -0.1199
     19 C16         1.3014    6.4395   -0.6860 C.ar      1 <0>        -0.1044
     20 C17        -0.9508   -0.3304   -0.1598 C.2       1 <0>         0.5477
     21 O1         -2.0521    0.1382   -0.3559 O.2       1 <0>        -0.4958
     22 C18        -0.7976   -1.8031    0.1208 C.3       1 <0>        -0.1970
     23 C19        -1.2177   -2.7794   -0.9797 C.3       1 <0>        -0.1433
     24 C20        -2.0759   -2.6288    0.2789 C.3       1 <0>        -0.1400
     25 H1          3.3254   -1.4421   -4.9048 H         1 <0>         0.1231
     26 H2          3.5879    0.8613   -4.0749 H         1 <0>         0.1230
     27 H3          2.7359    1.4718   -1.8468 H         1 <0>         0.1292
     28 H4          1.3689   -2.5273   -1.2738 H         1 <0>         0.1243
     29 H5          2.2117   -3.1352   -3.5062 H         1 <0>         0.1245
     30 H6          2.1437    0.6130    0.3960 H         1 <0>         0.1081
     31 H7          1.4238   -1.0062    0.5644 H         1 <0>         0.1049
     32 H8         -1.1732    5.3781   -0.7996 H         1 <0>         0.1977
     33 H9          3.2655    3.6778   -0.5665 H         1 <0>         0.1297
     34 H10         5.0130    5.4059   -0.6764 H         1 <0>         0.1240
     35 H11         4.3921    7.7842   -0.7814 H         1 <0>         0.1230
     36 H12         2.0227    8.4464   -0.7884 H         1 <0>         0.1256
     37 H13         0.2616    6.7316   -0.6891 H         1 <0>         0.1244
     38 H14         0.0583   -2.0776    0.7373 H         1 <0>         0.1331
     39 H15        -1.6049   -2.3566   -1.9067 H         1 <0>         0.1034
     40 H16        -0.6384   -3.6965   -1.0870 H         1 <0>         0.1115
     41 H17        -2.0608   -3.4469    0.9991 H         1 <0>         0.1108
     42 H18        -3.0277   -2.1068    0.1803 H         1 <0>         0.1113
@<TRIPOS>BOND
     1    1    6 ar
     2    1    2 ar
     3    1   25 1
     4    2    3 ar
     5    2   26 1
     6    3    4 ar
     7    3   27 1
     8    4    5 ar
     9    4    7 1
    10    5    6 ar
    11    5   28 1
    12    6   29 1
    13    7    8 1
    14    7   30 1
    15    7   31 1
    16    8    9 1
    17    8   20 am
    18    9   13 1
    19    9   10 2
    20   10   11 1
    21   11   12 2
    22   11   14 1
    23   12   13 1
    24   12   32 1
    25   14   19 ar
    26   14   15 ar
    27   15   16 ar
    28   15   33 1
    29   16   17 ar
    30   16   34 1
    31   17   18 ar
    32   17   35 1
    33   18   19 ar
    34   18   36 1
    35   19   37 1
    36   20   21 2
    37   20   22 1
    38   22   24 1
    39   22   23 1
    40   22   38 1
    41   23   24 1
    42   23   39 1
    43   23   40 1
    44   24   41 1
    45   24   42 1
@<TRIPOS>MOLECULE
ZINC01372365
   46    49     0     0     0
SMALL
USER_CHARGES
N-(3-chlorophenyl)-4-[[5-[(3-methoxyphenyl)methylsulfanyl]-1,3,4-oxadiazol-2-yl]methyl]thiazol-2-amine
@<TRIPOS>ATOM
      1 C1          0.2561    3.4181    0.8541 C.3       1 <0>         0.0226
      2 O1         -0.5120    3.6374    2.0390 O.3       1 <0>        -0.3151
      3 C2         -1.7630    3.1074    2.0702 C.ar      1 <0>         0.1289
      4 C3         -2.2415    2.3909    0.9827 C.ar      1 <0>        -0.1964
      5 C4         -3.5134    1.8533    1.0168 C.ar      1 <0>        -0.0778
      6 C5         -4.3095    2.0283    2.1339 C.ar      1 <0>        -0.1347
      7 C6         -3.8352    2.7421    3.2187 C.ar      1 <0>        -0.0469
      8 C7         -2.5616    3.2770    3.1917 C.ar      1 <0>        -0.1302
      9 C8         -4.7057    2.9313    4.4342 C.3       1 <0>        -0.0762
     10 S1         -4.4277    1.5692    5.5933 S.3       1 <0>         0.0740
     11 C9         -5.5380    2.0317    6.8809 C.2       1 <0>         0.1274
     12 N1         -6.3059    3.0946    6.9014 N.2       1 <0>        -0.2870
     13 N2         -6.9842    3.1083    7.9945 N.2       1 <0>        -0.2556
     14 C10        -6.6728    2.0700    8.7134 C.2       1 <0>         0.1784
     15 O2         -5.7517    1.3628    8.0297 O.3       1 <0>        -0.2068
     16 C11        -7.2396    1.7209   10.0654 C.3       1 <0>         0.0492
     17 C12        -8.4645    0.8608    9.8897 C.2       1 <0>         0.0913
     18 C13        -8.5548   -0.3481   10.4944 C.2       1 <0>        -0.2418
     19 S2        -10.1691   -0.8773    9.9404 S.3       1 <0>         0.0638
     20 C14       -10.5475    0.5189    8.9797 C.2       1 <0>         0.3429
     21 N3         -9.4713    1.2655    9.1390 N.2       1 <0>        -0.5556
     22 N4        -11.6880    0.7816    8.2356 N.pl3     1 <0>        -0.6260
     23 C15       -12.7794   -0.0890    8.2986 C.ar      1 <0>         0.1811
     24 C16       -13.0730   -0.7526    9.4836 C.ar      1 <0>        -0.1591
     25 C17       -14.1522   -1.6119    9.5434 C.ar      1 <0>        -0.0667
     26 C18       -14.9412   -1.8129    8.4255 C.ar      1 <0>        -0.1298
     27 C19       -14.6523   -1.1535    7.2436 C.ar      1 <0>        -0.0024
     28 C20       -13.5762   -0.2883    7.1787 C.ar      1 <0>        -0.1398
     29 Cl1       -15.6455   -1.4088    5.8428 Cl        1 <0>        -0.0573
     30 H1          1.2406    3.8969    0.9615 H         1 <0>         0.1043
     31 H2         -0.2701    3.8513   -0.0093 H         1 <0>         0.0579
     32 H3          0.3890    2.3374    0.6981 H         1 <0>         0.0580
     33 H4         -1.6199    2.2534    0.1103 H         1 <0>         0.1319
     34 H5         -3.8863    1.2955    0.1705 H         1 <0>         0.1310
     35 H6         -5.3036    1.6068    2.1589 H         1 <0>         0.1298
     36 H7         -2.1898    3.8306    4.0412 H         1 <0>         0.1365
     37 H8         -4.4530    3.8847    4.9213 H         1 <0>         0.1151
     38 H9         -5.7627    2.9439    4.1299 H         1 <0>         0.1149
     39 H10        -6.4859    1.1710   10.6481 H         1 <0>         0.1198
     40 H11        -7.5129    2.6438   10.5979 H         1 <0>         0.1314
     41 H12        -7.8469   -0.8524   11.1354 H         1 <0>         0.2005
     42 H13       -11.7336    1.6752    7.5958 H         1 <0>         0.4559
     43 H14       -12.4573   -0.5967   10.3572 H         1 <0>         0.1364
     44 H15       -14.3807   -2.1275   10.4644 H         1 <0>         0.1418
     45 H16       -15.7847   -2.4855    8.4751 H         1 <0>         0.1396
     46 H17       -13.3530    0.2291    6.2574 H         1 <0>         0.1410
@<TRIPOS>BOND
     1    1    2 1
     2    1   30 1
     3    1   31 1
     4    1   32 1
     5    2    3 1
     6    3    8 ar
     7    3    4 ar
     8    4    5 ar
     9    4   33 1
    10    5    6 ar
    11    5   34 1
    12    6    7 ar
    13    6   35 1
    14    7    8 ar
    15    7    9 1
    16    8   36 1
    17    9   10 1
    18    9   37 1
    19    9   38 1
    20   10   11 1
    21   11   15 1
    22   11   12 2
    23   12   13 1
    24   13   14 2
    25   14   15 1
    26   14   16 1
    27   16   17 1
    28   16   39 1
    29   16   40 1
    30   17   21 1
    31   17   18 2
    32   18   19 1
    33   18   41 1
    34   19   20 1
    35   20   21 2
    36   20   22 1
    37   22   23 1
    38   22   42 1
    39   23   28 ar
    40   23   24 ar
    41   24   25 ar
    42   24   43 1
    43   25   26 ar
    44   25   44 1
    45   26   27 ar
    46   26   45 1
    47   27   28 ar
    48   27   29 1
    49   28   46 1
@<TRIPOS>MOLECULE
ZINC05489319
   41    44     0     0     0
SMALL
USER_CHARGES
2-[(6,9-dimethyl-5H-[1,2,4]triazino[5,6-b]indol-3-yl)sulfanyl]-1-(4-fluorophenyl)ethanone
@<TRIPOS>ATOM
      1 C1         -2.4452   -0.5748    0.0232 C.3       1 <0>        -0.1194
      2 C2         -0.9932   -0.9780    0.0067 C.ar      1 <0>        -0.0103
      3 C3         -0.6462   -2.3123   -0.0028 C.ar      1 <0>        -0.1381
      4 C4          0.6882   -2.6864   -0.0180 C.ar      1 <0>        -0.0663
      5 C5          1.6837   -1.7322   -0.0226 C.ar      1 <0>        -0.1046
      6 C6          1.3539   -0.3814   -0.0129 C.ar      1 <0>         0.1535
      7 C7          0.0021   -0.0041    0.0020 C.ar      1 <0>        -0.0876
      8 C8         -0.0179    1.4689    0.0101 C.ar      1 <0>         0.0061
      9 C9          1.3300    1.8835   -0.0005 C.ar      1 <0>         0.3822
     10 N1          2.1290    0.7671   -0.0141 N.pl3     1 <0>        -0.5932
     11 H1          3.2262    0.6901   -0.0250 H         1 <0>         0.4576
     12 N2          1.5895    3.1874    0.0036 N.ar      1 <0>        -0.4850
     13 C10         0.5813    4.0495    0.0175 C.ar      1 <0>         0.2486
     14 N3         -0.6812    3.6343    0.0278 N.ar      1 <0>        -0.3102
     15 N4         -0.9794    2.3802    0.0194 N.ar      1 <0>        -0.1260
     16 S1          0.9225    5.7782    0.0230 S.3       1 <0>         0.0986
     17 C11        -0.7653    6.4316    0.0423 C.3       1 <0>        -0.1876
     18 C12        -0.7208    7.9380    0.0494 C.2       1 <0>         0.4196
     19 O1          0.3469    8.5130    0.0423 O.2       1 <0>        -0.4318
     20 C13        -1.9716    8.7103    0.0652 C.ar      1 <0>        -0.1785
     21 C14        -3.2054    8.0498    0.0677 C.ar      1 <0>        -0.0398
     22 C15        -4.3736    8.7794    0.0883 C.ar      1 <0>        -0.1655
     23 C16        -4.3290   10.1659    0.0949 C.ar      1 <0>         0.1369
     24 C17        -3.1094   10.8268    0.0867 C.ar      1 <0>        -0.1662
     25 C18        -1.9338   10.1092    0.0719 C.ar      1 <0>        -0.0258
     26 F1         -5.4785   10.8756    0.1098 F         1 <0>        -0.1305
     27 C19         3.1305   -2.1538   -0.0387 C.3       1 <0>        -0.1138
     28 H2         -3.0760   -1.4760    0.0247 H         1 <0>         0.0713
     29 H3         -2.6686    0.0277   -0.8696 H         1 <0>         0.0776
     30 H4         -2.6508    0.0182    0.9266 H         1 <0>         0.0775
     31 H5         -1.4170   -3.0688    0.0014 H         1 <0>         0.1363
     32 H6          0.9506   -3.7340   -0.0260 H         1 <0>         0.1383
     33 H7         -1.3029    6.0849   -0.8525 H         1 <0>         0.1384
     34 H8         -1.2859    6.0759    0.9436 H         1 <0>         0.1384
     35 H9         -3.2414    6.9705    0.0581 H         1 <0>         0.1470
     36 H10        -5.3264    8.2709    0.0948 H         1 <0>         0.1460
     37 H11        -3.0816   11.9064    0.0922 H         1 <0>         0.1455
     38 H12        -0.9849   10.6249    0.0658 H         1 <0>         0.1473
     39 H13         3.7727   -1.2607   -0.0402 H         1 <0>         0.0567
     40 H14         3.3288   -2.7495   -0.9419 H         1 <0>         0.0782
     41 H15         3.3460   -2.7589    0.8543 H         1 <0>         0.0782
@<TRIPOS>BOND
     1    1    2 1
     2    1   28 1
     3    1   29 1
     4    1   30 1
     5    2    7 ar
     6    2    3 ar
     7    3    4 ar
     8    3   31 1
     9    4    5 ar
    10    4   32 1
    11    5    6 ar
    12    5   27 1
    13    6   10 1
    14    6    7 ar
    15    7    8 1
    16    8   15 ar
    17    8    9 ar
    18    9   10 1
    19    9   12 ar
    20   10   11 1
    21   12   13 ar
    22   13   14 ar
    23   13   16 1
    24   14   15 ar
    25   16   17 1
    26   17   18 1
    27   17   33 1
    28   17   34 1
    29   18   19 2
    30   18   20 1
    31   20   25 ar
    32   20   21 ar
    33   21   22 ar
    34   21   35 1
    35   22   23 ar
    36   22   36 1
    37   23   24 ar
    38   23   26 1
    39   24   25 ar
    40   24   37 1
    41   25   38 1
    42   27   39 1
    43   27   40 1
    44   27   41 1
@<TRIPOS>MOLECULE
ZINC00411881
   34    36     0     0     0
SMALL
USER_CHARGES

@<TRIPOS>ATOM
      1 C1         -0.0166    1.3751    0.0096 C.ar      1 <0>        -0.1296
      2 C2          1.1694    2.0890    0.0021 C.ar      1 <0>        -0.0741
      3 C3          2.3829    1.4275   -0.0130 C.ar      1 <0>        -0.1474
      4 C4          2.4190    0.0428   -0.0212 C.ar      1 <0>         0.1627
      5 C5          1.2214   -0.6834   -0.0136 C.ar      1 <0>        -0.0607
      6 C6          0.0021   -0.0041    0.0020 C.ar      1 <0>        -0.0674
      7 C7          1.2484   -2.1598   -0.0228 C.2       1 <0>         0.2153
      8 N1          2.3190   -2.9165   -0.0322 N.2       1 <0>        -0.2460
      9 N2          1.9679   -4.1542   -0.0382 N.2       1 <0>        -0.2883
     10 C8          0.6580   -4.2370   -0.0328 C.2       1 <0>         0.1230
     11 O1          0.1742   -2.9799   -0.0170 O.3       1 <0>        -0.1989
     12 S1         -0.2931   -5.7202   -0.0380 S.3       1 <0>         0.1249
     13 C9          0.9517   -7.0396   -0.0514 C.3       1 <0>        -0.1844
     14 C10         0.2630   -8.3800   -0.0569 C.2       1 <0>         0.4234
     15 O2         -0.9482   -8.4394   -0.0522 O.2       1 <0>        -0.4275
     16 C11         1.0598   -9.6163   -0.0680 C.ar      1 <0>        -0.1632
     17 C12         2.4573   -9.5517   -0.0675 C.ar      1 <0>        -0.0575
     18 C13         3.1975  -10.7142   -0.0774 C.ar      1 <0>        -0.1216
     19 C14         2.5607  -11.9449   -0.0882 C.ar      1 <0>        -0.0008
     20 C15         1.1769  -12.0165   -0.0887 C.ar      1 <0>        -0.1218
     21 C16         0.4239  -10.8624   -0.0731 C.ar      1 <0>        -0.0410
     22 Cl1         3.5012  -13.4040   -0.1018 Cl        1 <0>        -0.0540
     23 O3          3.6110   -0.6082   -0.0369 O.3       1 <0>        -0.4770
     24 H1         -0.9603    1.9001    0.0259 H         1 <0>         0.1378
     25 H2          1.1463    3.1688    0.0077 H         1 <0>         0.1374
     26 H3          3.3042    1.9911   -0.0188 H         1 <0>         0.1426
     27 H4         -0.9253   -0.5575    0.0082 H         1 <0>         0.1367
     28 H5          1.5711   -6.9458   -0.9434 H         1 <0>         0.1390
     29 H6          1.5785   -6.9569    0.8365 H         1 <0>         0.1388
     30 H7          2.9549   -8.5932   -0.0598 H         1 <0>         0.1451
     31 H8          4.2764  -10.6659   -0.0771 H         1 <0>         0.1446
     32 H9          0.6873  -12.9791   -0.0975 H         1 <0>         0.1445
     33 H10        -0.6546  -10.9197   -0.0693 H         1 <0>         0.1475
     34 H11         3.9651   -0.8017    0.8419 H         1 <0>         0.3978
@<TRIPOS>BOND
     1    1    6 ar
     2    1    2 ar
     3    1   24 1
     4    2    3 ar
     5    2   25 1
     6    3    4 ar
     7    3   26 1
     8    4    5 ar
     9    4   23 1
    10    5    6 ar
    11    5    7 1
    12    6   27 1
    13    7   11 1
    14    7    8 2
    15    8    9 1
    16    9   10 2
    17   10   11 1
    18   10   12 1
    19   12   13 1
    20   13   14 1
    21   13   28 1
    22   13   29 1
    23   14   15 2
    24   14   16 1
    25   16   21 ar
    26   16   17 ar
    27   17   18 ar
    28   17   30 1
    29   18   19 ar
    30   18   31 1
    31   19   20 ar
    32   19   22 1
    33   20   21 ar
    34   20   32 1
    35   21   33 1
    36   23   34 1
@<TRIPOS>MOLECULE
ZINC00905485
   46    49     0     0     0
SMALL
USER_CHARGES

@<TRIPOS>ATOM
      1 C1         -0.0167    1.3780    0.0096 C.ar      1 <0>        -0.1138
      2 C2          1.1709    2.0861    0.0021 C.ar      1 <0>        -0.0913
      3 C3          2.3773    1.4123   -0.0135 C.ar      1 <0>        -0.1095
      4 C4          2.3967    0.0287   -0.0210 C.ar      1 <0>        -0.0163
      5 C5          1.2083   -0.6792   -0.0130 C.ar      1 <0>        -0.0801
      6 C6          0.0021   -0.0041    0.0020 C.ar      1 <0>        -0.0827
      7 C7          1.2286   -2.1860   -0.0218 C.3       1 <0>        -0.0784
      8 S1          1.2540   -2.8003    1.6849 S.3       1 <0>         0.0816
      9 C8          1.2758   -4.5531    1.5067 C.2       1 <0>         0.1438
     10 N1          1.2793   -5.2193    0.3751 N.2       1 <0>        -0.2843
     11 N2          1.2972   -6.4818    0.6216 N.2       1 <0>        -0.2470
     12 C9          1.3060   -6.6726    1.9183 C.2       1 <0>         0.1951
     13 O1          1.2981   -5.4555    2.5060 O.3       1 <0>        -0.1960
     14 C10         1.3260   -7.9779    2.6102 C.ar      1 <0>         0.0364
     15 C11         1.3272   -8.0320    4.0053 C.ar      1 <0>        -0.1054
     16 C12         1.3459   -9.2541    4.6450 C.ar      1 <0>        -0.0151
     17 C13         1.3640  -10.4245    3.9071 C.ar      1 <0>        -0.6617
     18 C14         1.3629  -10.3780    2.5243 C.ar      1 <0>        -0.0200
     19 C15         1.3379   -9.1627    1.8719 C.ar      1 <0>        -0.0882
     20 S2          1.3890  -11.9811    4.7323 S.o2      1 <0>         2.6943
     21 O2          1.9541  -12.9143    3.8218 O.2       1 <0>        -0.9456
     22 O3          1.9370  -11.7480    6.0225 O.2       1 <0>        -0.9473
     23 N3         -0.1858  -12.4386    4.9626 N.pl3     1 <0>        -1.1131
     24 C16        -1.0403  -12.7294    3.8086 C.3       1 <0>         0.2024
     25 C17        -2.2740  -13.4622    4.2691 C.2       1 <0>        -0.1705
     26 C18        -3.4701  -12.9582    4.6600 C.2       1 <0>        -0.1315
     27 C19        -4.4711  -13.8300    5.0455 C.2       1 <0>        -0.1647
     28 C20        -4.2270  -15.1631    5.0213 C.2       1 <0>        -0.1623
     29 S3         -2.5420  -15.2195    4.4340 S.3       1 <0>         0.0591
     30 Cl1         3.9119   -0.8184   -0.0411 Cl        1 <0>        -0.0543
     31 H1         -0.9592    1.9049    0.0259 H         1 <0>         0.1363
     32 H2          1.1556    3.1659    0.0080 H         1 <0>         0.1380
     33 H3          3.3048    1.9655   -0.0201 H         1 <0>         0.1400
     34 H4         -0.9258   -0.5566    0.0079 H         1 <0>         0.1388
     35 H5          0.3384   -2.5584   -0.5287 H         1 <0>         0.1169
     36 H6          2.1181   -2.5344   -0.5466 H         1 <0>         0.1170
     37 H7          1.3138   -7.1192    4.5824 H         1 <0>         0.1443
     38 H8          1.3469   -9.2974    5.7241 H         1 <0>         0.1530
     39 H9          1.3770  -11.2953    1.9544 H         1 <0>         0.1553
     40 H10         1.3326   -9.1279    0.7925 H         1 <0>         0.1526
     41 H11        -0.5424  -12.5141    5.8614 H         1 <0>         0.4244
     42 H12        -1.3307  -11.7957    3.3272 H         1 <0>         0.0910
     43 H13        -0.4932  -13.3495    3.0985 H         1 <0>         0.0987
     44 H14        -3.6384  -11.8915    4.6703 H         1 <0>         0.1357
     45 H15        -5.4331  -13.4546    5.3616 H         1 <0>         0.1364
     46 H16        -4.8830  -15.9796    5.2851 H         1 <0>         0.1881
@<TRIPOS>BOND
     1    1    6 ar
     2    1    2 ar
     3    1   31 1
     4    2    3 ar
     5    2   32 1
     6    3    4 ar
     7    3   33 1
     8    4    5 ar
     9    4   30 1
    10    5    6 ar
    11    5    7 1
    12    6   34 1
    13    7    8 1
    14    7   35 1
    15    7   36 1
    16    8    9 1
    17    9   13 1
    18    9   10 2
    19   10   11 1
    20   11   12 2
    21   12   13 1
    22   12   14 1
    23   14   19 ar
    24   14   15 ar
    25   15   16 ar
    26   15   37 1
    27   16   17 ar
    28   16   38 1
    29   17   18 ar
    30   17   20 1
    31   18   19 ar
    32   18   39 1
    33   19   40 1
    34   20   21 2
    35   20   22 2
    36   20   23 1
    37   23   24 1
    38   23   41 1
    39   24   25 1
    40   24   42 1
    41   24   43 1
    42   25   29 1
    43   25   26 2
    44   26   27 1
    45   26   44 1
    46   27   28 2
    47   27   45 1
    48   28   29 1
    49   28   46 1
