@<TRIPOS>MOLECULE
ZINC27196434
   31    34     0     0     0
SMALL
USER_CHARGES
(5R,6Z)-6-(6,8-dihydro-5H-imidazo[2,3-c][1,4]oxazin-3-ylmethylene)-7-oxo-4-thia-1-azabicyclo[3.2.0]hept-2-ene-2-carboxylic acid
@<TRIPOS>ATOM
      1 C1         -2.2593    7.0250    2.6426 C.2       1 <0>         0.0400
      2 C2         -1.9687    5.9297    1.8494 C.2       1 <0>        -0.0090
      3 N1         -1.4721    6.4366    0.6747 N.pl3     1 <0>        -0.4444
      4 C3         -1.4813    7.7865    0.7790 C.2       1 <0>         0.1841
      5 N2         -1.9465    8.1224    1.9483 N.2       1 <0>        -0.4728
      6 C4         -1.0037    8.6963   -0.3295 C.3       1 <0>         0.1451
      7 O1         -0.2729    7.8969   -1.2695 O.3       1 <0>        -0.3690
      8 C5         -0.9582    6.7119   -1.6845 C.3       1 <0>         0.0464
      9 C6         -1.0184    5.7165   -0.5179 C.3       1 <0>         0.0620
     10 C7         -2.1426    4.5626    2.1839 C.2       1 <0>         0.0456
     11 C8         -2.7534    4.2214    3.3445 C.2       1 <0>        -0.2202
     12 C9         -3.3056    4.9467    4.5469 C.3       1 <0>         0.1269
     13 H1         -2.5463    5.5577    5.0569 H         1 <0>         0.1672
     14 N3         -3.7643    3.6288    5.0470 N.am      1 <0>        -0.4532
     15 C10        -3.1648    3.0170    3.9807 C.2       1 <0>         0.5432
     16 O2         -3.0281    1.8444    3.6801 O.2       1 <0>        -0.4308
     17 C11        -5.1392    3.4948    5.1936 C.2       1 <0>         0.0044
     18 C12        -5.9876    4.4794    4.8209 C.2       1 <0>        -0.1147
     19 S1         -4.9093    5.7747    4.2348 S.3       1 <0>        -0.1635
     20 C13        -5.6629    2.3041    5.7505 C.2       1 <0>         0.4976
     21 O3         -4.9111    1.4093    6.0910 O.co2     1 <0>        -0.6038
     22 O4         -6.9965    2.1604    5.9043 O.co2     1 <0>        -0.7480
     23 H2         -2.6655    6.9977    3.6429 H         1 <0>         0.1784
     24 H3         -1.8706    9.1638   -0.8192 H         1 <0>         0.0901
     25 H4         -0.3548    9.4782    0.0918 H         1 <0>         0.1321
     26 H5         -1.9806    6.9702   -1.9976 H         1 <0>         0.0706
     27 H6         -0.4210    6.2541   -2.5282 H         1 <0>         0.1251
     28 H7         -0.0212    5.2909   -0.3320 H         1 <0>         0.1006
     29 H8         -1.7258    4.9062   -0.7482 H         1 <0>         0.1067
     30 H9         -1.7817    3.7791    1.5013 H         1 <0>         0.1476
     31 H10        -7.0735    4.3391    4.9267 H         1 <0>         0.2157
@<TRIPOS>BOND
     1    1    5 1
     2    1    2 2
     3    1   23 1
     4    2    3 1
     5    2   10 1
     6    3    9 1
     7    3    4 1
     8    4    5 2
     9    4    6 1
    10    6    7 1
    11    6   24 1
    12    6   25 1
    13    7    8 1
    14    8    9 1
    15    8   26 1
    16    8   27 1
    17    9   28 1
    18    9   29 1
    19   10   11 2
    20   10   30 1
    21   11   15 1
    22   11   12 1
    23   12   13 1
    24   12   19 1
    25   12   14 1
    26   14   15 am
    27   14   17 1
    28   15   16 2
    29   17   18 2
    30   17   20 1
    31   18   19 1
    32   18   31 1
    33   20   21 2
    34   20   22 1
@<TRIPOS>MOLECULE
ZINC03787060
   31    33     0     0     0
SMALL
USER_CHARGES

@<TRIPOS>ATOM
      1 C1         -0.0187    1.5258    0.0104 C.3       1 <0>        -0.1186
      2 C2          0.0021   -0.0041    0.0020 C.3       1 <0>        -0.4655
      3 C3         -1.4146   -0.5970    0.2500 C.3       1 <0>         0.0201
      4 H1         -1.4407   -1.6244   -0.1133 H         1 <0>         0.0879
      5 N1         -1.7530   -0.5827    1.6766 N.am      1 <0>        -0.4910
      6 C4         -0.6219   -0.6803    2.6091 C.3       1 <0>        -0.3851
      7 H2         -0.5972    0.0495    3.4183 H         1 <0>         0.1818
      8 S1          0.8474   -0.6813    1.5011 S.o2      1 <0>         2.3298
      9 O1          1.7963    0.2643    1.9751 O.2       1 <0>        -0.9090
     10 O2          1.2489   -2.0213    1.2512 O.2       1 <0>        -0.9212
     11 C5         -1.1211   -2.0644    2.9842 C.3       1 <0>        -0.1786
     12 C6         -2.3389   -1.6771    2.1994 C.2       1 <0>         0.5126
     13 O3         -3.4416   -2.1674    2.0796 O.2       1 <0>        -0.4399
     14 C7         -2.4313    0.2197   -0.5052 C.2       1 <0>         0.5224
     15 O4         -2.7256   -0.0801   -1.6498 O.co2     1 <0>        -0.6803
     16 O5         -2.9595    1.1804    0.0283 O.co2     1 <0>        -0.6470
     17 C8          0.6227   -0.5460   -1.2872 C.3       1 <0>         0.1439
     18 N2          1.9493    0.0459   -1.4769 N.pl3     1 <0>        -0.3012
     19 C9          3.1037   -0.6368   -1.6565 C.2       1 <0>        -0.0548
     20 C10         4.0762    0.2952   -1.7894 C.2       1 <0>        -0.0512
     21 N3          3.4770    1.4867   -1.6860 N.2       1 <0>        -0.2713
     22 N4          2.2163    1.3047   -1.5068 N.2       1 <0>        -0.0636
     23 H3          1.0039    1.9031    0.0027 H         1 <0>         0.0884
     24 H4         -0.5459    1.8868   -0.8726 H         1 <0>         0.0922
     25 H5         -0.5289    1.8773    0.9072 H         1 <0>         0.0792
     26 H6         -0.5476   -2.8786    2.5411 H         1 <0>         0.1407
     27 H7         -1.3036   -2.1968    4.0507 H         1 <0>         0.1268
     28 H8          0.7149   -1.6299   -1.2184 H         1 <0>         0.1253
     29 H9         -0.0144   -0.2885   -2.1333 H         1 <0>         0.1421
     30 H10         3.2248   -1.7096   -1.6872 H         1 <0>         0.1939
     31 H11         5.1289    0.1127   -1.9476 H         1 <0>         0.1909
@<TRIPOS>BOND
     1    1    2 1
     2    1   23 1
     3    1   24 1
     4    1   25 1
     5    2    8 1
     6    2    3 1
     7    2   17 1
     8    3    4 1
     9    3    5 1
    10    3   14 1
    11    5   12 am
    12    5    6 1
    13    6    7 1
    14    6    8 1
    15    6   11 1
    16    8    9 2
    17    8   10 2
    18   11   12 1
    19   11   26 1
    20   11   27 1
    21   12   13 2
    22   14   15 2
    23   14   16 1
    24   17   18 1
    25   17   28 1
    26   17   29 1
    27   18   22 1
    28   18   19 1
    29   19   20 2
    30   19   30 1
    31   20   21 1
    32   20   31 1
    33   21   22 2
