@<TRIPOS>MOLECULE
ZINC00537891
   46    49     0     0     0
SMALL
USER_CHARGES

@<TRIPOS>ATOM
      1 C1         -0.0187    1.5258    0.0104 C.3       1 <0>        -0.1633
      2 C2          0.0021   -0.0041    0.0020 C.3       1 <0>         0.0870
      3 H1          0.5122   -0.3561   -0.8946 H         1 <0>         0.1204
      4 C3         -1.4339   -0.5347    0.0146 C.3       1 <0>         0.0510
      5 O1         -2.0442   -0.1776    1.2608 O.3       1 <0>        -0.2940
      6 C4         -1.3856   -0.5840    2.3818 C.ar      1 <0>         0.0889
      7 C5         -0.0024   -0.7526    2.3510 C.ar      1 <0>         0.1459
      8 N1          0.7119   -0.4920    1.1943 N.pl3     1 <0>        -0.4927
      9 C6          2.0401   -0.6691    1.1222 C.2       1 <0>         0.1507
     10 C7          2.7930   -1.0996    2.1955 C.2       1 <0>        -0.2811
     11 C8          2.1171   -1.3781    3.4742 C.2       1 <0>         0.4124
     12 O2          2.7379   -1.7513    4.4543 O.2       1 <0>        -0.4320
     13 C9          0.6554   -1.1854    3.5159 C.ar      1 <0>        -0.1349
     14 C10        -0.0666   -1.4283    4.6875 C.ar      1 <0>        -0.0794
     15 C11        -1.4214   -1.2500    4.7040 C.ar      1 <0>         0.0712
     16 C12        -2.0892   -0.8289    3.5524 C.ar      1 <0>         0.1323
     17 N2         -3.4738   -0.6522    3.5792 N.pl3     1 <0>        -0.6586
     18 C13        -4.0637    0.6474    3.9355 C.3       1 <0>         0.1226
     19 C14        -5.1250    0.4191    5.0168 C.3       1 <0>        -0.0240
     20 N3         -6.0948   -0.5782    4.5466 N.4       1 <0>        -0.3810
     21 C15        -5.4304   -1.8750    4.3651 C.3       1 <0>        -0.0241
     22 C16        -4.3841   -1.7587    3.2460 C.3       1 <0>         0.1228
     23 C17        -7.1716   -0.7161    5.5363 C.3       1 <0>        -0.0457
     24 F1         -2.1172   -1.4826    5.8384 F         1 <0>        -0.1374
     25 C18         4.2425   -1.2774    2.0651 C.2       1 <0>         0.5345
     26 O3          4.7943   -1.0435    0.9977 O.co2     1 <0>        -0.6964
     27 O4          4.9010   -1.6598    3.0236 O.co2     1 <0>        -0.6585
     28 H2          1.0039    1.9031    0.0027 H         1 <0>         0.0743
     29 H3         -0.5459    1.8868   -0.8726 H         1 <0>         0.0787
     30 H4         -0.5289    1.8773    0.9072 H         1 <0>         0.0640
     31 H5         -1.9950   -0.0909   -0.8078 H         1 <0>         0.1305
     32 H6         -1.4238   -1.6196   -0.0899 H         1 <0>         0.0752
     33 H7          2.5399   -0.4669    0.1864 H         1 <0>         0.1725
     34 H8          0.4459   -1.7571    5.5795 H         1 <0>         0.1562
     35 H9         -3.2872    1.3095    4.3185 H         1 <0>         0.1148
     36 H10        -4.5276    1.0928    3.0553 H         1 <0>         0.0806
     37 H11        -4.6451    0.0586    5.9267 H         1 <0>         0.1322
     38 H12        -5.6400    1.3570    5.2245 H         1 <0>         0.1355
     39 H13        -4.9412   -2.1661    5.2946 H         1 <0>         0.1325
     40 H14        -6.1703   -2.6275    4.0925 H         1 <0>         0.1351
     41 H15        -4.8797   -1.5523    2.2974 H         1 <0>         0.0802
     42 H16        -3.8195   -2.6882    3.1729 H         1 <0>         0.1143
     43 H17        -7.6708    0.2441    5.6661 H         1 <0>         0.1220
     44 H18        -7.8922   -1.4562    5.1885 H         1 <0>         0.1220
     45 H19        -6.7507   -1.0384    6.4887 H         1 <0>         0.1205
     46 H20        -6.4863   -0.2762    3.6671 H         1 <0>         0.4224
@<TRIPOS>BOND
     1    1    2 1
     2    1   28 1
     3    1   29 1
     4    1   30 1
     5    2    3 1
     6    2    8 1
     7    2    4 1
     8    4    5 1
     9    4   31 1
    10    4   32 1
    11    5    6 1
    12    6   16 ar
    13    6    7 ar
    14    7   13 ar
    15    7    8 1
    16    8    9 1
    17    9   10 2
    18    9   33 1
    19   10   11 1
    20   10   25 1
    21   11   12 2
    22   11   13 1
    23   13   14 ar
    24   14   15 ar
    25   14   34 1
    26   15   16 ar
    27   15   24 1
    28   16   17 1
    29   17   22 1
    30   17   18 1
    31   18   19 1
    32   18   35 1
    33   18   36 1
    34   19   20 1
    35   19   37 1
    36   19   38 1
    37   20   21 1
    38   20   23 1
    39   20   46 1
    40   21   22 1
    41   21   39 1
    42   21   40 1
    43   22   41 1
    44   22   42 1
    45   23   43 1
    46   23   44 1
    47   23   45 1
    48   25   26 2
    49   25   27 1
@<TRIPOS>MOLECULE
ZINC00537891
   45    48     0     0     0
SMALL
USER_CHARGES

@<TRIPOS>ATOM
      1 C1         -0.0187    1.5258    0.0104 C.3       1 <0>        -0.1628
      2 C2          0.0021   -0.0041    0.0020 C.3       1 <0>         0.0888
      3 H1          0.5122   -0.3561   -0.8946 H         1 <0>         0.1154
      4 C3         -1.4339   -0.5347    0.0146 C.3       1 <0>         0.0499
      5 O1         -2.0442   -0.1776    1.2608 O.3       1 <0>        -0.2867
      6 C4         -1.3856   -0.5840    2.3818 C.ar      1 <0>         0.0802
      7 C5         -0.0024   -0.7526    2.3510 C.ar      1 <0>         0.1394
      8 N1          0.7119   -0.4920    1.1943 N.pl3     1 <0>        -0.4950
      9 C6          2.0401   -0.6691    1.1222 C.2       1 <0>         0.1594
     10 C7          2.7930   -1.0996    2.1955 C.2       1 <0>        -0.2966
     11 C8          2.1171   -1.3781    3.4742 C.2       1 <0>         0.4178
     12 O2          2.7379   -1.7513    4.4543 O.2       1 <0>        -0.4439
     13 C9          0.6554   -1.1854    3.5159 C.ar      1 <0>        -0.1439
     14 C10        -0.0666   -1.4283    4.6875 C.ar      1 <0>        -0.0878
     15 C11        -1.4214   -1.2500    4.7040 C.ar      1 <0>         0.0740
     16 C12        -2.0892   -0.8289    3.5524 C.ar      1 <0>         0.1598
     17 N2         -3.4738   -0.6522    3.5792 N.pl3     1 <0>        -0.6622
     18 C13        -4.0622    0.6478    3.9357 C.3       1 <0>         0.1544
     19 C14        -5.1096    0.4239    5.0316 C.3       1 <0>         0.0391
     20 N3         -6.0720   -0.5919    4.5846 N.3       1 <0>        -0.5402
     21 C15        -5.4176   -1.8901    4.3746 C.3       1 <0>         0.0392
     22 C16        -4.3827   -1.7595    3.2458 C.3       1 <0>         0.1541
     23 C17        -7.1885   -0.7122    5.5317 C.3       1 <0>         0.0255
     24 F1         -2.1172   -1.4826    5.8384 F         1 <0>        -0.1328
     25 C18         4.2425   -1.2774    2.0651 C.2       1 <0>         0.5383
     26 O3          4.7943   -1.0435    0.9977 O.co2     1 <0>        -0.7037
     27 O4          4.9010   -1.6598    3.0236 O.co2     1 <0>        -0.6638
     28 H2          1.0039    1.9031    0.0027 H         1 <0>         0.0705
     29 H3         -0.5459    1.8868   -0.8726 H         1 <0>         0.0763
     30 H4         -0.5289    1.8773    0.9072 H         1 <0>         0.0665
     31 H5         -1.9950   -0.0909   -0.8078 H         1 <0>         0.1268
     32 H6         -1.4238   -1.6196   -0.0899 H         1 <0>         0.0720
     33 H7          2.5399   -0.4669    0.1864 H         1 <0>         0.1680
     34 H8          0.4459   -1.7571    5.5795 H         1 <0>         0.1512
     35 H9         -3.2823    1.3137    4.3050 H         1 <0>         0.0706
     36 H10        -4.5378    1.0872    3.0589 H         1 <0>         0.0606
     37 H11        -4.6165    0.0822    5.9417 H         1 <0>         0.0387
     38 H12        -5.6335    1.3588    5.2304 H         1 <0>         0.0786
     39 H13        -4.9202   -2.1996    5.2938 H         1 <0>         0.0391
     40 H14        -6.1649   -2.6335    4.0969 H         1 <0>         0.0781
     41 H15        -4.8886   -1.5470    2.3039 H         1 <0>         0.0602
     42 H16        -3.8149   -2.6858    3.1588 H         1 <0>         0.0701
     43 H17        -7.7027    0.2457    5.6107 H         1 <0>         0.0669
     44 H18        -7.8860   -1.4708    5.1766 H         1 <0>         0.0665
     45 H19        -6.8052   -1.0006    6.5104 H         1 <0>         0.0236
@<TRIPOS>BOND
     1    1    2 1
     2    1   28 1
     3    1   29 1
     4    1   30 1
     5    2    3 1
     6    2    8 1
     7    2    4 1
     8    4    5 1
     9    4   31 1
    10    4   32 1
    11    5    6 1
    12    6   16 ar
    13    6    7 ar
    14    7   13 ar
    15    7    8 1
    16    8    9 1
    17    9   10 2
    18    9   33 1
    19   10   11 1
    20   10   25 1
    21   11   12 2
    22   11   13 1
    23   13   14 ar
    24   14   15 ar
    25   14   34 1
    26   15   16 ar
    27   15   24 1
    28   16   17 1
    29   17   22 1
    30   17   18 1
    31   18   19 1
    32   18   35 1
    33   18   36 1
    34   19   20 1
    35   19   37 1
    36   19   38 1
    37   20   21 1
    38   20   23 1
    39   21   22 1
    40   21   39 1
    41   21   40 1
    42   22   41 1
    43   22   42 1
    44   23   43 1
    45   23   44 1
    46   23   45 1
    47   25   26 2
    48   25   27 1
@<TRIPOS>MOLECULE
ZINC00537891
   47    50     0     0     0
SMALL
USER_CHARGES

@<TRIPOS>ATOM
      1 C1         -0.6081    1.4949    0.2474 C.3       1 <0>        -0.1687
      2 C2         -0.5328   -0.0330    0.2194 C.3       1 <0>         0.0677
      3 H1         -0.1675   -0.3618   -0.7535 H         1 <0>         0.1427
      4 C3         -1.9263   -0.6186    0.4675 C.3       1 <0>         0.0488
      5 O1         -2.3242   -0.3064    1.8081 O.3       1 <0>        -0.2972
      6 C4         -1.4654   -0.6989    2.7921 C.2       1 <0>         0.0133
      7 C5         -0.1146   -0.8037    2.5253 C.2       1 <0>         0.1794
      8 N1          0.3816   -0.4982    1.2694 N.pl3     1 <0>        -0.4376
      9 C6          1.6897   -0.6207    0.9983 C.2       1 <0>         0.2656
     10 C7          2.5925   -1.0365    1.9622 C.2       1 <0>        -0.2948
     11 C8          2.1414   -1.3432    3.2694 C.2       1 <0>         0.3660
     12 O2          3.0103   -1.7405    4.2232 O.3       1 <0>        -0.4260
     13 C9          0.7682   -1.2240    3.5534 C.2       1 <0>        -0.1344
     14 C10         0.2697   -1.5182    4.8394 C.2       1 <0>        -0.0221
     15 C11        -1.0570   -1.4069    5.0975 C.2       1 <0>         0.0359
     16 C12        -1.9507   -0.9965    4.0785 C.2       1 <0>         0.2543
     17 N2         -3.2560   -0.8914    4.3393 N.pl3     1 <0>        -0.6047
     18 C13        -4.1129    0.0143    3.5585 C.3       1 <0>         0.0947
     19 C14        -4.9167    0.8822    4.5323 C.3       1 <0>        -0.0238
     20 N3         -5.6444    0.0181    5.4704 N.4       1 <0>        -0.3863
     21 C15        -4.6931   -0.7307    6.3014 C.3       1 <0>        -0.0200
     22 C16        -3.8792   -1.6826    5.4115 C.3       1 <0>         0.0544
     23 C17        -6.4996    0.8449    6.3323 C.3       1 <0>        -0.0480
     24 F1         -1.5281   -1.6892    6.3318 F         1 <0>        -0.1124
     25 C18         4.0177   -1.1600    1.6291 C.2       1 <0>         0.5386
     26 O3          4.3935   -0.9924    0.4765 O.co2     1 <0>        -0.6302
     27 O4          4.8294   -1.4306    2.5042 O.co2     1 <0>        -0.6498
     28 H2          0.3842    1.9109    0.0727 H         1 <0>         0.0811
     29 H3         -1.2886    1.8395   -0.5312 H         1 <0>         0.0978
     30 H4         -0.9734    1.8230    1.2205 H         1 <0>         0.0709
     31 H5         -2.6364   -0.1829   -0.2354 H         1 <0>         0.1479
     32 H6         -1.8967   -1.7004    0.3374 H         1 <0>         0.0870
     33 H7          2.0467   -0.3901    0.0055 H         1 <0>         0.2123
     34 H8          0.9460   -1.8331    5.6203 H         1 <0>         0.1778
     35 H9         -3.4933    0.6506    2.9266 H         1 <0>         0.1459
     36 H10        -4.7944   -0.5692    2.9396 H         1 <0>         0.0998
     37 H11        -4.2381    1.5303    5.0869 H         1 <0>         0.1342
     38 H12        -5.6271    1.4921    3.9742 H         1 <0>         0.1473
     39 H13        -4.0212   -0.0338    6.8024 H         1 <0>         0.1361
     40 H14        -5.2387   -1.3092    7.0469 H         1 <0>         0.1479
     41 H15        -4.5376   -2.4346    4.9765 H         1 <0>         0.1016
     42 H16        -3.1051   -2.1688    6.0053 H         1 <0>         0.1609
     43 H17        -7.2116    1.3952    5.7172 H         1 <0>         0.1270
     44 H18        -7.0404    0.2046    7.0292 H         1 <0>         0.1275
     45 H19        -5.8815    1.5484    6.8901 H         1 <0>         0.1231
     46 H20        -6.2191   -0.6296    4.9525 H         1 <0>         0.4260
     47 H21         3.9371   -1.7086    3.9489 H         1 <0>         0.4426
@<TRIPOS>BOND
     1    1    2 1
     2    1   28 1
     3    1   29 1
     4    1   30 1
     5    2    3 1
     6    2    8 1
     7    2    4 1
     8    4    5 1
     9    4   31 1
    10    4   32 1
    11    5    6 1
    12    6   16 1
    13    6    7 2
    14    7   13 1
    15    7    8 1
    16    8    9 1
    17    9   10 2
    18    9   33 1
    19   10   11 1
    20   10   25 1
    21   11   12 1
    22   11   13 2
    23   12   47 1
    24   13   14 1
    25   14   15 2
    26   14   34 1
    27   15   16 1
    28   15   24 1
    29   16   17 2
    30   17   22 1
    31   17   18 1
    32   18   19 1
    33   18   35 1
    34   18   36 1
    35   19   20 1
    36   19   37 1
    37   19   38 1
    38   20   21 1
    39   20   23 1
    40   20   46 1
    41   21   22 1
    42   21   39 1
    43   21   40 1
    44   22   41 1
    45   22   42 1
    46   23   43 1
    47   23   44 1
    48   23   45 1
    49   25   26 2
    50   25   27 1
@<TRIPOS>MOLECULE
ZINC00538273
   46    49     0     0     0
SMALL
USER_CHARGES

@<TRIPOS>ATOM
      1 C1         -0.0187    1.5258    0.0104 C.3       1 <0>        -0.1718
      2 C2          0.0021   -0.0041    0.0020 C.3       1 <0>         0.0909
      3 H1         -1.0203   -0.3819    0.0098 H         1 <0>         0.1015
      4 C3          0.7201   -0.4985   -1.2565 C.3       1 <0>         0.0502
      5 O1          0.8511   -1.9233   -1.1803 O.3       1 <0>        -0.2969
      6 C4          1.4737   -2.4030   -0.0677 C.ar      1 <0>         0.0877
      7 C5          1.4165   -1.6828    1.1242 C.ar      1 <0>         0.1456
      8 N1          0.7148   -0.4920    1.1925 N.pl3     1 <0>        -0.4937
      9 C6          0.6609    0.2389    2.3166 C.2       1 <0>         0.1446
     10 C7          1.2772   -0.1508    3.4882 C.2       1 <0>        -0.2813
     11 C8          2.0263   -1.4188    3.5118 C.2       1 <0>         0.4120
     12 O2          2.5801   -1.8122    4.5236 O.2       1 <0>        -0.4320
     13 C9          2.0773   -2.1901    2.2569 C.ar      1 <0>        -0.1349
     14 C10         2.7674   -3.4034    2.1893 C.ar      1 <0>        -0.0787
     15 C11         2.8070   -4.1020    1.0154 C.ar      1 <0>         0.0711
     16 C12         2.1627   -3.6063   -0.1197 C.ar      1 <0>         0.1332
     17 N2          2.2112   -4.3266   -1.3147 N.pl3     1 <0>        -0.6589
     18 C13         1.1831   -5.3284   -1.6364 C.3       1 <0>         0.1224
     19 C14         1.8831   -6.6290   -2.0442 C.3       1 <0>        -0.0239
     20 N3          2.8251   -6.3550   -3.1367 N.4       1 <0>        -0.3810
     21 C15         3.8921   -5.4632   -2.6651 C.3       1 <0>        -0.0240
     22 C16         3.2886   -4.1008   -2.2907 C.3       1 <0>         0.1227
     23 C17         3.4144   -7.6179   -3.6010 C.3       1 <0>        -0.0457
     24 F1          3.4724   -5.2761    0.9529 F         1 <0>        -0.1372
     25 C18         1.1882    0.6842    4.6901 C.2       1 <0>         0.5347
     26 O3          0.5634    1.7364    4.6595 O.co2     1 <0>        -0.6965
     27 O4          1.7387    0.3291    5.7242 O.co2     1 <0>        -0.6583
     28 H2          1.0039    1.9031    0.0027 H         1 <0>         0.0739
     29 H3         -0.5459    1.8868   -0.8726 H         1 <0>         0.0849
     30 H4         -0.5289    1.8773    0.9072 H         1 <0>         0.0868
     31 H5          0.1379   -0.2315   -2.1384 H         1 <0>         0.1304
     32 H6          1.7086   -0.0431   -1.3163 H         1 <0>         0.0760
     33 H7          0.1134    1.1698    2.3038 H         1 <0>         0.1770
     34 H8          3.2697   -3.7887    3.0644 H         1 <0>         0.1566
     35 H9          0.5593   -5.5072   -0.7607 H         1 <0>         0.1151
     36 H10         0.5675   -4.9696   -2.4612 H         1 <0>         0.0807
     37 H11         2.4254   -7.0333   -1.1895 H         1 <0>         0.1323
     38 H12         1.1395   -7.3526   -2.3783 H         1 <0>         0.1356
     39 H13         4.3736   -5.9028   -1.7916 H         1 <0>         0.1326
     40 H14         4.6289   -5.3278   -3.4569 H         1 <0>         0.1351
     41 H15         2.8819   -3.6202   -3.1804 H         1 <0>         0.0803
     42 H16         4.0573   -3.4677   -1.8477 H         1 <0>         0.1143
     43 H17         2.6241   -8.2778   -3.9588 H         1 <0>         0.1221
     44 H18         4.1140   -7.4159   -4.4121 H         1 <0>         0.1220
     45 H19         3.9425   -8.0972   -2.7766 H         1 <0>         0.1205
     46 H20         2.3338   -5.9151   -3.9004 H         1 <0>         0.4224
@<TRIPOS>BOND
     1    1    2 1
     2    1   28 1
     3    1   29 1
     4    1   30 1
     5    2    3 1
     6    2    8 1
     7    2    4 1
     8    4    5 1
     9    4   31 1
    10    4   32 1
    11    5    6 1
    12    6   16 ar
    13    6    7 ar
    14    7   13 ar
    15    7    8 1
    16    8    9 1
    17    9   10 2
    18    9   33 1
    19   10   11 1
    20   10   25 1
    21   11   12 2
    22   11   13 1
    23   13   14 ar
    24   14   15 ar
    25   14   34 1
    26   15   16 ar
    27   15   24 1
    28   16   17 1
    29   17   22 1
    30   17   18 1
    31   18   19 1
    32   18   35 1
    33   18   36 1
    34   19   20 1
    35   19   37 1
    36   19   38 1
    37   20   21 1
    38   20   23 1
    39   20   46 1
    40   21   22 1
    41   21   39 1
    42   21   40 1
    43   22   41 1
    44   22   42 1
    45   23   43 1
    46   23   44 1
    47   23   45 1
    48   25   26 2
    49   25   27 1
@<TRIPOS>MOLECULE
ZINC00538273
   47    50     0     0     0
SMALL
USER_CHARGES

@<TRIPOS>ATOM
      1 C1          0.1199    1.0956   -0.5812 C.3       1 <0>        -0.1816
      2 C2          0.1738   -0.4175   -0.3609 C.3       1 <0>         0.0715
      3 H1         -0.8372   -0.8246   -0.3806 H         1 <0>         0.1292
      4 C3          1.0083   -1.0666   -1.4694 C.3       1 <0>         0.0478
      5 O1          1.1793   -2.4558   -1.1625 O.3       1 <0>        -0.2993
      6 C4          1.7179   -2.7352    0.0587 C.2       1 <0>         0.0125
      7 C5          1.5340   -1.8579    1.1092 C.2       1 <0>         0.1790
      8 N1          0.7918   -0.7021    0.9399 N.pl3     1 <0>        -0.4377
      9 C6          0.6290    0.1640    1.9512 C.2       1 <0>         0.2588
     10 C7          1.1762   -0.0718    3.2010 C.2       1 <0>        -0.2939
     11 C8          1.9276   -1.2497    3.4341 C.2       1 <0>         0.3652
     12 O2          2.4597   -1.4990    4.6495 O.3       1 <0>        -0.4260
     13 C9          2.1086   -2.1531    2.3723 C.2       1 <0>        -0.1342
     14 C10         2.8487   -3.3396    2.5546 C.2       1 <0>        -0.0215
     15 C11         3.0202   -4.2009    1.5212 C.2       1 <0>         0.0361
     16 C12         2.4595   -3.9147    0.2527 C.2       1 <0>         0.2548
     17 N2          2.6345   -4.7663   -0.7609 N.pl3     1 <0>        -0.6048
     18 C13         1.6738   -4.8256   -1.8734 C.3       1 <0>         0.0946
     19 C14         1.2713   -6.2881   -2.0901 C.3       1 <0>        -0.0237
     20 N3          2.4771   -7.1027   -2.2865 N.4       1 <0>        -0.3863
     21 C15         3.2911   -7.0939   -1.0644 C.3       1 <0>        -0.0200
     22 C16         3.7966   -5.6674   -0.7997 C.3       1 <0>         0.0544
     23 C17         2.0871   -8.4831   -2.6030 C.3       1 <0>        -0.0480
     24 F1          3.7295   -5.3363    1.7025 F         1 <0>        -0.1122
     25 C18         0.9772    0.8991    4.2850 C.2       1 <0>         0.5386
     26 O3          0.4141    1.9619    4.0589 O.co2     1 <0>        -0.6302
     27 O4          1.3746    0.6452    5.4144 O.co2     1 <0>        -0.6495
     28 H2          1.1312    1.5018   -0.5614 H         1 <0>         0.0821
     29 H3         -0.3373    1.3060   -1.5480 H         1 <0>         0.1048
     30 H4         -0.4725    1.5569    0.2090 H         1 <0>         0.0914
     31 H5          0.4918   -0.9639   -2.4237 H         1 <0>         0.1480
     32 H6          1.9830   -0.5818   -1.5246 H         1 <0>         0.0875
     33 H7          0.0583    1.0661    1.7868 H         1 <0>         0.2142
     34 H8          3.2802   -3.5627    3.5192 H         1 <0>         0.1781
     35 H9          0.7912   -4.2354   -1.6271 H         1 <0>         0.1458
     36 H10         2.1379   -4.4354   -2.7792 H         1 <0>         0.0998
     37 H11         0.7274   -6.6485   -1.2170 H         1 <0>         0.1343
     38 H12         0.6346   -6.3630   -2.9716 H         1 <0>         0.1474
     39 H13         2.6861   -7.4300   -0.2223 H         1 <0>         0.1362
     40 H14         4.1426   -7.7626   -1.1901 H         1 <0>         0.1479
     41 H15         4.4714   -5.3607   -1.5989 H         1 <0>         0.1017
     42 H16         4.3181   -5.6340    0.1569 H         1 <0>         0.1610
     43 H17         1.4895   -8.4919   -3.5145 H         1 <0>         0.1270
     44 H18         2.9814   -9.0889   -2.7490 H         1 <0>         0.1275
     45 H19         1.5011   -8.8928   -1.7803 H         1 <0>         0.1232
     46 H20         3.0162   -6.7244   -3.0509 H         1 <0>         0.4260
     47 H21         2.2080   -0.8576    5.3281 H         1 <0>         0.4425
@<TRIPOS>BOND
     1    1    2 1
     2    1   28 1
     3    1   29 1
     4    1   30 1
     5    2    3 1
     6    2    8 1
     7    2    4 1
     8    4    5 1
     9    4   31 1
    10    4   32 1
    11    5    6 1
    12    6   16 1
    13    6    7 2
    14    7   13 1
    15    7    8 1
    16    8    9 1
    17    9   10 2
    18    9   33 1
    19   10   11 1
    20   10   25 1
    21   11   12 1
    22   11   13 2
    23   12   47 1
    24   13   14 1
    25   14   15 2
    26   14   34 1
    27   15   16 1
    28   15   24 1
    29   16   17 2
    30   17   22 1
    31   17   18 1
    32   18   19 1
    33   18   35 1
    34   18   36 1
    35   19   20 1
    36   19   37 1
    37   19   38 1
    38   20   21 1
    39   20   23 1
    40   20   46 1
    41   21   22 1
    42   21   39 1
    43   21   40 1
    44   22   41 1
    45   22   42 1
    46   23   43 1
    47   23   44 1
    48   23   45 1
    49   25   26 2
    50   25   27 1
@<TRIPOS>MOLECULE
ZINC00538273
   45    48     0     0     0
SMALL
USER_CHARGES

@<TRIPOS>ATOM
      1 C1         -0.0187    1.5258    0.0104 C.3       1 <0>        -0.1689
      2 C2          0.0021   -0.0041    0.0020 C.3       1 <0>         0.0912
      3 H1         -1.0203   -0.3819    0.0098 H         1 <0>         0.0987
      4 C3          0.7201   -0.4985   -1.2565 C.3       1 <0>         0.0496
      5 O1          0.8511   -1.9233   -1.1803 O.3       1 <0>        -0.2895
      6 C4          1.4737   -2.4030   -0.0677 C.ar      1 <0>         0.0791
      7 C5          1.4165   -1.6828    1.1242 C.ar      1 <0>         0.1391
      8 N1          0.7148   -0.4920    1.1925 N.pl3     1 <0>        -0.4959
      9 C6          0.6609    0.2389    2.3166 C.2       1 <0>         0.1533
     10 C7          1.2772   -0.1508    3.4882 C.2       1 <0>        -0.2968
     11 C8          2.0263   -1.4188    3.5118 C.2       1 <0>         0.4174
     12 O2          2.5801   -1.8122    4.5236 O.2       1 <0>        -0.4440
     13 C9          2.0773   -2.1901    2.2569 C.ar      1 <0>        -0.1438
     14 C10         2.7674   -3.4034    2.1893 C.ar      1 <0>        -0.0871
     15 C11         2.8070   -4.1020    1.0154 C.ar      1 <0>         0.0740
     16 C12         2.1627   -3.6063   -0.1197 C.ar      1 <0>         0.1605
     17 N2          2.2112   -4.3266   -1.3147 N.pl3     1 <0>        -0.6625
     18 C13         1.1827   -5.3279   -1.6349 C.3       1 <0>         0.1541
     19 C14         1.8806   -6.6356   -2.0234 C.3       1 <0>         0.0392
     20 N3          2.8460   -6.3710   -3.0986 N.3       1 <0>        -0.5403
     21 C15         3.9073   -5.4600   -2.6496 C.3       1 <0>         0.0392
     22 C16         3.2890   -4.0998   -2.2895 C.3       1 <0>         0.1540
     23 C17         3.4119   -7.6232   -3.6180 C.3       1 <0>         0.0255
     24 F1          3.4724   -5.2761    0.9529 F         1 <0>        -0.1326
     25 C18         1.1882    0.6842    4.6901 C.2       1 <0>         0.5386
     26 O3          0.5634    1.7364    4.6595 O.co2     1 <0>        -0.7037
     27 O4          1.7387    0.3291    5.7242 O.co2     1 <0>        -0.6637
     28 H2          1.0039    1.9031    0.0027 H         1 <0>         0.0722
     29 H3         -0.5459    1.8868   -0.8726 H         1 <0>         0.0822
     30 H4         -0.5289    1.8773    0.9072 H         1 <0>         0.0834
     31 H5          0.1379   -0.2315   -2.1384 H         1 <0>         0.1267
     32 H6          1.7086   -0.0431   -1.3163 H         1 <0>         0.0727
     33 H7          0.1134    1.1698    2.3038 H         1 <0>         0.1727
     34 H8          3.2697   -3.7887    3.0644 H         1 <0>         0.1516
     35 H9          0.5506   -5.4953   -0.7628 H         1 <0>         0.0709
     36 H10         0.5754   -4.9753   -2.4686 H         1 <0>         0.0607
     37 H11         2.4034   -7.0403   -1.1568 H         1 <0>         0.0388
     38 H12         1.1386   -7.3550   -2.3697 H         1 <0>         0.0787
     39 H13         4.4018   -5.8811   -1.7742 H         1 <0>         0.0392
     40 H14         4.6351   -5.3268   -3.4501 H         1 <0>         0.0782
     41 H15         2.8803   -3.6314   -3.1849 H         1 <0>         0.0602
     42 H16         4.0501   -3.4548   -1.8504 H         1 <0>         0.0701
     43 H17         2.6107   -8.2475   -4.0135 H         1 <0>         0.0669
     44 H18         4.1232   -7.3984   -4.4127 H         1 <0>         0.0665
     45 H19         3.9216   -8.1529   -2.8132 H         1 <0>         0.0237
@<TRIPOS>BOND
     1    1    2 1
     2    1   28 1
     3    1   29 1
     4    1   30 1
     5    2    3 1
     6    2    8 1
     7    2    4 1
     8    4    5 1
     9    4   31 1
    10    4   32 1
    11    5    6 1
    12    6   16 ar
    13    6    7 ar
    14    7   13 ar
    15    7    8 1
    16    8    9 1
    17    9   10 2
    18    9   33 1
    19   10   11 1
    20   10   25 1
    21   11   12 2
    22   11   13 1
    23   13   14 ar
    24   14   15 ar
    25   14   34 1
    26   15   16 ar
    27   15   24 1
    28   16   17 1
    29   17   22 1
    30   17   18 1
    31   18   19 1
    32   18   35 1
    33   18   36 1
    34   19   20 1
    35   19   37 1
    36   19   38 1
    37   20   21 1
    38   20   23 1
    39   21   22 1
    40   21   39 1
    41   21   40 1
    42   22   41 1
    43   22   42 1
    44   23   43 1
    45   23   44 1
    46   23   45 1
    47   25   26 2
    48   25   27 1
