@<TRIPOS>MOLECULE
ZINC13522253
   63    63     0     0     0
SMALL
USER_CHARGES
(2E,4E,6Z)-7-[3,5-ditert-butyl-2-(2,2-difluoroethoxy)phenyl]-3-methyl-octa-2,4,6-trienoic acid
@<TRIPOS>ATOM
      1 C1         -3.8934    1.7062    6.6584 C.3       1 <0>        -0.0966
      2 C2         -4.9030    0.7856    6.0225 C.2       1 <0>        -0.0992
      3 C3         -6.1703    0.7179    6.5180 C.2       1 <0>        -0.1402
      4 C4         -6.5833    1.6168    7.5235 C.2       1 <0>         0.4642
      5 O1         -5.8476    2.5229    7.8696 O.co2     1 <0>        -0.6252
      6 C5         -4.5374   -0.0027    4.9188 C.2       1 <0>        -0.0716
      7 C6         -3.2699    0.0650    4.4232 C.2       1 <0>        -0.1624
      8 C7         -2.9035   -0.7251    3.3170 C.2       1 <0>        -0.1034
      9 C8         -1.6423   -0.6577    2.8239 C.2       1 <0>        -0.0978
     10 C9         -1.2501   -1.5034    1.6398 C.3       1 <0>        -0.1033
     11 C10        -0.6590    0.2389    3.4433 C.ar      1 <0>        -0.0531
     12 C11        -0.0615   -0.1046    4.6620 C.ar      1 <0>        -0.0999
     13 C12         0.8565    0.7447    5.2394 C.ar      1 <0>        -0.0672
     14 C13         1.1958    1.9356    4.6174 C.ar      1 <0>        -0.1077
     15 C14         0.6178    2.2856    3.4120 C.ar      1 <0>        -0.0745
     16 C15        -0.3076    1.4452    2.8148 C.ar      1 <0>         0.0985
     17 O2         -0.8761    1.7883    1.6311 O.3       1 <0>        -0.3078
     18 C16        -2.2212    2.2691    1.6726 C.3       1 <0>        -0.0010
     19 C17        -2.6365    2.7434    0.2786 C.3       1 <0>         0.2719
     20 F1         -1.7856    3.7735   -0.1363 F         1 <0>        -0.1982
     21 F2         -2.5503    1.6762   -0.6220 F         1 <0>        -0.1979
     22 C18         0.9953    3.5835    2.7457 C.3       1 <0>        -0.0193
     23 C19         2.1273    4.2494    3.5305 C.3       1 <0>        -0.1441
     24 C20         1.4613    3.3057    1.3151 C.3       1 <0>        -0.1391
     25 C21        -0.2195    4.5131    2.7149 C.3       1 <0>        -0.1509
     26 C22         1.4952    0.3768    6.5538 C.3       1 <0>        -0.0274
     27 C23         1.1687    1.4473    7.5970 C.3       1 <0>        -0.1407
     28 C24         0.9535   -0.9749    7.0234 C.3       1 <0>        -0.1463
     29 C25         3.0120    0.2842    6.3755 C.3       1 <0>        -0.1368
     30 H1         -4.0046    2.7086    6.2448 H         1 <0>         0.0613
     31 H2         -4.0578    1.7372    7.7355 H         1 <0>         0.0882
     32 H3         -2.8876    1.3386    6.4548 H         1 <0>         0.0354
     33 H4         -6.8587   -0.0239    6.1410 H         1 <0>         0.1049
     34 H5         -5.2609   -0.6624    4.4631 H         1 <0>         0.1107
     35 H6         -2.5464    0.7247    4.8789 H         1 <0>         0.1205
     36 H7         -3.6270   -1.3848    2.8613 H         1 <0>         0.1155
     37 H8         -0.9515   -2.4938    1.9837 H         1 <0>         0.0646
     38 H9         -2.0985   -1.5948    0.9616 H         1 <0>         0.0643
     39 H10        -0.4166   -1.0335    1.1178 H         1 <0>         0.0643
     40 H11        -0.3229   -1.0317    5.1504 H         1 <0>         0.1308
     41 H12         1.9166    2.5949    5.0781 H         1 <0>         0.1292
     42 H13        -2.2883    3.1005    2.3743 H         1 <0>         0.0903
     43 H14        -2.8841    1.4665    1.9958 H         1 <0>         0.0921
     44 H15        -3.6624    3.1101    0.3102 H         1 <0>         0.1258
     45 H16         2.9927    3.5872    3.5525 H         1 <0>         0.0564
     46 H17         2.4003    5.1882    3.0485 H         1 <0>         0.0572
     47 H18         1.7953    4.4474    4.5497 H         1 <0>         0.0578
     48 H19         0.6247    2.9276    0.7275 H         1 <0>         0.0777
     49 H20         1.8318    4.2281    0.8681 H         1 <0>         0.0508
     50 H21         2.2593    2.5633    1.3306 H         1 <0>         0.0485
     51 H22        -0.5515    4.7110    3.7340 H         1 <0>         0.0543
     52 H23         0.0535    5.4519    2.2329 H         1 <0>         0.0583
     53 H24        -1.0260    4.0387    2.1557 H         1 <0>         0.0662
     54 H25         0.0882    1.5133    7.7240 H         1 <0>         0.0614
     55 H26         1.6308    1.1812    8.5476 H         1 <0>         0.0579
     56 H27         1.5547    2.4103    7.2624 H         1 <0>         0.0557
     57 H28         1.1861   -1.7376    6.2803 H         1 <0>         0.0572
     58 H29         1.4155   -1.2410    7.9741 H         1 <0>         0.0578
     59 H30        -0.1270   -0.9089    7.1504 H         1 <0>         0.0624
     60 H31         3.3979    1.2471    6.0410 H         1 <0>         0.0556
     61 H32         3.4740    0.0181    7.3262 H         1 <0>         0.0574
     62 H33         3.2446   -0.4785    5.6324 H         1 <0>         0.0551
     63 O3         -7.7947    1.4722    8.1023 O.co2     1 <0>        -0.7691
@<TRIPOS>BOND
     1    1    2 1
     2    1   30 1
     3    1   31 1
     4    1   32 1
     5    2    3 2
     6    2    6 1
     7    3    4 1
     8    3   33 1
     9    4    5 2
    10    4   63 1
    11    6    7 2
    12    6   34 1
    13    7    8 1
    14    7   35 1
    15    8    9 2
    16    8   36 1
    17    9   10 1
    18    9   11 1
    19   10   37 1
    20   10   38 1
    21   10   39 1
    22   11   16 ar
    23   11   12 ar
    24   12   13 ar
    25   12   40 1
    26   13   14 ar
    27   13   26 1
    28   14   15 ar
    29   14   41 1
    30   15   16 ar
    31   15   22 1
    32   16   17 1
    33   17   18 1
    34   18   19 1
    35   18   42 1
    36   18   43 1
    37   19   20 1
    38   19   21 1
    39   19   44 1
    40   22   23 1
    41   22   24 1
    42   22   25 1
    43   23   45 1
    44   23   46 1
    45   23   47 1
    46   24   48 1
    47   24   49 1
    48   24   50 1
    49   25   51 1
    50   25   52 1
    51   25   53 1
    52   26   27 1
    53   26   28 1
    54   26   29 1
    55   27   54 1
    56   27   55 1
    57   27   56 1
    58   28   57 1
    59   28   58 1
    60   28   59 1
    61   29   60 1
    62   29   61 1
    63   29   62 1
@<TRIPOS>MOLECULE
ZINC03990465
   53    57     0     0     0
SMALL
USER_CHARGES

@<TRIPOS>ATOM
      1 C1         -3.6603   -1.0928    0.0153 C.ar      1 <0>        -0.1148
      2 C2         -2.4866   -0.3940    0.0126 C.ar      1 <0>        -0.1044
      3 C3         -2.5041    1.0019    0.0198 C.ar      1 <0>        -0.0694
      4 C4         -3.7206    1.6868    0.0351 C.ar      1 <0>        -0.1016
      5 C5         -4.8967    0.9922    0.0325 C.ar      1 <0>        -0.1190
      6 C6         -4.8816   -0.4079    0.0253 C.ar      1 <0>        -0.0256
      7 C7         -6.1457   -1.1576    0.0277 C.2       1 <0>        -0.1263
      8 C8         -7.3233   -0.4959    0.0373 C.2       1 <0>        -0.1373
      9 C9         -8.5801   -1.2413    0.0397 C.2       1 <0>         0.4720
     10 O1         -8.5660   -2.4576    0.0330 O.co2     1 <0>        -0.6331
     11 C10        -1.2297    1.7577    0.0174 C.ar      1 <0>        -0.0344
     12 C11        -0.0126    1.0758    0.0080 C.ar      1 <0>        -0.1053
     13 C12         1.1711    1.7819    0.0004 C.ar      1 <0>        -0.1390
     14 C13         1.1532    3.1708    0.0071 C.ar      1 <0>         0.1010
     15 C14        -0.0564    3.8525    0.0219 C.ar      1 <0>        -0.0900
     16 C15        -1.2441    3.1523    0.0294 C.ar      1 <0>        -0.1020
     17 C16        -0.0711    5.3594    0.0291 C.3       1 <0>        -0.0022
     18 C17        -1.5184    5.8553    0.0452 C.3       1 <0>        -0.1081
     19 C18        -1.5333    7.3852    0.0525 C.3       1 <0>        -0.0856
     20 C19        -0.8051    7.8964    1.2973 C.3       1 <0>        -0.1094
     21 C20         0.6422    7.4005    1.2812 C.3       1 <0>        -0.0856
     22 C21         0.6571    5.8706    1.2738 C.3       1 <0>        -0.1005
     23 C22         1.3465    7.9233    0.0276 C.3       1 <0>        -0.1064
     24 C23         0.6184    7.4122   -1.2172 C.3       1 <0>        -0.0841
     25 C24        -0.8289    7.9081   -1.2011 C.3       1 <0>        -0.1088
     26 C25         0.6333    5.8823   -1.2245 C.3       1 <0>        -0.1007
     27 O2          2.3216    3.8637   -0.0003 O.3       1 <0>        -0.4918
     28 H1         -3.6463   -2.1727    0.0094 H         1 <0>         0.1265
     29 H2         -1.5444   -0.9218    0.0053 H         1 <0>         0.1222
     30 H3         -3.7317    2.7667    0.0448 H         1 <0>         0.1214
     31 H4         -5.8375    1.5224    0.0398 H         1 <0>         0.1298
     32 H5         -6.1332   -2.2375    0.0218 H         1 <0>         0.1284
     33 H6         -7.3358    0.5840    0.0432 H         1 <0>         0.1077
     34 H7          0.0021   -0.0041    0.0020 H         1 <0>         0.1284
     35 H8          2.1136    1.2547   -0.0110 H         1 <0>         0.1272
     36 H9         -2.1846    3.6831    0.0405 H         1 <0>         0.1336
     37 H10        -2.0371    5.4911   -0.8416 H         1 <0>         0.0657
     38 H11        -2.0202    5.4828    0.9383 H         1 <0>         0.0662
     39 H12        -2.5644    7.7385    0.0640 H         1 <0>         0.0705
     40 H13        -1.3069    7.5239    2.1903 H         1 <0>         0.0613
     41 H14        -0.8157    8.9863    1.3025 H         1 <0>         0.0598
     42 H15         1.1609    7.7646    2.1680 H         1 <0>         0.0678
     43 H16         0.1553    5.4981    2.1669 H         1 <0>         0.0576
     44 H17         1.6882    5.5173    1.2624 H         1 <0>         0.0813
     45 H18         1.3359    9.0133    0.0328 H         1 <0>         0.0590
     46 H19         2.3776    7.5701    0.0161 H         1 <0>         0.0615
     47 H20         1.1202    7.7847   -2.1102 H         1 <0>         0.0682
     48 H21        -1.3477    7.5439   -2.0879 H         1 <0>         0.0614
     49 H22        -0.8395    8.9980   -1.1958 H         1 <0>         0.0606
     50 H23         1.6643    5.5290   -1.2360 H         1 <0>         0.0645
     51 H24         0.1145    5.5181   -2.1113 H         1 <0>         0.0608
     52 H25         2.6518    4.0684   -0.8858 H         1 <0>         0.3818
     53 O3         -9.7564   -0.5803    0.0493 O.co2     1 <0>        -0.7607
@<TRIPOS>BOND
     1    1    6 ar
     2    1    2 ar
     3    1   28 1
     4    2    3 ar
     5    2   29 1
     6    3    4 ar
     7    3   11 1
     8    4    5 ar
     9    4   30 1
    10    5    6 ar
    11    5   31 1
    12    6    7 1
    13    7    8 2
    14    7   32 1
    15    8    9 1
    16    8   33 1
    17    9   10 2
    18    9   53 1
    19   11   16 ar
    20   11   12 ar
    21   12   13 ar
    22   12   34 1
    23   13   14 ar
    24   13   35 1
    25   14   15 ar
    26   14   27 1
    27   15   16 ar
    28   15   17 1
    29   16   36 1
    30   17   22 1
    31   17   26 1
    32   17   18 1
    33   18   19 1
    34   18   37 1
    35   18   38 1
    36   19   25 1
    37   19   20 1
    38   19   39 1
    39   20   21 1
    40   20   40 1
    41   20   41 1
    42   21   22 1
    43   21   23 1
    44   21   42 1
    45   22   43 1
    46   22   44 1
    47   23   24 1
    48   23   45 1
    49   23   46 1
    50   24   25 1
    51   24   26 1
    52   24   47 1
    53   25   48 1
    54   25   49 1
    55   26   50 1
    56   26   51 1
    57   27   52 1
