@<TRIPOS>MOLECULE
ZINC03914596
  100   104     0     0     0
SMALL
USER_CHARGES
N-[1-benzyl-2-hydroxy-3-[3-(tert-butylcarbamoyl)-3,4,4a,5,6,7,8,8a-octahydro-1H-isoquinolin-2-yl]-propyl]-2-(2-quinolylcarbonylamino)butanediamide
@<TRIPOS>ATOM
      1 C1         -4.4157    0.4364   -1.9776 C.3       1 <0>        -0.1695
      2 C2         -5.2799    0.3860   -0.7161 C.3       1 <0>         0.1678
      3 C3         -6.3406   -0.7062   -0.8678 C.3       1 <0>        -0.1620
      4 C4         -5.9660    1.7384   -0.5135 C.3       1 <0>        -0.1682
      5 N1         -4.4350    0.0885    0.4431 N.am      1 <0>        -0.6939
      6 C5         -3.4261    0.9192    0.7726 C.2       1 <0>         0.5082
      7 O1         -3.2178    1.9130    0.1094 O.2       1 <0>        -0.5257
      8 C6         -2.5570    0.6132    1.9651 C.3       1 <0>        -0.0031
      9 H1         -2.3553   -0.4574    2.0016 H         1 <0>         0.1865
     10 C7         -3.2796    1.0397    3.2453 C.3       1 <0>        -0.1377
     11 C8         -2.3813    0.7506    4.4504 C.3       1 <0>        -0.0875
     12 H2         -2.1891   -0.3208    4.5073 H         1 <0>         0.0919
     13 C9         -3.0736    1.2115    5.7325 C.3       1 <0>        -0.1155
     14 C10        -3.3386    2.7166    5.6608 C.3       1 <0>        -0.1292
     15 C11        -2.0097    3.4586    5.5027 C.3       1 <0>        -0.1199
     16 C12        -1.3231    3.0028    4.2142 C.3       1 <0>        -0.1319
     17 C13        -1.0558    1.4973    4.2798 C.3       1 <0>        -0.1059
     18 H3         -0.3980    1.2713    5.1191 H         1 <0>         0.1232
     19 C14        -0.3950    1.0475    2.9730 C.3       1 <0>        -0.0037
     20 C15        -0.6344    1.0606    0.5640 C.3       1 <0>        -0.0583
     21 C16        -0.3845   -0.4439    0.4419 C.3       1 <0>         0.0803
     22 H4          0.1831   -0.7892    1.3060 H         1 <0>         0.1330
     23 C17         0.4084   -0.7272   -0.8356 C.3       1 <0>         0.1330
     24 H5          1.3225   -0.1334   -0.8350 H         1 <0>         0.1107
     25 C18        -0.4392   -0.3574   -2.0545 C.3       1 <0>        -0.1009
     26 C19         0.3837   -0.5199   -3.3065 C.ar      1 <0>        -0.0744
     27 C20         1.1207    0.5440   -3.7922 C.ar      1 <0>        -0.1057
     28 C21         1.8793    0.3935   -4.9379 C.ar      1 <0>        -0.1079
     29 C22         1.8930   -0.8180   -5.6036 C.ar      1 <0>        -0.1084
     30 C23         1.1515   -1.8802   -5.1211 C.ar      1 <0>        -0.1066
     31 C24         0.3970   -1.7312   -3.9725 C.ar      1 <0>        -0.1086
     32 N2          0.7506   -2.1505   -0.8924 N.am      1 <0>        -0.7283
     33 C25         1.8228   -2.5581   -1.6000 C.2       1 <0>         0.5189
     34 O2          2.5044   -1.7465   -2.1898 O.2       1 <0>        -0.4737
     35 C26         2.1749   -4.0222   -1.6585 C.3       1 <0>         0.1476
     36 H6          1.3448   -4.5784   -2.0942 H         1 <0>         0.1214
     37 C27         2.4476   -4.5380   -0.2441 C.3       1 <0>        -0.1595
     38 C28         3.6445   -3.8238    0.3290 C.2       1 <0>         0.5110
     39 O3          4.1765   -2.9325   -0.2983 O.2       1 <0>        -0.5209
     40 N3          4.1237   -4.1754    1.5386 N.am      1 <0>        -0.8554
     41 N4          3.3714   -4.2042   -2.4838 N.am      1 <0>        -0.6835
     42 C29         3.5663   -5.3642   -3.1417 C.2       1 <0>         0.5762
     43 O4          2.7974   -6.2910   -2.9798 O.2       1 <0>        -0.5322
     44 C30         4.7189   -5.5095   -4.0631 C.ar      1 <0>         0.1086
     45 C31         4.9097   -6.7258   -4.7354 C.ar      1 <0>        -0.1272
     46 C32         5.9634   -6.8703   -5.5911 C.ar      1 <0>        -0.0587
     47 C33         6.8387   -5.7810   -5.7598 C.ar      1 <0>        -0.0833
     48 C34         7.9469   -5.8623   -6.6183 C.ar      1 <0>        -0.1023
     49 C35         8.7718   -4.7882   -6.7567 C.ar      1 <0>        -0.1013
     50 C36         8.5326   -3.6063   -6.0566 C.ar      1 <0>        -0.1004
     51 C37         7.4699   -3.4911   -5.2158 C.ar      1 <0>        -0.0851
     52 C38         6.5928   -4.5795   -5.0455 C.ar      1 <0>         0.1230
     53 N5          5.5440   -4.4940   -4.2277 N.ar      1 <0>        -0.4337
     54 O5         -1.6359   -1.1317    0.3881 O.3       1 <0>        -0.5532
     55 H7         -3.9269   -0.5271   -2.1219 H         1 <0>         0.0576
     56 H8         -5.0443    0.6577   -2.8401 H         1 <0>         0.0767
     57 H9         -3.6601    1.2145   -1.8695 H         1 <0>         0.0761
     58 H10        -6.9563   -0.7422    0.0309 H         1 <0>         0.0672
     59 H11        -6.9692   -0.4849   -1.7303 H         1 <0>         0.0835
     60 H12        -5.8518   -1.6698   -1.0122 H         1 <0>         0.0676
     61 H13        -5.2104    2.5166   -0.4054 H         1 <0>         0.0770
     62 H14        -6.5946    1.9598   -1.3760 H         1 <0>         0.0736
     63 H15        -6.5817    1.7025    0.3852 H         1 <0>         0.0587
     64 H16        -4.6017   -0.7064    0.9736 H         1 <0>         0.4100
     65 H17        -4.2099    0.4800    3.3421 H         1 <0>         0.1136
     66 H18        -3.4991    2.1065    3.2024 H         1 <0>         0.0973
     67 H19        -4.0194    0.6815    5.8449 H         1 <0>         0.0753
     68 H20        -2.4333    0.9967    6.5880 H         1 <0>         0.0772
     69 H21        -3.9797    2.9327    4.8062 H         1 <0>         0.0639
     70 H22        -3.8308    3.0433    6.5769 H         1 <0>         0.0747
     71 H23        -2.1957    4.5315    5.4555 H         1 <0>         0.0740
     72 H24        -1.3667    3.2383    6.3549 H         1 <0>         0.0737
     73 H25        -0.3785    3.5344    4.0986 H         1 <0>         0.0811
     74 H26        -1.9680    3.2201    3.3628 H         1 <0>         0.0564
     75 H27        -0.2045   -0.0250    3.0121 H         1 <0>         0.1332
     76 H28         0.5468    1.5799    2.8398 H         1 <0>         0.1351
     77 H29         0.3162    1.5919    0.5156 H         1 <0>         0.1464
     78 H30        -1.2765    1.3898   -0.2530 H         1 <0>         0.1529
     79 H31        -1.3093   -1.0120   -2.1041 H         1 <0>         0.0770
     80 H32        -0.7680    0.6782   -1.9677 H         1 <0>         0.0796
     81 H33         1.1068    1.4917   -3.2744 H         1 <0>         0.1117
     82 H34         2.4584    1.2235   -5.3151 H         1 <0>         0.1190
     83 H35         2.4828   -0.9345   -6.5008 H         1 <0>         0.1181
     84 H36         1.1619   -2.8265   -5.6414 H         1 <0>         0.1150
     85 H37        -0.1823   -2.5611   -3.5955 H         1 <0>         0.1082
     86 H38         0.2055   -2.7996   -0.4207 H         1 <0>         0.4028
     87 H39         1.5773   -4.3510    0.3850 H         1 <0>         0.1055
     88 H40         2.6465   -5.6091   -0.2800 H         1 <0>         0.1152
     89 H41         3.6982   -4.8882    2.0403 H         1 <0>         0.4021
     90 H42         4.8941   -3.7157    1.9075 H         1 <0>         0.4043
     91 H43         4.0235   -3.4898   -2.5569 H         1 <0>         0.4308
     92 H44         4.2221   -7.5440   -4.5801 H         1 <0>         0.1509
     93 H45         6.1241   -7.7977   -6.1208 H         1 <0>         0.1489
     94 H46         8.1435   -6.7719   -7.1663 H         1 <0>         0.1356
     95 H47         9.6235   -4.8525   -7.4176 H         1 <0>         0.1330
     96 H48         9.2025   -2.7687   -6.1838 H         1 <0>         0.1345
     97 H49         7.2996   -2.5686   -4.6806 H         1 <0>         0.1386
     98 H50        -2.1948   -0.8738   -0.3577 H         1 <0>         0.3875
     99 N6         -1.2955    1.3757    1.8469 N.4       1 <0>        -0.3713
    100 H51        -1.5097    2.3795    1.8738 H         1 <0>         0.4322
@<TRIPOS>BOND
     1    1    2 1
     2    1   55 1
     3    1   56 1
     4    1   57 1
     5    2    3 1
     6    2    4 1
     7    2    5 1
     8    3   58 1
     9    3   59 1
    10    3   60 1
    11    4   61 1
    12    4   62 1
    13    4   63 1
    14    5    6 am
    15    5   64 1
    16    6    7 2
    17    6    8 1
    18    8    9 1
    19    8   10 1
    20    8   99 1
    21   10   11 1
    22   10   65 1
    23   10   66 1
    24   11   12 1
    25   11   17 1
    26   11   13 1
    27   13   14 1
    28   13   67 1
    29   13   68 1
    30   14   15 1
    31   14   69 1
    32   14   70 1
    33   15   16 1
    34   15   71 1
    35   15   72 1
    36   16   17 1
    37   16   73 1
    38   16   74 1
    39   17   18 1
    40   17   19 1
    41   19   75 1
    42   19   76 1
    43   19   99 1
    44   20   21 1
    45   20   77 1
    46   20   78 1
    47   20   99 1
    48   21   22 1
    49   21   23 1
    50   21   54 1
    51   23   24 1
    52   23   25 1
    53   23   32 1
    54   25   26 1
    55   25   79 1
    56   25   80 1
    57   26   31 ar
    58   26   27 ar
    59   27   28 ar
    60   27   81 1
    61   28   29 ar
    62   28   82 1
    63   29   30 ar
    64   29   83 1
    65   30   31 ar
    66   30   84 1
    67   31   85 1
    68   32   33 am
    69   32   86 1
    70   33   34 2
    71   33   35 1
    72   35   36 1
    73   35   37 1
    74   35   41 1
    75   37   38 1
    76   37   87 1
    77   37   88 1
    78   38   39 2
    79   38   40 am
    80   40   89 1
    81   40   90 1
    82   41   42 am
    83   41   91 1
    84   42   43 2
    85   42   44 1
    86   44   53 ar
    87   44   45 ar
    88   45   46 ar
    89   45   92 1
    90   46   47 ar
    91   46   93 1
    92   47   52 ar
    93   47   48 ar
    94   48   49 ar
    95   48   94 1
    96   49   50 ar
    97   49   95 1
    98   50   51 ar
    99   50   96 1
   100   51   52 ar
   101   51   97 1
   102   52   53 ar
   103   54   98 1
   104   99  100 1
@<TRIPOS>MOLECULE
ZINC22448696
   92    96     0     0     0
SMALL
USER_CHARGES
(2S)-1-[(2S,4R)-4-benzyl-2-hydroxy-5-[[(1S,2R)-2-hydroxyindan-1-yl]amino]-5-oxo-pentyl]-N-tert-butyl-4-(3-pyridylmethyl)piperazine-2-carboxamide
@<TRIPOS>ATOM
      1 C1         -5.5944    1.9794   -4.4560 C.3       1 <0>        -0.1613
      2 C2         -7.1095    1.8351   -4.3001 C.3       1 <0>         0.1770
      3 C3         -7.6485    0.9076   -5.3910 C.3       1 <0>        -0.1554
      4 C4         -7.7686    3.2099   -4.4280 C.3       1 <0>        -0.1658
      5 N1         -7.4132    1.2686   -2.9836 N.am      1 <0>        -0.7253
      6 C5         -7.0312    1.9180   -1.8661 C.2       1 <0>         0.5417
      7 O1         -6.4362    2.9714   -1.9503 O.2       1 <0>        -0.5318
      8 C6         -7.3436    1.3353   -0.5119 C.3       1 <0>         0.0658
      9 H1         -7.2584    0.2393   -0.5522 H         1 <0>         0.1080
     10 C7         -8.7499    1.7619   -0.0845 C.3       1 <0>         0.0664
     11 N2         -9.0367    1.2246    1.2530 N.3       1 <0>        -0.5286
     12 C8         -8.0593    1.7147    2.2349 C.3       1 <0>         0.0503
     13 C9         -6.6530    1.2881    1.8075 C.3       1 <0>         0.0557
     14 N3         -6.3662    1.8253    0.4700 N.3       1 <0>        -0.5131
     15 C10        -4.9950    1.5005    0.0551 C.3       1 <0>         0.0569
     16 C11        -4.8435   -0.0176   -0.0614 C.3       1 <0>         0.0880
     17 H2         -5.2277   -0.5268    0.8347 H         1 <0>         0.0528
     18 C12        -3.3746   -0.3659   -0.3105 C.3       1 <0>        -0.1348
     19 C13        -3.1905   -1.8829   -0.2356 C.3       1 <0>        -0.0953
     20 H3         -3.5986   -2.2628    0.7126 H         1 <0>         0.0868
     21 C14        -3.9105   -2.5428   -1.4133 C.3       1 <0>        -0.0757
     22 C15        -3.7727   -4.0400   -1.3112 C.ar      1 <0>        -0.0931
     23 C16        -2.7920   -4.6947   -2.0327 C.ar      1 <0>        -0.0972
     24 C17        -2.6631   -6.0676   -1.9360 C.ar      1 <0>        -0.1205
     25 C18        -3.5202   -6.7868   -1.1241 C.ar      1 <0>        -0.1192
     26 C19        -4.5042   -6.1327   -0.4066 C.ar      1 <0>        -0.1207
     27 C20        -4.6306   -4.7594   -0.5003 C.ar      1 <0>        -0.1169
     28 C21        -1.7215   -2.2142   -0.2954 C.2       1 <0>         0.5273
     29 O2         -1.1623   -2.2994   -1.3683 O.2       1 <0>        -0.5406
     30 N4         -1.0292   -2.4157    0.8432 N.am      1 <0>        -0.7172
     31 C22         0.4184   -2.6342    0.7914 C.3       1 <0>         0.1988
     32 H4          0.5830   -3.2135   -0.1291 H         1 <0>         0.0991
     33 C23         1.1496   -1.3089    0.7777 C.ar      1 <0>        -0.1119
     34 C24         1.3596   -0.4103   -0.2550 C.ar      1 <0>        -0.0825
     35 C25         2.0677    0.7539   -0.0302 C.ar      1 <0>        -0.1228
     36 C26         2.5692    1.0240    1.2296 C.ar      1 <0>        -0.1086
     37 C27         2.3607    0.1292    2.2607 C.ar      1 <0>        -0.1120
     38 C28         1.6508   -1.0388    2.0372 C.ar      1 <0>        -0.0884
     39 C29         1.2906   -2.1640    2.9835 C.3       1 <0>        -0.1127
     40 C30         0.8987   -3.3473    2.0733 C.3       1 <0>         0.1172
     41 H5          1.6739   -4.1143    1.9295 H         1 <0>         0.0809
     42 O3         -0.1598   -4.1089    2.6578 O.3       1 <0>        -0.5968
     43 O4         -5.6371   -0.4932   -1.1505 O.3       1 <0>        -0.5985
     44 C31       -10.4079    1.5495    1.6679 C.3       1 <0>         0.0958
     45 C32       -10.7471    0.7868    2.9226 C.ar      1 <0>        -0.1287
     46 C33       -11.3252   -0.4713    2.8450 C.ar      1 <0>        -0.0548
     47 C34       -11.6158   -1.1378    4.0252 C.ar      1 <0>        -0.1725
     48 C35       -11.3308   -0.5265    5.2317 C.ar      1 <0>         0.0968
     49 N5        -10.7852    0.6734    5.2676 N.ar      1 <0>        -0.4842
     50 C36       -10.4912    1.3347    4.1651 C.ar      1 <0>         0.1035
     51 H6         -5.2070    2.6463   -3.6716 H         1 <0>         0.0764
     52 H7         -5.3664    2.4047   -5.4445 H         1 <0>         0.0562
     53 H8         -5.1206    0.9910   -4.3639 H         1 <0>         0.0543
     54 H9         -8.7378    0.8039   -5.2788 H         1 <0>         0.0601
     55 H10        -7.1747   -0.0808   -5.2990 H         1 <0>         0.0620
     56 H11        -7.4205    1.3329   -6.3795 H         1 <0>         0.0699
     57 H12        -8.8579    3.1061   -4.3159 H         1 <0>         0.0510
     58 H13        -7.5406    3.6353   -5.4165 H         1 <0>         0.0592
     59 H14        -7.3811    3.8767   -3.6436 H         1 <0>         0.0780
     60 H15        -7.9530    0.3132   -2.9072 H         1 <0>         0.4148
     61 H16        -8.8083    2.8601   -0.0598 H         1 <0>         0.0473
     62 H17        -9.4857    1.3717   -0.8030 H         1 <0>         0.0817
     63 H18        -8.1106    2.8123    2.2869 H         1 <0>         0.0467
     64 H19        -8.2879    1.2897    3.2234 H         1 <0>         0.0822
     65 H20        -5.9172    1.6784    2.5260 H         1 <0>         0.0821
     66 H21        -6.5945    0.1899    1.7829 H         1 <0>         0.0452
     67 H22        -4.7870    1.9657   -0.9198 H         1 <0>         0.0988
     68 H23        -4.2851    1.8835    0.8030 H         1 <0>         0.0869
     69 H24        -3.0772   -0.0092   -1.3077 H         1 <0>         0.0839
     70 H25        -2.7484    0.1177    0.4537 H         1 <0>         0.0742
     71 H26        -4.9760   -2.2703   -1.3909 H         1 <0>         0.0974
     72 H27        -3.4633   -2.1969   -2.3569 H         1 <0>         0.0933
     73 H28        -2.1247   -4.1332   -2.6697 H         1 <0>         0.1270
     74 H29        -1.8946   -6.5787   -2.4969 H         1 <0>         0.1190
     75 H30        -3.4212   -7.8597   -1.0507 H         1 <0>         0.1192
     76 H31        -5.1739   -6.6947    0.2274 H         1 <0>         0.1200
     77 H32        -5.3993   -4.2484    0.0603 H         1 <0>         0.1179
     78 H33        -1.5512   -2.4161    1.8115 H         1 <0>         0.4230
     79 H34         0.9686   -0.6208   -1.2395 H         1 <0>         0.1243
     80 H35         2.2298    1.4524   -0.8377 H         1 <0>         0.1253
     81 H36         3.1237    1.9336    1.4070 H         1 <0>         0.1256
     82 H37         2.7527    0.3409    3.2445 H         1 <0>         0.1208
     83 H38         2.1602   -2.4074    3.6116 H         1 <0>         0.0812
     84 H39         0.4524   -1.8509    3.6233 H         1 <0>         0.0922
     85 H40         0.0183   -4.6798    3.5810 H         1 <0>         0.4160
     86 H41        -5.6555   -1.5667   -1.3900 H         1 <0>         0.3914
     87 H42       -10.4859    2.6293    1.8628 H         1 <0>         0.0503
     88 H43       -11.1091    1.2697    0.8679 H         1 <0>         0.0881
     89 H44       -11.5404   -0.9227    1.8877 H         1 <0>         0.1343
     90 H45       -12.0630   -2.1206    4.0023 H         1 <0>         0.1351
     91 H46       -11.5579   -1.0374    6.1558 H         1 <0>         0.1551
     92 H47       -10.0449    2.3158    4.2342 H         1 <0>         0.1505
@<TRIPOS>BOND
     1    1    2 1
     2    1   51 1
     3    1   52 1
     4    1   53 1
     5    2    3 1
     6    2    4 1
     7    2    5 1
     8    3   54 1
     9    3   55 1
    10    3   56 1
    11    4   57 1
    12    4   58 1
    13    4   59 1
    14    5    6 am
    15    5   60 1
    16    6    7 2
    17    6    8 1
    18    8    9 1
    19    8   14 1
    20    8   10 1
    21   10   11 1
    22   10   61 1
    23   10   62 1
    24   11   12 1
    25   11   44 1
    26   12   13 1
    27   12   63 1
    28   12   64 1
    29   13   14 1
    30   13   65 1
    31   13   66 1
    32   14   15 1
    33   15   16 1
    34   15   67 1
    35   15   68 1
    36   16   17 1
    37   16   18 1
    38   16   43 1
    39   18   19 1
    40   18   69 1
    41   18   70 1
    42   19   20 1
    43   19   21 1
    44   19   28 1
    45   21   22 1
    46   21   71 1
    47   21   72 1
    48   22   27 ar
    49   22   23 ar
    50   23   24 ar
    51   23   73 1
    52   24   25 ar
    53   24   74 1
    54   25   26 ar
    55   25   75 1
    56   26   27 ar
    57   26   76 1
    58   27   77 1
    59   28   29 2
    60   28   30 am
    61   30   31 1
    62   30   78 1
    63   31   32 1
    64   31   40 1
    65   31   33 1
    66   33   38 ar
    67   33   34 ar
    68   34   35 ar
    69   34   79 1
    70   35   36 ar
    71   35   80 1
    72   36   37 ar
    73   36   81 1
    74   37   38 ar
    75   37   82 1
    76   38   39 1
    77   39   40 1
    78   39   83 1
    79   39   84 1
    80   40   41 1
    81   40   42 1
    82   42   85 1
    83   43   86 1
    84   44   45 1
    85   44   87 1
    86   44   88 1
    87   45   50 ar
    88   45   46 ar
    89   46   47 ar
    90   46   89 1
    91   47   48 ar
    92   47   90 1
    93   48   49 ar
    94   48   91 1
    95   49   50 ar
    96   50   92 1
@<TRIPOS>MOLECULE
ZINC22448696
   93    97     0     0     0
SMALL
USER_CHARGES
(2S)-1-[(2S,4R)-4-benzyl-2-hydroxy-5-[[(1S,2R)-2-hydroxyindan-1-yl]amino]-5-oxo-pentyl]-N-tert-butyl-4-(3-pyridylmethyl)piperazine-2-carboxamide
@<TRIPOS>ATOM
      1 C1         -5.5944    1.9794   -4.4560 C.3       1 <0>        -0.1645
      2 C2         -7.1095    1.8351   -4.3001 C.3       1 <0>         0.1776
      3 C3         -7.6485    0.9076   -5.3910 C.3       1 <0>        -0.1585
      4 C4         -7.7686    3.2099   -4.4280 C.3       1 <0>        -0.1675
      5 N1         -7.4132    1.2686   -2.9836 N.am      1 <0>        -0.7173
      6 C5         -7.0312    1.9180   -1.8661 C.2       1 <0>         0.5399
      7 O1         -6.4362    2.9714   -1.9503 O.2       1 <0>        -0.5099
      8 C6         -7.3436    1.3353   -0.5119 C.3       1 <0>         0.0317
      9 H1         -7.2584    0.2393   -0.5522 H         1 <0>         0.1222
     10 C7         -8.7499    1.7619   -0.0845 C.3       1 <0>         0.0057
     11 N2         -9.0367    1.2246    1.2530 N.4       1 <0>        -0.3956
     12 C8         -8.0593    1.7147    2.2349 C.3       1 <0>        -0.0056
     13 C9         -6.6530    1.2881    1.8075 C.3       1 <0>         0.0240
     14 N3         -6.3662    1.8253    0.4700 N.3       1 <0>        -0.5107
     15 C10        -4.9950    1.5005    0.0551 C.3       1 <0>         0.0544
     16 C11        -4.8435   -0.0176   -0.0614 C.3       1 <0>         0.0888
     17 H2         -5.2277   -0.5268    0.8347 H         1 <0>         0.0507
     18 C12        -3.3746   -0.3659   -0.3105 C.3       1 <0>        -0.1371
     19 C13        -3.1905   -1.8829   -0.2356 C.3       1 <0>        -0.0958
     20 H3         -3.5986   -2.2628    0.7126 H         1 <0>         0.0864
     21 C14        -3.9105   -2.5428   -1.4133 C.3       1 <0>        -0.0686
     22 C15        -3.7727   -4.0400   -1.3112 C.ar      1 <0>        -0.0998
     23 C16        -2.7920   -4.6947   -2.0327 C.ar      1 <0>        -0.0951
     24 C17        -2.6631   -6.0676   -1.9360 C.ar      1 <0>        -0.1166
     25 C18        -3.5202   -6.7868   -1.1241 C.ar      1 <0>        -0.1146
     26 C19        -4.5042   -6.1327   -0.4066 C.ar      1 <0>        -0.1207
     27 C20        -4.6306   -4.7594   -0.5003 C.ar      1 <0>        -0.1195
     28 C21        -1.7215   -2.2142   -0.2954 C.2       1 <0>         0.5240
     29 O2         -1.1623   -2.2994   -1.3683 O.2       1 <0>        -0.5365
     30 N4         -1.0292   -2.4157    0.8432 N.am      1 <0>        -0.7149
     31 C22         0.4184   -2.6342    0.7914 C.3       1 <0>         0.1996
     32 H4          0.5830   -3.2135   -0.1291 H         1 <0>         0.0998
     33 C23         1.1496   -1.3089    0.7777 C.ar      1 <0>        -0.1142
     34 C24         1.3596   -0.4103   -0.2550 C.ar      1 <0>        -0.0832
     35 C25         2.0677    0.7539   -0.0302 C.ar      1 <0>        -0.1227
     36 C26         2.5692    1.0240    1.2296 C.ar      1 <0>        -0.1068
     37 C27         2.3607    0.1292    2.2607 C.ar      1 <0>        -0.1112
     38 C28         1.6508   -1.0388    2.0372 C.ar      1 <0>        -0.0879
     39 C29         1.2906   -2.1640    2.9835 C.3       1 <0>        -0.1129
     40 C30         0.8987   -3.3473    2.0733 C.3       1 <0>         0.1169
     41 H5          1.6739   -4.1143    1.9295 H         1 <0>         0.0829
     42 O3         -0.1598   -4.1089    2.6578 O.3       1 <0>        -0.5995
     43 O4         -5.6371   -0.4932   -1.1505 O.3       1 <0>        -0.6116
     44 C31       -10.4079    1.5495    1.6679 C.3       1 <0>         0.0517
     45 C32       -10.7471    0.7868    2.9226 C.ar      1 <0>        -0.2160
     46 C33       -11.3252   -0.4713    2.8450 C.ar      1 <0>        -0.0470
     47 C34       -11.6158   -1.1378    4.0252 C.ar      1 <0>        -0.1655
     48 C35       -11.3308   -0.5265    5.2317 C.ar      1 <0>         0.1367
     49 N5        -10.7852    0.6734    5.2676 N.ar      1 <0>        -0.4745
     50 C36       -10.4912    1.3347    4.1651 C.ar      1 <0>         0.1296
     51 H6         -5.2070    2.6463   -3.6716 H         1 <0>         0.0757
     52 H7         -5.3664    2.4047   -5.4445 H         1 <0>         0.0636
     53 H8         -5.1206    0.9910   -4.3639 H         1 <0>         0.0570
     54 H9         -8.7378    0.8039   -5.2788 H         1 <0>         0.0613
     55 H10        -7.1747   -0.0808   -5.2990 H         1 <0>         0.0643
     56 H11        -7.4205    1.3329   -6.3795 H         1 <0>         0.0766
     57 H12        -8.8579    3.1061   -4.3159 H         1 <0>         0.0522
     58 H13        -7.5406    3.6353   -5.4165 H         1 <0>         0.0670
     59 H14        -7.3811    3.8767   -3.6436 H         1 <0>         0.0771
     60 H15        -7.9530    0.3132   -2.9072 H         1 <0>         0.4151
     61 H16        -8.8083    2.8601   -0.0598 H         1 <0>         0.1403
     62 H17        -9.4857    1.3717   -0.8030 H         1 <0>         0.1372
     63 H18        -8.1106    2.8123    2.2869 H         1 <0>         0.1396
     64 H19        -8.2879    1.2897    3.2234 H         1 <0>         0.1331
     65 H20        -5.9172    1.6784    2.5260 H         1 <0>         0.1264
     66 H21        -6.5945    0.1899    1.7829 H         1 <0>         0.0614
     67 H22        -4.7870    1.9657   -0.9198 H         1 <0>         0.1118
     68 H23        -4.2851    1.8835    0.8030 H         1 <0>         0.1019
     69 H24        -3.0772   -0.0092   -1.3077 H         1 <0>         0.0889
     70 H25        -2.7484    0.1177    0.4537 H         1 <0>         0.0786
     71 H26        -4.9760   -2.2703   -1.3909 H         1 <0>         0.0891
     72 H27        -3.4633   -2.1969   -2.3569 H         1 <0>         0.0956
     73 H28        -2.1247   -4.1332   -2.6697 H         1 <0>         0.1284
     74 H29        -1.8946   -6.5787   -2.4969 H         1 <0>         0.1223
     75 H30        -3.4212   -7.8597   -1.0507 H         1 <0>         0.1222
     76 H31        -5.1739   -6.6947    0.2274 H         1 <0>         0.1206
     77 H32        -5.3993   -4.2484    0.0603 H         1 <0>         0.1131
     78 H33        -1.5512   -2.4161    1.8115 H         1 <0>         0.4214
     79 H34         0.9686   -0.6208   -1.2395 H         1 <0>         0.1238
     80 H35         2.2298    1.4524   -0.8377 H         1 <0>         0.1260
     81 H36         3.1237    1.9336    1.4070 H         1 <0>         0.1270
     82 H37         2.7527    0.3409    3.2445 H         1 <0>         0.1219
     83 H38         2.1602   -2.4074    3.6116 H         1 <0>         0.0830
     84 H39         0.4524   -1.8509    3.6233 H         1 <0>         0.0909
     85 H40         0.0183   -4.6798    3.5810 H         1 <0>         0.4181
     86 H41        -5.6555   -1.5667   -1.3900 H         1 <0>         0.4031
     87 H42       -10.4859    2.6293    1.8628 H         1 <0>         0.1396
     88 H43       -11.1091    1.2697    0.8679 H         1 <0>         0.1411
     89 H44       -11.5404   -0.9227    1.8877 H         1 <0>         0.1447
     90 H45       -12.0630   -2.1206    4.0023 H         1 <0>         0.1505
     91 H46       -11.5579   -1.0374    6.1558 H         1 <0>         0.1703
     92 H47       -10.0449    2.3158    4.2342 H         1 <0>         0.1620
     93 H48        -8.9500    0.1291    1.2050 H         1 <0>         0.4353
@<TRIPOS>BOND
     1    1    2 1
     2    1   51 1
     3    1   52 1
     4    1   53 1
     5    2    3 1
     6    2    4 1
     7    2    5 1
     8    3   54 1
     9    3   55 1
    10    3   56 1
    11    4   57 1
    12    4   58 1
    13    4   59 1
    14    5    6 am
    15    5   60 1
    16    6    7 2
    17    6    8 1
    18    8    9 1
    19    8   14 1
    20    8   10 1
    21   10   11 1
    22   10   61 1
    23   10   62 1
    24   11   12 1
    25   11   44 1
    26   11   93 1
    27   12   13 1
    28   12   63 1
    29   12   64 1
    30   13   14 1
    31   13   65 1
    32   13   66 1
    33   14   15 1
    34   15   16 1
    35   15   67 1
    36   15   68 1
    37   16   17 1
    38   16   18 1
    39   16   43 1
    40   18   19 1
    41   18   69 1
    42   18   70 1
    43   19   20 1
    44   19   21 1
    45   19   28 1
    46   21   22 1
    47   21   71 1
    48   21   72 1
    49   22   27 ar
    50   22   23 ar
    51   23   24 ar
    52   23   73 1
    53   24   25 ar
    54   24   74 1
    55   25   26 ar
    56   25   75 1
    57   26   27 ar
    58   26   76 1
    59   27   77 1
    60   28   29 2
    61   28   30 am
    62   30   31 1
    63   30   78 1
    64   31   32 1
    65   31   40 1
    66   31   33 1
    67   33   38 ar
    68   33   34 ar
    69   34   35 ar
    70   34   79 1
    71   35   36 ar
    72   35   80 1
    73   36   37 ar
    74   36   81 1
    75   37   38 ar
    76   37   82 1
    77   38   39 1
    78   39   40 1
    79   39   83 1
    80   39   84 1
    81   40   41 1
    82   40   42 1
    83   42   85 1
    84   43   86 1
    85   44   45 1
    86   44   87 1
    87   44   88 1
    88   45   50 ar
    89   45   46 ar
    90   46   47 ar
    91   46   89 1
    92   47   48 ar
    93   47   90 1
    94   48   49 ar
    95   48   91 1
    96   49   50 ar
    97   50   92 1
@<TRIPOS>MOLECULE
ZINC01920031
   43    46     0     0     0
SMALL
USER_CHARGES
3-bromo-5-chloro-N-[5-chloro-2-[(1-chloro-2-naphthyl)oxy]phenyl]-2-hydroxy-benzamide
@<TRIPOS>ATOM
      1 C1         -2.6534    5.9794   -4.8647 C.ar      1 <0>        -0.1256
      2 C2         -3.2392    5.4783   -3.7035 C.ar      1 <0>        -0.1025
      3 C3         -2.6317    5.6224   -2.4943 C.ar      1 <0>        -0.1120
      4 C4         -1.4005    6.2954   -2.4101 C.ar      1 <0>        -0.0101
      5 C5         -0.8071    6.8099   -3.5904 C.ar      1 <0>        -0.0691
      6 C6         -1.4624    6.6365   -4.8217 C.ar      1 <0>        -0.0904
      7 C7          0.4234    7.4838   -3.5101 C.ar      1 <0>        -0.0573
      8 C8          1.0350    7.6375   -2.3051 C.ar      1 <0>        -0.1638
      9 C9          0.4573    7.1333   -1.1361 C.ar      1 <0>         0.1444
     10 C10        -0.7475    6.4673   -1.1779 C.ar      1 <0>        -0.0714
     11 Cl1        -1.4545    5.8459    0.2808 Cl        1 <0>        -0.0506
     12 O1          1.0914    7.3018    0.0539 O.3       1 <0>        -0.2379
     13 C11         2.3269    7.8693    0.0442 C.ar      1 <0>         0.0323
     14 C12         3.4578    7.0700   -0.0045 C.ar      1 <0>        -0.0869
     15 C13         4.7134    7.6481   -0.0202 C.ar      1 <0>        -0.1310
     16 C14         4.8457    9.0250    0.0241 C.ar      1 <0>        -0.0056
     17 C15         3.7220    9.8293    0.0786 C.ar      1 <0>        -0.1142
     18 C16         2.4589    9.2557    0.0888 C.ar      1 <0>         0.1911
     19 N1          1.3195   10.0678    0.1444 N.am      1 <0>        -0.6944
     20 C17         1.3157   11.2665   -0.4718 C.2       1 <0>         0.5731
     21 O2          2.3243   11.6741   -1.0152 O.2       1 <0>        -0.4924
     22 C18         0.0880   12.0841   -0.4869 C.ar      1 <0>        -0.2826
     23 C19        -1.0732   11.6195    0.1364 C.ar      1 <0>        -0.0038
     24 C20        -2.2177   12.3884    0.1188 C.ar      1 <0>        -0.1699
     25 C21        -2.2219   13.6214   -0.5150 C.ar      1 <0>        -0.0081
     26 C22        -1.0808   14.0918   -1.1351 C.ar      1 <0>        -0.2086
     27 C23         0.0814   13.3333   -1.1213 C.ar      1 <0>         0.3290
     28 O3          1.2048   13.7969   -1.7249 O.3       1 <0>        -0.6238
     29 Br1        -1.0995   15.7753   -1.9961 Br        1 <0>        -0.0748
     30 Cl2        -3.6594   11.8101    0.8940 Cl        1 <0>        -0.1076
     31 Cl3         6.4257    9.7441    0.0119 Cl        1 <0>        -0.0631
     32 H1         -3.1544    5.8482   -5.8124 H         1 <0>         0.1241
     33 H2         -4.1873    4.9647   -3.7648 H         1 <0>         0.1249
     34 H3         -3.0951    5.2250   -1.6033 H         1 <0>         0.1318
     35 H4         -1.0226    7.0225   -5.7295 H         1 <0>         0.1303
     36 H5          0.8826    7.8795   -4.4040 H         1 <0>         0.1379
     37 H6          1.9808    8.1561   -2.2505 H         1 <0>         0.1382
     38 H7          3.3581    5.9950   -0.0347 H         1 <0>         0.1411
     39 H8          5.5934    7.0236   -0.0627 H         1 <0>         0.1388
     40 H9          3.8278   10.9036    0.1134 H         1 <0>         0.1621
     41 H10         0.4276    9.7274    0.6910 H         1 <0>         0.4314
     42 H11        -1.0742   10.6597    0.6315 H         1 <0>         0.1089
     43 H12        -3.1225   14.2174   -0.5242 H         1 <0>         0.1181
@<TRIPOS>BOND
     1    1    6 ar
     2    1    2 ar
     3    1   32 1
     4    2    3 ar
     5    2   33 1
     6    3    4 ar
     7    3   34 1
     8    4   10 ar
     9    4    5 ar
    10    5    6 ar
    11    5    7 ar
    12    6   35 1
    13    7    8 ar
    14    7   36 1
    15    8    9 ar
    16    8   37 1
    17    9   10 ar
    18    9   12 1
    19   10   11 1
    20   12   13 1
    21   13   18 ar
    22   13   14 ar
    23   14   15 ar
    24   14   38 1
    25   15   16 ar
    26   15   39 1
    27   16   17 ar
    28   16   31 1
    29   17   18 ar
    30   17   40 1
    31   18   19 1
    32   19   20 am
    33   19   41 1
    34   20   21 2
    35   20   22 1
    36   22   27 ar
    37   22   23 ar
    38   23   24 ar
    39   23   42 1
    40   24   25 ar
    41   24   30 1
    42   25   26 ar
    43   25   43 1
    44   26   27 ar
    45   26   29 1
    46   27   28 1
@<TRIPOS>MOLECULE
ZINC01920031
   44    47     0     0     0
SMALL
USER_CHARGES
3-bromo-5-chloro-N-[5-chloro-2-[(1-chloro-2-naphthyl)oxy]phenyl]-2-hydroxy-benzamide
@<TRIPOS>ATOM
      1 C1         -2.6534    5.9794   -4.8647 C.ar      1 <0>        -0.1193
      2 C2         -3.2392    5.4783   -3.7035 C.ar      1 <0>        -0.0978
      3 C3         -2.6317    5.6224   -2.4943 C.ar      1 <0>        -0.1126
      4 C4         -1.4005    6.2954   -2.4101 C.ar      1 <0>        -0.0119
      5 C5         -0.8071    6.8099   -3.5904 C.ar      1 <0>        -0.0685
      6 C6         -1.4624    6.6365   -4.8217 C.ar      1 <0>        -0.0938
      7 C7          0.4234    7.4838   -3.5101 C.ar      1 <0>        -0.0566
      8 C8          1.0350    7.6375   -2.3051 C.ar      1 <0>        -0.1705
      9 C9          0.4573    7.1333   -1.1361 C.ar      1 <0>         0.1343
     10 C10        -0.7475    6.4673   -1.1779 C.ar      1 <0>        -0.0666
     11 Cl1        -1.4545    5.8459    0.2808 Cl        1 <0>        -0.0447
     12 O1          1.0914    7.3018    0.0539 O.3       1 <0>        -0.2402
     13 C11         2.3269    7.8693    0.0442 C.ar      1 <0>         0.0506
     14 C12         3.4578    7.0700   -0.0045 C.ar      1 <0>        -0.0863
     15 C13         4.7134    7.6481   -0.0202 C.ar      1 <0>        -0.1138
     16 C14         4.8457    9.0250    0.0241 C.ar      1 <0>        -0.0094
     17 C15         3.7220    9.8293    0.0786 C.ar      1 <0>        -0.1084
     18 C16         2.4589    9.2557    0.0888 C.ar      1 <0>         0.1678
     19 N1          1.3195   10.0678    0.1444 N.am      1 <0>        -0.6806
     20 C17         1.3157   11.2665   -0.4718 C.2       1 <0>         0.5709
     21 O2          2.3243   11.6741   -1.0152 O.2       1 <0>        -0.4876
     22 C18         0.0880   12.0841   -0.4869 C.ar      1 <0>        -0.1679
     23 C19        -1.0732   11.6195    0.1364 C.ar      1 <0>        -0.0168
     24 C20        -2.2177   12.3884    0.1188 C.ar      1 <0>        -0.0836
     25 C21        -2.2219   13.6214   -0.5150 C.ar      1 <0>        -0.0065
     26 C22        -1.0808   14.0918   -1.1351 C.ar      1 <0>        -0.1956
     27 C23         0.0814   13.3333   -1.1213 C.ar      1 <0>         0.2582
     28 O3          1.2048   13.7969   -1.7249 O.3       1 <0>        -0.4575
     29 Br1        -1.0995   15.7753   -1.9961 Br        1 <0>        -0.0124
     30 Cl2        -3.6594   11.8101    0.8940 Cl        1 <0>        -0.0443
     31 Cl3         6.4257    9.7441    0.0119 Cl        1 <0>        -0.0521
     32 H1         -3.1544    5.8482   -5.8124 H         1 <0>         0.1274
     33 H2         -4.1873    4.9647   -3.7648 H         1 <0>         0.1285
     34 H3         -3.0951    5.2250   -1.6033 H         1 <0>         0.1340
     35 H4         -1.0226    7.0225   -5.7295 H         1 <0>         0.1317
     36 H5          0.8826    7.8795   -4.4040 H         1 <0>         0.1381
     37 H6          1.9808    8.1561   -2.2505 H         1 <0>         0.1364
     38 H7          3.3581    5.9950   -0.0347 H         1 <0>         0.1476
     39 H8          5.5934    7.0236   -0.0627 H         1 <0>         0.1454
     40 H9          3.8278   10.9036    0.1134 H         1 <0>         0.1601
     41 H10         0.4276    9.7274    0.6910 H         1 <0>         0.4390
     42 H11        -1.0742   10.6597    0.6315 H         1 <0>         0.1474
     43 H12        -3.1225   14.2174   -0.5242 H         1 <0>         0.1533
     44 H13         1.1970   14.7780   -2.2223 H         1 <0>         0.4345
@<TRIPOS>BOND
     1    1    6 ar
     2    1    2 ar
     3    1   32 1
     4    2    3 ar
     5    2   33 1
     6    3    4 ar
     7    3   34 1
     8    4   10 ar
     9    4    5 ar
    10    5    6 ar
    11    5    7 ar
    12    6   35 1
    13    7    8 ar
    14    7   36 1
    15    8    9 ar
    16    8   37 1
    17    9   10 ar
    18    9   12 1
    19   10   11 1
    20   12   13 1
    21   13   18 ar
    22   13   14 ar
    23   14   15 ar
    24   14   38 1
    25   15   16 ar
    26   15   39 1
    27   16   17 ar
    28   16   31 1
    29   17   18 ar
    30   17   40 1
    31   18   19 1
    32   19   20 am
    33   19   41 1
    34   20   21 2
    35   20   22 1
    36   22   27 ar
    37   22   23 ar
    38   23   24 ar
    39   23   42 1
    40   24   25 ar
    41   24   30 1
    42   25   26 ar
    43   25   43 1
    44   26   27 ar
    45   26   29 1
    46   27   28 1
    47   28   44 1
@<TRIPOS>MOLECULE
ZINC03590617
   21    22     0     0     0
SMALL
USER_CHARGES
1-methyl-2,3-dioxo-indoline-5-carboxylic acid
@<TRIPOS>ATOM
      1 C1         -1.6407    4.5551    0.0403 C.3       1 <0>         0.0807
      2 N1         -0.7698    3.3771    0.0267 N.am      1 <0>        -0.5448
      3 C2          0.6174    3.4321    0.0141 C.ar      1 <0>         0.1757
      4 C3          1.4918    4.5153    0.0114 C.ar      1 <0>        -0.1609
      5 C4          2.8539    4.3116   -0.0023 C.ar      1 <0>        -0.0037
      6 C5          3.3793    3.0139   -0.0138 C.ar      1 <0>        -0.1443
      7 C6          2.5160    1.9174   -0.0113 C.ar      1 <0>         0.0288
      8 C7          1.1417    2.1261    0.0026 C.ar      1 <0>        -0.2546
      9 C8         -0.0144    1.2093    0.0087 C.2       1 <0>         0.3938
     10 O1          0.0021   -0.0041    0.0020 O.2       1 <0>        -0.3797
     11 C9         -1.2144    2.1089    0.0184 C.2       1 <0>         0.4923
     12 O2         -2.3750    1.7560    0.0208 O.2       1 <0>        -0.4645
     13 C10         4.8392    2.8065   -0.0289 C.2       1 <0>         0.4925
     14 O3          5.2927    1.6793   -0.0392 O.co2     1 <0>        -0.6255
     15 H1         -1.8662    4.8521   -0.9839 H         1 <0>         0.0702
     16 H2         -2.5675    4.3158    0.5617 H         1 <0>         0.0844
     17 H3         -1.1362    5.3740    0.5533 H         1 <0>         0.0855
     18 H4          1.0997    5.5215    0.0202 H         1 <0>         0.1310
     19 H5          3.5222    5.1600   -0.0039 H         1 <0>         0.1488
     20 H6          2.9131    0.9131   -0.0204 H         1 <0>         0.1441
     21 O4          5.6704    3.8671   -0.0313 O.co2     1 <0>        -0.7499
@<TRIPOS>BOND
     1    1    2 1
     2    1   15 1
     3    1   16 1
     4    1   17 1
     5    2   11 am
     6    2    3 1
     7    3    8 ar
     8    3    4 ar
     9    4    5 ar
    10    4   18 1
    11    5    6 ar
    12    5   19 1
    13    6    7 ar
    14    6   13 1
    15    7    8 ar
    16    7   20 1
    17    8    9 1
    18    9   10 2
    19    9   11 1
    20   11   12 2
    21   13   14 2
    22   13   21 1
@<TRIPOS>MOLECULE
ZINC03919807
   82    84     0     0     0
SMALL
USER_CHARGES
ethyl 4-[2-[(4-fluorophenyl)methyl]-6-methyl-5-(5-methylisoxazol-3-yl)carbonylamino-4-oxo-heptanoyl]amino-5-(2-oxopyrrolidin-3-yl)-pent-2-enoate
@<TRIPOS>ATOM
      1 C1         10.1116   10.3204  -10.0440 C.3       1 <0>        -0.1542
      2 C2         10.7444    9.3221   -9.0725 C.3       1 <0>         0.0624
      3 O1         10.0953    9.4287   -7.7780 O.3       1 <0>        -0.3526
      4 C3         10.5385    8.6112   -6.8020 C.2       1 <0>         0.4932
      5 O2         11.4426    7.8308   -7.0269 O.2       1 <0>        -0.5057
      6 C4          9.9284    8.6637   -5.4662 C.2       1 <0>        -0.1702
      7 C5         10.3659    7.8567   -4.5027 C.2       1 <0>        -0.0661
      8 C6          9.7403    7.9105   -3.1327 C.3       1 <0>         0.1564
      9 H1          8.9530    8.6642   -3.1222 H         1 <0>         0.1294
     10 C7         10.8077    8.2735   -2.0985 C.3       1 <0>        -0.1077
     11 C8         11.3139    9.6926   -2.3645 C.3       1 <0>        -0.1261
     12 H2         11.6040    9.8035   -3.4094 H         1 <0>         0.1098
     13 C9         12.5032   10.0262   -1.4344 C.3       1 <0>        -0.1297
     14 C10        12.2534   11.5193   -1.1268 C.3       1 <0>         0.0992
     15 N1         10.8094   11.7181   -1.2982 N.am      1 <0>        -0.7342
     16 C11        10.2570   10.7098   -1.9947 C.2       1 <0>         0.5193
     17 O3          9.0823   10.6279   -2.2850 O.2       1 <0>        -0.5144
     18 N2          9.1681    6.6022   -2.8054 N.am      1 <0>        -0.7199
     19 C12         8.1121    6.5178   -1.9723 C.2       1 <0>         0.5193
     20 O4          7.6776    7.5176   -1.4408 O.2       1 <0>        -0.5199
     21 C13         7.4711    5.1811   -1.7011 C.3       1 <0>        -0.0933
     22 H3          8.2405    4.4569   -1.4333 H         1 <0>         0.1061
     23 C14         6.7361    4.7041   -2.9554 C.3       1 <0>        -0.0772
     24 C15         7.7371    4.4099   -4.0428 C.ar      1 <0>        -0.1056
     25 C16         8.0292    5.3722   -4.9914 C.ar      1 <0>        -0.0780
     26 C17         8.9506    5.1053   -5.9863 C.ar      1 <0>        -0.1519
     27 C18         9.5733    3.8698   -6.0390 C.ar      1 <0>         0.1030
     28 C19         9.2761    2.9049   -5.0914 C.ar      1 <0>        -0.1542
     29 C20         8.3583    3.1760   -4.0944 C.ar      1 <0>        -0.0786
     30 F1         10.4707    3.6060   -7.0138 F         1 <0>        -0.1373
     31 C21         6.4755    5.3176   -0.5475 C.3       1 <0>        -0.1395
     32 C22         5.9257    3.9595   -0.1951 C.2       1 <0>         0.3574
     33 O5          6.2923    2.9831   -0.8039 O.2       1 <0>        -0.4361
     34 C23         4.9183    3.8197    0.9170 C.3       1 <0>         0.1154
     35 H4          4.2238    4.5338    0.8293 H         1 <0>         0.1087
     36 C24         5.6257    3.9593    2.2664 C.3       1 <0>        -0.1021
     37 C25         4.6029    3.8174    3.3955 C.3       1 <0>        -0.1406
     38 C26         6.6883    2.8667    2.4006 C.3       1 <0>        -0.1529
     39 N3          4.2791    2.5041    0.8344 N.am      1 <0>        -0.7048
     40 C27         3.0488    2.3189    1.3526 C.2       1 <0>         0.6054
     41 O6          2.4698    3.2430    1.8881 O.2       1 <0>        -0.5106
     42 C28         2.4017    0.9868    1.2690 C.2       1 <0>        -0.0275
     43 C29         1.1164    0.6282    1.7626 C.2       1 <0>        -0.1857
     44 C30         0.9975   -0.6807    1.4404 C.2       1 <0>        -0.0266
     45 O7          2.1306   -1.0269    0.8141 O.3       1 <0>         0.1238
     46 N4          2.8981   -0.0968    0.7258 N.2       1 <0>        -0.3301
     47 C31        -0.1803   -1.5752    1.7295 C.3       1 <0>        -0.0771
     48 H5         10.5988   10.2404  -11.0157 H         1 <0>         0.0817
     49 H6          9.0495   10.0999  -10.1509 H         1 <0>         0.0677
     50 H7         10.2356   11.3320   -9.6575 H         1 <0>         0.0676
     51 H8         11.8065    9.5425   -8.9656 H         1 <0>         0.0711
     52 H9         10.6204    8.3105   -9.4589 H         1 <0>         0.0713
     53 H10         9.1250    9.3572   -5.2664 H         1 <0>         0.1452
     54 H11        11.1694    7.1632   -4.7025 H         1 <0>         0.1338
     55 H12        10.3768    8.2230   -1.0985 H         1 <0>         0.0818
     56 H13        11.6384    7.5717   -2.1720 H         1 <0>         0.0798
     57 H14        12.4656    9.4287   -0.5235 H         1 <0>         0.0857
     58 H15        13.4531    9.8880   -1.9509 H         1 <0>         0.0933
     59 H16        12.5465   11.7475   -0.1021 H         1 <0>         0.0816
     60 H17        12.8061   12.1462   -1.8265 H         1 <0>         0.0734
     61 H18        10.3169   12.4793   -0.9533 H         1 <0>         0.4116
     62 H19         9.5493    5.7966   -3.1884 H         1 <0>         0.4021
     63 H20         6.1736    3.7994   -2.7249 H         1 <0>         0.1011
     64 H21         6.0510    5.4818   -3.2929 H         1 <0>         0.0792
     65 H22         7.5403    6.3344   -4.9526 H         1 <0>         0.1304
     66 H23         9.1817    5.8586   -6.7249 H         1 <0>         0.1298
     67 H24         9.7615    1.9410   -5.1313 H         1 <0>         0.1365
     68 H25         8.1265    2.4237   -3.3550 H         1 <0>         0.1378
     69 H26         5.7260    5.9193   -0.8235 H         1 <0>         0.1034
     70 H27         6.9808    5.7414    0.3204 H         1 <0>         0.1151
     71 H28         6.1012    4.9382    2.3278 H         1 <0>         0.0915
     72 H29         5.1069    3.9168    4.3568 H         1 <0>         0.0563
     73 H30         3.8459    4.5958    3.2999 H         1 <0>         0.0685
     74 H31         4.1274    2.8385    3.3341 H         1 <0>         0.0532
     75 H32         7.4169    2.9678    1.5963 H         1 <0>         0.0547
     76 H33         7.1923    2.9662    3.3620 H         1 <0>         0.0640
     77 H34         6.2128    1.8879    2.3392 H         1 <0>         0.0583
     78 H35         4.7414    1.7663    0.4068 H         1 <0>         0.4152
     79 H36         0.4002    1.2558    2.2720 H         1 <0>         0.1822
     80 H37        -0.8831   -1.5308    0.8976 H         1 <0>         0.0927
     81 H38         0.1655   -2.6008    1.8587 H         1 <0>         0.0878
     82 H39        -0.6751   -1.2410    2.6414 H         1 <0>         0.0962
@<TRIPOS>BOND
     1    1    2 1
     2    1   48 1
     3    1   49 1
     4    1   50 1
     5    2    3 1
     6    2   51 1
     7    2   52 1
     8    3    4 1
     9    4    5 2
    10    4    6 1
    11    6    7 2
    12    6   53 1
    13    7    8 1
    14    7   54 1
    15    8    9 1
    16    8   10 1
    17    8   18 1
    18   10   11 1
    19   10   55 1
    20   10   56 1
    21   11   12 1
    22   11   16 1
    23   11   13 1
    24   13   14 1
    25   13   57 1
    26   13   58 1
    27   14   15 1
    28   14   59 1
    29   14   60 1
    30   15   16 am
    31   15   61 1
    32   16   17 2
    33   18   19 am
    34   18   62 1
    35   19   20 2
    36   19   21 1
    37   21   22 1
    38   21   23 1
    39   21   31 1
    40   23   24 1
    41   23   63 1
    42   23   64 1
    43   24   29 ar
    44   24   25 ar
    45   25   26 ar
    46   25   65 1
    47   26   27 ar
    48   26   66 1
    49   27   28 ar
    50   27   30 1
    51   28   29 ar
    52   28   67 1
    53   29   68 1
    54   31   32 1
    55   31   69 1
    56   31   70 1
    57   32   33 2
    58   32   34 1
    59   34   35 1
    60   34   36 1
    61   34   39 1
    62   36   37 1
    63   36   38 1
    64   36   71 1
    65   37   72 1
    66   37   73 1
    67   37   74 1
    68   38   75 1
    69   38   76 1
    70   38   77 1
    71   39   40 am
    72   39   78 1
    73   40   41 2
    74   40   42 1
    75   42   46 2
    76   42   43 1
    77   43   44 2
    78   43   79 1
    79   44   45 1
    80   44   47 1
    81   45   46 1
    82   47   80 1
    83   47   81 1
    84   47   82 1
@<TRIPOS>MOLECULE
ZINC13741431
   47    49     0     0     0
SMALL
USER_CHARGES
4-hydroxy-3-[(1S)-1-phenylpropyl]-5,6,7,8,9,10-hexahydrocycloocta[e]pyran-2-one
@<TRIPOS>ATOM
      1 C1          0.0315   -5.2749   -3.2724 C.3       1 <0>        -0.1500
      2 C2          0.0523   -4.4315   -1.9961 C.3       1 <0>        -0.1271
      3 C3         -0.2488   -2.9723   -2.3440 C.3       1 <0>         0.0262
      4 H1          0.4524   -2.6278   -3.1041 H         1 <0>         0.0895
      5 C4         -1.6560   -2.8619   -2.8719 C.ar      1 <0>        -0.0695
      6 C5         -2.7277   -3.1565   -2.0500 C.ar      1 <0>        -0.1235
      7 C6         -4.0186   -3.0510   -2.5329 C.ar      1 <0>        -0.1218
      8 C7         -4.2376   -2.6601   -3.8407 C.ar      1 <0>        -0.1239
      9 C8         -3.1657   -2.3701   -4.6640 C.ar      1 <0>        -0.1227
     10 C9         -1.8749   -2.4714   -4.1798 C.ar      1 <0>        -0.1128
     11 C10        -0.1078   -2.1218   -1.1080 C.2       1 <0>        -0.2648
     12 C11         0.5098   -0.8832   -1.1703 C.2       1 <0>         0.2402
     13 C12         0.6144   -0.1295    0.0119 C.2       1 <0>        -0.2363
     14 C13         0.1278   -0.6098    1.1778 C.2       1 <0>         0.1618
     15 O1         -0.4704   -1.8072    1.2261 O.3       1 <0>        -0.2569
     16 C14        -0.5991   -2.5682    0.1250 C.2       1 <0>         0.5071
     17 O2         -1.1473   -3.6554    0.2008 O.2       1 <0>        -0.4614
     18 C15         0.2859    0.2313    2.4178 C.3       1 <0>        -0.0887
     19 C16         1.4093   -0.3515    3.2725 C.3       1 <0>        -0.1191
     20 C17         2.7096   -0.3891    2.4261 C.3       1 <0>        -0.1279
     21 C18         2.9943    1.0432    1.9395 C.3       1 <0>        -0.1216
     22 C19         2.6947    1.1713    0.4609 C.3       1 <0>        -0.1193
     23 C20         1.2605    1.2289    0.0373 C.3       1 <0>        -0.0636
     24 O3          1.0000   -0.4104   -2.3403 O.3       1 <0>        -0.4774
     25 H2          0.2460   -6.3144   -3.0246 H         1 <0>         0.0549
     26 H3         -0.9525   -5.2076   -3.7364 H         1 <0>         0.0566
     27 H4          0.7862   -4.9035   -3.9657 H         1 <0>         0.0499
     28 H5          1.0364   -4.4987   -1.5322 H         1 <0>         0.0583
     29 H6         -0.7024   -4.8029   -1.3028 H         1 <0>         0.0961
     30 H7         -2.5565   -3.4659   -1.0295 H         1 <0>         0.1420
     31 H8         -4.8561   -3.2773   -1.8895 H         1 <0>         0.1193
     32 H9         -5.2460   -2.5810   -4.2190 H         1 <0>         0.1191
     33 H10        -3.3368   -2.0647   -5.6857 H         1 <0>         0.1202
     34 H11        -1.0375   -2.2452   -4.8232 H         1 <0>         0.1191
     35 H12         0.5353    1.2542    2.1355 H         1 <0>         0.1171
     36 H13        -0.6451    0.2242    2.9846 H         1 <0>         0.0957
     37 H14         1.5629    0.2749    4.1512 H         1 <0>         0.0829
     38 H15         1.1445   -1.3615    3.5853 H         1 <0>         0.0723
     39 H16         3.5389   -0.7427    3.0387 H         1 <0>         0.0697
     40 H17         2.5739   -1.0499    1.5699 H         1 <0>         0.0618
     41 H18         2.3695    1.7426    2.4950 H         1 <0>         0.0683
     42 H19         4.0434    1.2809    2.1157 H         1 <0>         0.0686
     43 H20         3.1569    0.3244   -0.0462 H         1 <0>         0.0560
     44 H21         3.1841    2.0759    0.1001 H         1 <0>         0.0661
     45 H22         1.2043    1.6651   -0.9600 H         1 <0>         0.0846
     46 H23         0.7130    1.8671    0.7309 H         1 <0>         0.0802
     47 H24         1.9213   -0.6524   -2.5072 H         1 <0>         0.4047
@<TRIPOS>BOND
     1    1    2 1
     2    1   25 1
     3    1   26 1
     4    1   27 1
     5    2    3 1
     6    2   28 1
     7    2   29 1
     8    3    4 1
     9    3    5 1
    10    3   11 1
    11    5   10 ar
    12    5    6 ar
    13    6    7 ar
    14    6   30 1
    15    7    8 ar
    16    7   31 1
    17    8    9 ar
    18    8   32 1
    19    9   10 ar
    20    9   33 1
    21   10   34 1
    22   11   16 1
    23   11   12 2
    24   12   13 1
    25   12   24 1
    26   13   23 1
    27   13   14 2
    28   14   15 1
    29   14   18 1
    30   15   16 1
    31   16   17 2
    32   18   19 1
    33   18   35 1
    34   18   36 1
    35   19   20 1
    36   19   37 1
    37   19   38 1
    38   20   21 1
    39   20   39 1
    40   20   40 1
    41   21   22 1
    42   21   41 1
    43   21   42 1
    44   22   23 1
    45   22   43 1
    46   22   44 1
    47   23   45 1
    48   23   46 1
    49   24   47 1
@<TRIPOS>MOLECULE
ZINC13741432
   47    49     0     0     0
SMALL
USER_CHARGES
4-hydroxy-3-[(1R)-1-phenylpropyl]-5,6,7,8,9,10-hexahydrocycloocta[e]pyran-2-one
@<TRIPOS>ATOM
      1 C1         -2.4926    3.7219    1.5394 C.3       1 <0>        -0.1493
      2 C2         -1.2213    2.8968    1.3297 C.3       1 <0>        -0.1297
      3 C3         -1.3319    2.1138    0.0199 C.3       1 <0>         0.0253
      4 H1         -2.2422    1.5144    0.0306 H         1 <0>         0.0933
      5 C4         -0.1360    1.2085   -0.1266 C.ar      1 <0>        -0.0836
      6 C5         -0.2725   -0.0232   -0.7392 C.ar      1 <0>        -0.1122
      7 C6          0.8229   -0.8566   -0.8672 C.ar      1 <0>        -0.1269
      8 C7          2.0552   -0.4574   -0.3847 C.ar      1 <0>        -0.1210
      9 C8          2.1918    0.7745    0.2274 C.ar      1 <0>        -0.1259
     10 C9          1.0961    1.6073    0.3566 C.ar      1 <0>        -0.0945
     11 C10        -1.3779    3.0766   -1.1386 C.2       1 <0>        -0.2556
     12 C11        -2.4156    3.0266   -2.0539 C.2       1 <0>         0.2335
     13 C12        -2.4183    3.9512   -3.1164 C.2       1 <0>        -0.2278
     14 C13        -1.4133    4.8466   -3.2347 C.2       1 <0>         0.1504
     15 O1         -0.4144    4.8884   -2.3469 O.3       1 <0>        -0.2572
     16 C14        -0.3689    4.0324   -1.3098 C.2       1 <0>         0.5070
     17 O2          0.5550    4.0895   -0.5151 O.2       1 <0>        -0.4599
     18 C15        -1.4614    5.7826   -4.4131 C.3       1 <0>        -0.0753
     19 C16        -2.3183    6.9815   -4.1594 C.3       1 <0>        -0.1199
     20 C17        -3.8201    6.8176   -4.2741 C.3       1 <0>        -0.1211
     21 C18        -4.3730    6.0575   -3.0551 C.3       1 <0>        -0.1264
     22 C19        -4.7559    4.6281   -3.5219 C.3       1 <0>        -0.1148
     23 C20        -3.5238    3.9668   -4.1385 C.3       1 <0>        -0.0726
     24 O3         -3.4070    2.1134   -1.9279 O.3       1 <0>        -0.4783
     25 H2         -2.4139    4.2798    2.4725 H         1 <0>         0.0576
     26 H3         -2.6152    4.4177    0.7094 H         1 <0>         0.0463
     27 H4         -3.3544    3.0561    1.5857 H         1 <0>         0.0528
     28 H5         -1.0987    2.2010    2.1597 H         1 <0>         0.0697
     29 H6         -0.3596    3.5626    1.2833 H         1 <0>         0.0869
     30 H7         -1.2352   -0.3348   -1.1168 H         1 <0>         0.1194
     31 H8          0.7162   -1.8190   -1.3457 H         1 <0>         0.1197
     32 H9          2.9114   -1.1078   -0.4863 H         1 <0>         0.1191
     33 H10         3.1547    1.0864    0.6043 H         1 <0>         0.1202
     34 H11         1.2029    2.5698    0.8349 H         1 <0>         0.1366
     35 H12        -0.4486    6.1151   -4.6406 H         1 <0>         0.0944
     36 H13        -1.8552    5.2440   -5.2750 H         1 <0>         0.1084
     37 H14        -2.0147    7.7609   -4.8584 H         1 <0>         0.0763
     38 H15        -2.0990    7.3391   -3.1533 H         1 <0>         0.0641
     39 H16        -4.0535    6.2612   -5.1820 H         1 <0>         0.0700
     40 H17        -4.2869    7.8011   -4.3277 H         1 <0>         0.0702
     41 H18        -5.2553    6.5689   -2.6702 H         1 <0>         0.0660
     42 H19        -3.6103    6.0004   -2.2785 H         1 <0>         0.0611
     43 H20        -5.5501    4.6871   -4.2661 H         1 <0>         0.0731
     44 H21        -5.0971    4.0417   -2.6688 H         1 <0>         0.0589
     45 H22        -3.2045    4.5332   -5.0134 H         1 <0>         0.0878
     46 H23        -3.7638    2.9450   -4.4326 H         1 <0>         0.0810
     47 H24        -4.1570    2.4176   -1.3987 H         1 <0>         0.4030
@<TRIPOS>BOND
     1    1    2 1
     2    1   25 1
     3    1   26 1
     4    1   27 1
     5    2    3 1
     6    2   28 1
     7    2   29 1
     8    3    4 1
     9    3    5 1
    10    3   11 1
    11    5   10 ar
    12    5    6 ar
    13    6    7 ar
    14    6   30 1
    15    7    8 ar
    16    7   31 1
    17    8    9 ar
    18    8   32 1
    19    9   10 ar
    20    9   33 1
    21   10   34 1
    22   11   16 1
    23   11   12 2
    24   12   13 1
    25   12   24 1
    26   13   23 1
    27   13   14 2
    28   14   15 1
    29   14   18 1
    30   15   16 1
    31   16   17 2
    32   18   19 1
    33   18   35 1
    34   18   36 1
    35   19   20 1
    36   19   37 1
    37   19   38 1
    38   20   21 1
    39   20   39 1
    40   20   40 1
    41   21   22 1
    42   21   41 1
    43   21   42 1
    44   22   23 1
    45   22   43 1
    46   22   44 1
    47   23   45 1
    48   23   46 1
    49   24   47 1
@<TRIPOS>MOLECULE
ZINC04141329
   21    22     0     0     0
SMALL
USER_CHARGES
1-methyl-5-nitro-indoline-2,3-dione
@<TRIPOS>ATOM
      1 C1         -1.6407    4.5556    0.0423 C.3       1 <0>         0.0720
      2 N1         -0.7709    3.3768    0.0276 N.am      1 <0>        -0.5460
      3 C2          0.6210    3.4289    0.0145 C.ar      1 <0>         0.2480
      4 C3          1.4996    4.5046    0.0112 C.ar      1 <0>        -0.1482
      5 C4          2.8646    4.2874   -0.0041 C.ar      1 <0>         0.0217
      6 C5          3.3756    3.0002   -0.0154 C.ar      1 <0>        -0.0856
      7 C6          2.5208    1.9168   -0.0124 C.ar      1 <0>         0.0613
      8 C7          1.1417    2.1247    0.0026 C.ar      1 <0>        -0.2414
      9 C8         -0.0144    1.2093    0.0087 C.2       1 <0>         0.3951
     10 O1          0.0021   -0.0041    0.0020 O.2       1 <0>        -0.3482
     11 C9         -1.2152    2.1081    0.0184 C.2       1 <0>         0.4950
     12 O2         -2.3756    1.7546    0.0208 O.2       1 <0>        -0.4237
     13 N2          4.8402    2.7863   -0.0313 N.pl3     1 <0>         0.0313
     14 O3          5.2903    1.6545   -0.0417 O.2       1 <0>        -0.1531
     15 O4          5.5953    3.7420   -0.0340 O.3       1 <0>        -0.1514
     16 H1         -1.8662    4.8535   -0.9817 H         1 <0>         0.0815
     17 H2         -2.5676    4.3167    0.5637 H         1 <0>         0.0961
     18 H3         -1.1354    5.3736    0.5557 H         1 <0>         0.0924
     19 H4          1.1151    5.5138    0.0203 H         1 <0>         0.1621
     20 H5          3.5397    5.1304   -0.0069 H         1 <0>         0.1710
     21 H6          2.9179    0.9125   -0.0219 H         1 <0>         0.1699
@<TRIPOS>BOND
     1    1    2 1
     2    1   16 1
     3    1   17 1
     4    1   18 1
     5    2   11 am
     6    2    3 1
     7    3    8 ar
     8    3    4 ar
     9    4    5 ar
    10    4   19 1
    11    5    6 ar
    12    5   20 1
    13    6    7 ar
    14    6   13 1
    15    7    8 ar
    16    7   21 1
    17    8    9 1
    18    9   10 2
    19    9   11 1
    20   11   12 2
    21   13   14 2
    22   13   15 1
@<TRIPOS>MOLECULE
ZINC01537619
   45    47     0     0     0
SMALL
USER_CHARGES
3-[3,5-dimethyl-4-[3-(3-methylisoxazol-5-yl)propoxy]phenyl]-5-(trifluoromethyl)-1,2,4-oxadiazole
@<TRIPOS>ATOM
      1 C1          0.9047    3.5016    3.5808 C.3       1 <0>        -0.1150
      2 C2         -0.1216    2.6256    4.2519 C.ar      1 <0>        -0.0981
      3 C3         -0.6406    2.9873    5.4769 C.ar      1 <0>        -0.0643
      4 C4         -1.5854    2.1733    6.0999 C.ar      1 <0>        -0.0320
      5 C5         -2.0068    0.9984    5.4793 C.ar      1 <0>        -0.0721
      6 C6         -1.4886    0.6447    4.2516 C.ar      1 <0>        -0.0987
      7 C7         -0.5472    1.4573    3.6336 C.ar      1 <0>         0.1215
      8 O1         -0.0377    1.1059    2.4245 O.3       1 <0>        -0.3277
      9 C8         -0.7288    1.5792    1.2668 C.3       1 <0>         0.0667
     10 C9         -0.0127    1.0858    0.0080 C.3       1 <0>        -0.1168
     11 C10        -0.7527    1.5927   -1.2315 C.3       1 <0>        -0.0362
     12 C11        -0.0473    1.1066   -2.4714 C.2       1 <0>        -0.0277
     13 C12        -0.2820   -0.0491   -3.1375 C.2       1 <0>        -0.2283
     14 C13         0.6378   -0.0178   -4.2107 C.2       1 <0>         0.0160
     15 N1          1.3022    1.0954   -4.0929 N.2       1 <0>        -0.3647
     16 O2          0.9322    1.7355   -3.1360 O.3       1 <0>         0.1011
     17 C14         0.8146   -1.0659   -5.2790 C.3       1 <0>        -0.0781
     18 C15        -1.9437   -0.6253    3.5800 C.3       1 <0>        -0.1116
     19 C16        -2.1415    2.5569    7.4205 C.2       1 <0>         0.2288
     20 N2         -1.8261    3.6614    8.1344 N.2       1 <0>        -0.4084
     21 C17        -2.5489    3.5939    9.2245 C.2       1 <0>         0.0897
     22 O3         -3.2719    2.4722    9.1488 O.3       1 <0>         0.1302
     23 N3         -3.0329    1.8931    8.1102 N.2       1 <0>        -0.3459
     24 C18        -2.5633    4.5936   10.3521 C.3       1 <0>         0.5885
     25 F1         -3.5362    5.5668   10.1001 F         1 <0>        -0.1454
     26 F2         -2.8589    3.9385   11.5524 F         1 <0>        -0.1467
     27 F3         -1.3081    5.2035   10.4507 F         1 <0>        -0.1377
     28 H1          0.4007    4.2344    2.9507 H         1 <0>         0.0732
     29 H2          1.4933    4.0180    4.3391 H         1 <0>         0.0731
     30 H3          1.5625    2.8860    2.9672 H         1 <0>         0.0780
     31 H4         -0.3123    3.8981    5.9554 H         1 <0>         0.1424
     32 H5         -2.7389    0.3661    5.9595 H         1 <0>         0.1371
     33 H6         -0.7436    2.6691    1.2728 H         1 <0>         0.0606
     34 H7         -1.7514    1.2020    1.2746 H         1 <0>         0.0595
     35 H8          0.0021   -0.0041    0.0020 H         1 <0>         0.0808
     36 H9          1.0099    1.4631    0.0003 H         1 <0>         0.0819
     37 H10        -1.7753    1.2154   -1.2238 H         1 <0>         0.1009
     38 H11        -0.7675    2.6825   -1.2255 H         1 <0>         0.0937
     39 H12        -1.0045   -0.8169   -2.9031 H         1 <0>         0.1718
     40 H13         0.1595   -0.8410   -6.1207 H         1 <0>         0.0813
     41 H14         1.8511   -1.0697   -5.6163 H         1 <0>         0.0771
     42 H15         0.5611   -2.0451   -4.8728 H         1 <0>         0.0823
     43 H16        -1.2991   -1.4493    3.8861 H         1 <0>         0.0780
     44 H17        -2.9719   -0.8413    3.8700 H         1 <0>         0.0700
     45 H18        -1.8891   -0.5039    2.4982 H         1 <0>         0.0713
@<TRIPOS>BOND
     1    1    2 1
     2    1   28 1
     3    1   29 1
     4    1   30 1
     5    2    7 ar
     6    2    3 ar
     7    3    4 ar
     8    3   31 1
     9    4    5 ar
    10    4   19 1
    11    5    6 ar
    12    5   32 1
    13    6    7 ar
    14    6   18 1
    15    7    8 1
    16    8    9 1
    17    9   10 1
    18    9   33 1
    19    9   34 1
    20   10   11 1
    21   10   35 1
    22   10   36 1
    23   11   12 1
    24   11   37 1
    25   11   38 1
    26   12   16 1
    27   12   13 2
    28   13   14 1
    29   13   39 1
    30   14   15 2
    31   14   17 1
    32   15   16 1
    33   17   40 1
    34   17   41 1
    35   17   42 1
    36   18   43 1
    37   18   44 1
    38   18   45 1
    39   19   23 2
    40   19   20 1
    41   20   21 2
    42   21   22 1
    43   21   24 1
    44   22   23 1
    45   24   25 1
    46   24   26 1
    47   24   27 1
@<TRIPOS>MOLECULE
ZINC00538202
   54    56     0     0     0
SMALL
USER_CHARGES
ethyl 4-[2-[1-(6-methylpyridazin-3-yl)-4-piperidyl]ethoxy]benzoate
@<TRIPOS>ATOM
      1 C1         -2.4556  -10.6494    9.2768 C.3       1 <0>        -0.1535
      2 C2         -1.9506  -11.5174    8.1224 C.3       1 <0>         0.0630
      3 O1         -1.3877  -10.6677    7.0883 O.3       1 <0>        -0.3563
      4 C3         -0.8949  -11.2805    5.9941 C.2       1 <0>         0.5130
      5 O2         -0.9343  -12.4917    5.9066 O.2       1 <0>        -0.5090
      6 C4         -0.3075  -10.4811    4.9029 C.ar      1 <0>        -0.1705
      7 C5          0.2044  -11.1149    3.7669 C.ar      1 <0>        -0.0120
      8 C6          0.7514  -10.3648    2.7502 C.ar      1 <0>        -0.1647
      9 C7          0.7948   -8.9791    2.8520 C.ar      1 <0>         0.1707
     10 C8          0.2916   -8.3451    3.9823 C.ar      1 <0>        -0.2254
     11 C9         -0.2616   -9.0874    5.0014 C.ar      1 <0>        -0.0176
     12 O3          1.3348   -8.2435    1.8477 O.3       1 <0>        -0.3076
     13 C10         1.3473   -6.8246    2.0171 C.3       1 <0>         0.0542
     14 C11         1.9896   -6.1704    0.7922 C.3       1 <0>        -0.1130
     15 C12         2.0030   -4.6512    0.9736 C.3       1 <0>        -0.0878
     16 C13         2.7560   -4.0034   -0.1916 C.3       1 <0>        -0.1137
     17 C14         2.7137   -2.4815   -0.0368 C.3       1 <0>         0.0625
     18 N1          1.3169   -2.0285   -0.0209 N.pl3     1 <0>        -0.4680
     19 C15         0.5861   -2.6005    1.1171 C.3       1 <0>         0.0579
     20 C16         0.5649   -4.1260    0.9967 C.3       1 <0>        -0.1170
     21 C17         1.2434   -0.6400   -0.0133 C.ar      1 <0>         0.2478
     22 C18         0.0021   -0.0041    0.0020 C.ar      1 <0>        -0.1302
     23 C19        -0.0167    1.3814    0.0096 C.ar      1 <0>        -0.0962
     24 C20         1.1995    2.0505    0.0016 C.ar      1 <0>         0.0447
     25 N2          2.3271    1.3685   -0.0128 N.ar      1 <0>        -0.2216
     26 N3          2.3521    0.0853   -0.0199 N.ar      1 <0>        -0.2787
     27 C21         1.2304    3.5572    0.0094 C.3       1 <0>        -0.0987
     28 H1         -1.6260  -10.0755    9.6897 H         1 <0>         0.0671
     29 H2         -3.2224   -9.9671    8.9099 H         1 <0>         0.0671
     30 H3         -2.8781  -11.2873   10.0531 H         1 <0>         0.0817
     31 H4         -2.7802  -12.0913    7.7095 H         1 <0>         0.0715
     32 H5         -1.1838  -12.1997    8.4893 H         1 <0>         0.0715
     33 H6          0.1705  -12.1914    3.6867 H         1 <0>         0.1457
     34 H7          1.1471  -10.8537    1.8723 H         1 <0>         0.1428
     35 H8          0.3312   -7.2686    4.0594 H         1 <0>         0.1367
     36 H9         -0.6563   -8.5939    5.8772 H         1 <0>         0.1413
     37 H10         1.9215   -6.5701    2.9080 H         1 <0>         0.0661
     38 H11         0.3251   -6.4629    2.1281 H         1 <0>         0.0682
     39 H12         1.4155   -6.4249   -0.0986 H         1 <0>         0.0790
     40 H13         3.0119   -6.5321    0.6813 H         1 <0>         0.0788
     41 H14         2.4984   -4.4007    1.9117 H         1 <0>         0.0751
     42 H15         2.2840   -4.2867   -1.1324 H         1 <0>         0.0763
     43 H16         3.7925   -4.3408   -0.1884 H         1 <0>         0.0783
     44 H17         3.2367   -2.0167   -0.8726 H         1 <0>         0.0913
     45 H18         3.1980   -2.1980    0.8976 H         1 <0>         0.0533
     46 H19         1.0804   -2.3163    2.0460 H         1 <0>         0.0489
     47 H20        -0.4362   -2.2221    1.1194 H         1 <0>         0.0851
     48 H21         0.0584   -4.4113    0.0747 H         1 <0>         0.0803
     49 H22         0.0359   -4.5510    1.8497 H         1 <0>         0.0760
     50 H23        -0.9155   -0.5736    0.0081 H         1 <0>         0.1508
     51 H24        -0.9501    1.9247    0.0170 H         1 <0>         0.1522
     52 H25         1.2477    3.9149    1.0389 H         1 <0>         0.0820
     53 H26         2.1227    3.9050   -0.5111 H         1 <0>         0.0819
     54 H27         0.3432    3.9414   -0.4939 H         1 <0>         0.0787
@<TRIPOS>BOND
     1    1    2 1
     2    1   28 1
     3    1   29 1
     4    1   30 1
     5    2    3 1
     6    2   31 1
     7    2   32 1
     8    3    4 1
     9    4    5 2
    10    4    6 1
    11    6   11 ar
    12    6    7 ar
    13    7    8 ar
    14    7   33 1
    15    8    9 ar
    16    8   34 1
    17    9   10 ar
    18    9   12 1
    19   10   11 ar
    20   10   35 1
    21   11   36 1
    22   12   13 1
    23   13   14 1
    24   13   37 1
    25   13   38 1
    26   14   15 1
    27   14   39 1
    28   14   40 1
    29   15   20 1
    30   15   16 1
    31   15   41 1
    32   16   17 1
    33   16   42 1
    34   16   43 1
    35   17   18 1
    36   17   44 1
    37   17   45 1
    38   18   19 1
    39   18   21 1
    40   19   20 1
    41   19   46 1
    42   19   47 1
    43   20   48 1
    44   20   49 1
    45   21   26 ar
    46   21   22 ar
    47   22   23 ar
    48   22   50 1
    49   23   24 ar
    50   23   51 1
    51   24   25 ar
    52   24   27 1
    53   25   26 ar
    54   27   52 1
    55   27   53 1
    56   27   54 1
@<TRIPOS>MOLECULE
ZINC38158973
  101   100     0     0     0
SMALL
USER_CHARGES

@<TRIPOS>ATOM
      1 C1         -4.3602    1.6367   -3.8186 C.3       1 <0>        -0.1585
      2 C2         -3.3647    0.5790   -3.3376 C.3       1 <0>         0.1236
      3 H1         -2.5084    1.0697   -2.8751 H         1 <0>         0.1144
      4 C3         -2.8990   -0.2431   -4.5116 C.2       1 <0>         0.5118
      5 O1         -3.0916   -1.4404   -4.5280 O.2       1 <0>        -0.5289
      6 N1         -2.2685    0.3522   -5.5434 N.am      1 <0>        -0.7089
      7 C4         -1.8157   -0.4471   -6.6847 C.3       1 <0>         0.1075
      8 H2         -1.4895   -1.4268   -6.3356 H         1 <0>         0.0965
      9 C5         -2.9675   -0.6169   -7.6773 C.3       1 <0>        -0.1186
     10 C6         -4.0845   -1.4359   -7.0273 C.3       1 <0>        -0.0922
     11 C7         -5.2859   -1.5003   -7.9725 C.3       1 <0>        -0.1463
     12 C8         -3.5804   -2.8528   -6.7460 C.3       1 <0>        -0.1382
     13 C9         -0.6490    0.2633   -7.3739 C.3       1 <0>         0.1256
     14 H3         -0.3121   -0.3314   -8.2230 H         1 <0>         0.1105
     15 C10         0.5028    0.4331   -6.3812 C.3       1 <0>        -0.2152
     16 C11         1.6952    1.0207   -7.0910 C.2       1 <0>         0.4910
     17 O2          1.6299    1.2797   -8.2806 O.co2     1 <0>        -0.6819
     18 O3          2.7253    1.2372   -6.4757 O.co2     1 <0>        -0.7088
     19 O4         -1.0766    1.5477   -7.8315 O.3       1 <0>        -0.5330
     20 N2         -4.0153   -0.2941   -2.3575 N.am      1 <0>        -0.7132
     21 C12        -4.0614    0.0665   -1.0597 C.2       1 <0>         0.5168
     22 O5         -3.5642    1.1137   -0.7032 O.2       1 <0>        -0.5215
     23 C13        -4.7306   -0.8316   -0.0514 C.3       1 <0>        -0.1752
     24 C14        -4.6442   -0.1936    1.3365 C.3       1 <0>         0.1178
     25 H4         -5.0661    0.8109    1.3016 H         1 <0>         0.1109
     26 C15        -5.4302   -1.0424    2.3379 C.3       1 <0>         0.1088
     27 H5         -6.4523   -1.1711    1.9816 H         1 <0>         0.1119
     28 C16        -4.7633   -2.4120    2.4797 C.3       1 <0>        -0.1359
     29 C17        -5.6148   -3.3024    3.3868 C.3       1 <0>        -0.0875
     30 C18        -5.0858   -4.7371    3.3354 C.3       1 <0>        -0.1488
     31 C19        -5.5426   -2.7835    4.8243 C.3       1 <0>        -0.1670
     32 N3         -5.4478   -0.3706    3.6396 N.am      1 <0>        -0.7082
     33 C20        -6.6224   -0.1027    4.2439 C.2       1 <0>         0.5210
     34 O6         -7.6604   -0.4904    3.7507 O.2       1 <0>        -0.5302
     35 C21        -6.6460    0.6785    5.5324 C.3       1 <0>         0.1305
     36 H6         -6.0750    0.1442    6.2917 H         1 <0>         0.1149
     37 C22        -6.0248    2.0579    5.3039 C.3       1 <0>        -0.1022
     38 C23        -6.8964    2.8550    4.3313 C.3       1 <0>        -0.1484
     39 C24        -5.9348    2.8038    6.6368 C.3       1 <0>        -0.1381
     40 N4         -8.0311    0.8352    5.9832 N.am      1 <0>        -0.7016
     41 C25        -8.2966    1.0285    7.2903 C.2       1 <0>         0.5196
     42 O7         -7.3864    1.1590    8.0811 O.2       1 <0>        -0.5270
     43 C26        -9.7244    1.0825    7.7692 C.3       1 <0>         0.1336
     44 H7        -10.3538    1.5090    6.9881 H         1 <0>         0.1079
     45 C27       -10.2063   -0.3322    8.0968 C.3       1 <0>        -0.0971
     46 C28       -11.6859   -0.2901    8.4842 C.3       1 <0>        -0.1373
     47 C29       -10.0255   -1.2293    6.8707 C.3       1 <0>        -0.1522
     48 N5         -9.8052    1.9165    8.9710 N.am      1 <0>        -0.7153
     49 C30       -10.9641    2.5248    9.2924 C.2       1 <0>         0.5132
     50 O8        -11.9401    2.3819    8.5867 O.2       1 <0>        -0.5387
     51 C31       -11.0472    3.3827   10.5286 C.3       1 <0>        -0.1712
     52 O9         -3.2762   -0.1218    1.7434 O.3       1 <0>        -0.5402
     53 H8         -3.8762    2.2863   -4.5478 H         1 <0>         0.0729
     54 H9         -5.2166    1.1459   -4.2810 H         1 <0>         0.0629
     55 H10        -4.6971    2.2313   -2.9694 H         1 <0>         0.0723
     56 H11        -2.1145    1.3098   -5.5303 H         1 <0>         0.3975
     57 H12        -3.3523    0.3634   -7.9586 H         1 <0>         0.0690
     58 H13        -2.6076   -1.1346   -8.5664 H         1 <0>         0.0715
     59 H14        -4.3834   -0.9641   -6.0913 H         1 <0>         0.0712
     60 H15        -4.9870   -1.9721   -8.9085 H         1 <0>         0.0510
     61 H16        -6.0816   -2.0838   -7.5094 H         1 <0>         0.0477
     62 H17        -5.6450   -0.4908   -8.1729 H         1 <0>         0.0485
     63 H18        -4.3761   -3.4363   -6.2829 H         1 <0>         0.0423
     64 H19        -3.2814   -3.3246   -7.6820 H         1 <0>         0.0397
     65 H20        -2.7245   -2.8069   -6.0727 H         1 <0>         0.0729
     66 H21         0.1937    1.1004   -5.5767 H         1 <0>         0.0579
     67 H22         0.7700   -0.5383   -5.9651 H         1 <0>         0.0640
     68 H23        -1.3904    2.1316   -7.1275 H         1 <0>         0.3505
     69 H24        -4.4129   -1.1316   -2.6425 H         1 <0>         0.4084
     70 H25        -5.7771   -0.9677   -0.3242 H         1 <0>         0.1051
     71 H26        -4.2298   -1.7996   -0.0381 H         1 <0>         0.1024
     72 H27        -4.6724   -2.8754    1.4973 H         1 <0>         0.0801
     73 H28        -3.7723   -2.2900    2.9170 H         1 <0>         0.0727
     74 H29        -6.6499   -3.2844    3.0456 H         1 <0>         0.0713
     75 H30        -4.0507   -4.7551    3.6766 H         1 <0>         0.0540
     76 H31        -5.6925   -5.3715    3.9816 H         1 <0>         0.0533
     77 H32        -5.1373   -5.1069    2.3113 H         1 <0>         0.0546
     78 H33        -5.8348   -1.7336    4.8467 H         1 <0>         0.0708
     79 H34        -6.2184   -3.3622    5.4539 H         1 <0>         0.0467
     80 H35        -4.5231   -2.8848    5.1964 H         1 <0>         0.0511
     81 H36        -4.6142   -0.1186    4.0667 H         1 <0>         0.4083
     82 H37        -5.0255    1.9414    4.8845 H         1 <0>         0.0860
     83 H38        -7.8957    2.9714    4.7507 H         1 <0>         0.0565
     84 H39        -6.4539    3.8377    4.1685 H         1 <0>         0.0625
     85 H40        -6.9605    2.3236    3.3818 H         1 <0>         0.0543
     86 H41        -6.9341    2.9203    7.0562 H         1 <0>         0.0598
     87 H42        -5.3138    2.2360    7.3296 H         1 <0>         0.0626
     88 H43        -5.4922    3.7865    6.4740 H         1 <0>         0.0517
     89 H44        -8.7571    0.7999    5.3408 H         1 <0>         0.4125
     90 H45        -9.6244   -0.7309    8.9277 H         1 <0>         0.0776
     91 H46       -12.2678    0.1087    7.6533 H         1 <0>         0.0639
     92 H47       -12.0292   -1.2979    8.7176 H         1 <0>         0.0522
     93 H48       -11.8147    0.3490    9.3577 H         1 <0>         0.0565
     94 H49        -8.9626   -1.3448    6.6586 H         1 <0>         0.0588
     95 H50       -10.4650   -2.2070    7.0678 H         1 <0>         0.0639
     96 H51       -10.5201   -0.7751    6.0120 H         1 <0>         0.0614
     97 H52        -9.0246    2.0308    9.5354 H         1 <0>         0.4104
     98 H53       -10.0796    3.3916   11.0304 H         1 <0>         0.0769
     99 H54       -11.3200    4.3998   10.2474 H         1 <0>         0.0964
    100 H55       -11.8021    2.9771   11.2022 H         1 <0>         0.0961
    101 H56        -2.8361   -0.9812    1.7965 H         1 <0>         0.3689
@<TRIPOS>BOND
     1    1    2 1
     2    1   53 1
     3    1   54 1
     4    1   55 1
     5    2    3 1
     6    2    4 1
     7    2   20 1
     8    4    5 2
     9    4    6 am
    10    6    7 1
    11    6   56 1
    12    7    8 1
    13    7    9 1
    14    7   13 1
    15    9   10 1
    16    9   57 1
    17    9   58 1
    18   10   11 1
    19   10   12 1
    20   10   59 1
    21   11   60 1
    22   11   61 1
    23   11   62 1
    24   12   63 1
    25   12   64 1
    26   12   65 1
    27   13   14 1
    28   13   15 1
    29   13   19 1
    30   15   16 1
    31   15   66 1
    32   15   67 1
    33   16   17 2
    34   16   18 1
    35   19   68 1
    36   20   21 am
    37   20   69 1
    38   21   22 2
    39   21   23 1
    40   23   24 1
    41   23   70 1
    42   23   71 1
    43   24   25 1
    44   24   26 1
    45   24   52 1
    46   26   27 1
    47   26   28 1
    48   26   32 1
    49   28   29 1
    50   28   72 1
    51   28   73 1
    52   29   30 1
    53   29   31 1
    54   29   74 1
    55   30   75 1
    56   30   76 1
    57   30   77 1
    58   31   78 1
    59   31   79 1
    60   31   80 1
    61   32   33 am
    62   32   81 1
    63   33   34 2
    64   33   35 1
    65   35   36 1
    66   35   37 1
    67   35   40 1
    68   37   38 1
    69   37   39 1
    70   37   82 1
    71   38   83 1
    72   38   84 1
    73   38   85 1
    74   39   86 1
    75   39   87 1
    76   39   88 1
    77   40   41 am
    78   40   89 1
    79   41   42 2
    80   41   43 1
    81   43   44 1
    82   43   45 1
    83   43   48 1
    84   45   46 1
    85   45   47 1
    86   45   90 1
    87   46   91 1
    88   46   92 1
    89   46   93 1
    90   47   94 1
    91   47   95 1
    92   47   96 1
    93   48   49 am
    94   48   97 1
    95   49   50 2
    96   49   51 1
    97   51   98 1
    98   51   99 1
    99   51  100 1
   100   52  101 1
@<TRIPOS>MOLECULE
ZINC01710915
   30    31     0     0     0
SMALL
USER_CHARGES
2-(1-acetyl-2-oxo-propyl)-3-chloro-naphthalene-1,4-dione
@<TRIPOS>ATOM
      1 C1         -4.1829    0.8880    1.8736 C.3       1 <0>        -0.1848
      2 C2         -3.2743    1.9214    1.2591 C.2       1 <0>         0.3927
      3 O1         -3.1828    3.0176    1.7573 O.3       1 <0>        -0.5285
      4 C3         -2.4800    1.5868    0.0230 C.2       1 <0>        -0.5655
      5 C4         -1.1973    2.3779    0.0207 C.2       1 <0>         0.0469
      6 C5         -0.0215    1.7317    0.0116 C.2       1 <0>        -0.1424
      7 C6          1.2531    2.4780    0.0034 C.2       1 <0>         0.4312
      8 O2          2.3102    1.8796   -0.0091 O.2       1 <0>        -0.4455
      9 C7          1.2369    3.9566    0.0111 C.ar      1 <0>        -0.1231
     10 C8          2.4219    4.6829    0.0042 C.ar      1 <0>        -0.0713
     11 C9          2.3799    6.0685    0.0120 C.ar      1 <0>        -0.1178
     12 C10         1.1681    6.7321    0.0267 C.ar      1 <0>        -0.1033
     13 C11        -0.0222    6.0213    0.0337 C.ar      1 <0>        -0.0813
     14 C12         0.0035    4.6321    0.0260 C.ar      1 <0>        -0.1062
     15 C13        -1.2519    3.8498    0.0337 C.2       1 <0>         0.3831
     16 O3         -2.3250    4.4197    0.0470 O.2       1 <0>        -0.3621
     17 Cl1         0.0021   -0.0041    0.0020 Cl        1 <0>        -0.0382
     18 C14        -3.2865    1.9339   -1.2017 C.2       1 <0>         0.3887
     19 O4         -3.1333    3.0027   -1.7427 O.2       1 <0>        -0.5339
     20 C15        -4.2844    0.9474   -1.7514 C.3       1 <0>        -0.1813
     21 H1         -4.1337   -0.0399    1.2849 H         1 <0>         0.0822
     22 H2         -5.2163    1.2648    1.8785 H         1 <0>         0.0571
     23 H3         -3.8618    0.6848    2.9059 H         1 <0>         0.0658
     24 H4          3.3720    4.1697   -0.0074 H         1 <0>         0.1386
     25 H5          3.3005    6.6331    0.0067 H         1 <0>         0.1310
     26 H6          1.1480    7.8119    0.0331 H         1 <0>         0.1304
     27 H7         -0.9663    6.5456    0.0455 H         1 <0>         0.1372
     28 H8         -4.7716    1.3752   -2.6400 H         1 <0>         0.0473
     29 H9         -5.0439    0.7291   -0.9862 H         1 <0>         0.0700
     30 H10        -3.7661    0.0178   -2.0292 H         1 <0>         0.0830
@<TRIPOS>BOND
     1    1    2 1
     2    1   21 1
     3    1   22 1
     4    1   23 1
     5    2    3 1
     6    2    4 2
     7    4    5 1
     8    4   18 1
     9    5   15 1
    10    5    6 2
    11    6    7 1
    12    6   17 1
    13    7    8 2
    14    7    9 1
    15    9   14 ar
    16    9   10 ar
    17   10   11 ar
    18   10   24 1
    19   11   12 ar
    20   11   25 1
    21   12   13 ar
    22   12   26 1
    23   13   14 ar
    24   13   27 1
    25   14   15 1
    26   15   16 2
    27   18   19 2
    28   18   20 1
    29   20   28 1
    30   20   29 1
    31   20   30 1
@<TRIPOS>MOLECULE
ZINC01710915
   31    32     0     0     0
SMALL
USER_CHARGES
3-(1-acetyl-2-oxo-propyl)-2-chloro-naphthalene-1,4-dione
@<TRIPOS>ATOM
      1 C1         -4.6065    1.2596    1.5008 C.3       1 <0>        -0.2148
      2 C2         -3.2743    1.9214    1.2591 C.2       1 <0>         0.3746
      3 O1         -2.8434    2.7198    2.0560 O.2       1 <0>        -0.4362
      4 C3         -2.4800    1.5868    0.0230 C.3       1 <0>        -0.2358
      5 C4         -1.1973    2.3779    0.0207 C.2       1 <0>        -0.0391
      6 C5         -0.0215    1.7317    0.0116 C.2       1 <0>        -0.0564
      7 C6          1.2531    2.4780    0.0034 C.2       1 <0>         0.4290
      8 O2          2.3102    1.8796   -0.0091 O.2       1 <0>        -0.3940
      9 C7          1.2369    3.9566    0.0111 C.ar      1 <0>        -0.1212
     10 C8          2.4219    4.6829    0.0042 C.ar      1 <0>        -0.0586
     11 C9          2.3799    6.0685    0.0120 C.ar      1 <0>        -0.0942
     12 C10         1.1681    6.7321    0.0267 C.ar      1 <0>        -0.0923
     13 C11        -0.0222    6.0213    0.0337 C.ar      1 <0>        -0.0599
     14 C12         0.0035    4.6321    0.0260 C.ar      1 <0>        -0.1172
     15 C13        -1.2519    3.8498    0.0337 C.2       1 <0>         0.4369
     16 O3         -2.3250    4.4197    0.0470 O.2       1 <0>        -0.4050
     17 Cl1         0.0021   -0.0041    0.0020 Cl        1 <0>        -0.0069
     18 C14        -3.2330    0.5727   -0.7988 C.2       1 <0>         0.4269
     19 O4         -3.9439    0.9372   -1.7045 O.2       1 <0>        -0.4275
     20 C15        -3.0990   -0.8964   -0.4906 C.3       1 <0>        -0.2096
     21 H1         -4.4704    0.1797    1.5596 H         1 <0>         0.1039
     22 H2         -5.0287    1.6241    2.4373 H         1 <0>         0.1018
     23 H3         -5.2840    1.4962    0.6804 H         1 <0>         0.0952
     24 H4         -3.1946    2.1092   -0.4422 H         1 <0>         0.1161
     25 H5          3.3720    4.1697   -0.0074 H         1 <0>         0.1487
     26 H6          3.3005    6.6331    0.0067 H         1 <0>         0.1436
     27 H7          1.1480    7.8119    0.0331 H         1 <0>         0.1433
     28 H8         -0.9663    6.5456    0.0455 H         1 <0>         0.1471
     29 H9         -3.8609   -1.1868    0.2328 H         1 <0>         0.1078
     30 H10        -3.2288   -1.4731   -1.4064 H         1 <0>         0.0997
     31 H11        -2.1103   -1.0917   -0.0753 H         1 <0>         0.0940
@<TRIPOS>BOND
     1    1    2 1
     2    1   21 1
     3    1   22 1
     4    1   23 1
     5    2    4 1
     6    2    3 2
     7    4   24 1
     8    4    5 1
     9    4   18 1
    10    5   15 1
    11    5    6 2
    12    6    7 1
    13    6   17 1
    14    7    8 2
    15    7    9 1
    16    9   14 ar
    17    9   10 ar
    18   10   11 ar
    19   10   25 1
    20   11   12 ar
    21   11   26 1
    22   12   13 ar
    23   12   27 1
    24   13   14 ar
    25   13   28 1
    26   14   15 1
    27   15   16 2
    28   18   20 1
    29   18   19 2
    30   20   29 1
    31   20   30 1
    32   20   31 1
@<TRIPOS>MOLECULE
ZINC00135323
   18    19     0     0     0
SMALL
USER_CHARGES

@<TRIPOS>ATOM
      1 C1         -0.0167    1.3822    0.0096 C.ar      1 <0>        -0.0920
      2 C2          1.1647    2.0984    0.0022 C.ar      1 <0>        -0.0920
      3 C3          2.3849    1.4405   -0.0129 C.ar      1 <0>        -0.0577
      4 C4          2.4199    0.0514   -0.0207 C.ar      1 <0>        -0.1205
      5 C5          1.2174   -0.6777   -0.0131 C.ar      1 <0>        -0.1205
      6 C6          0.0021   -0.0041    0.0020 C.ar      1 <0>        -0.0577
      7 C7          1.2654   -2.1560   -0.0209 C.2       1 <0>         0.4335
      8 O1          0.2348   -2.7995   -0.0149 O.2       1 <0>        -0.3903
      9 C8          2.5686   -2.8461   -0.0365 C.2       1 <0>        -0.0717
     10 C9          3.7175   -2.1496   -0.0433 C.2       1 <0>        -0.0717
     11 C10         3.7083   -0.6749   -0.0363 C.2       1 <0>         0.4335
     12 O2          4.7554   -0.0587   -0.0435 O.2       1 <0>        -0.3903
     13 Cl1         5.2326   -2.9968   -0.0604 Cl        1 <0>         0.0052
     14 Cl2         2.6189   -4.5814   -0.0455 Cl        1 <0>         0.0052
     15 H1         -0.9612    1.9057    0.0260 H         1 <0>         0.1444
     16 H2          1.1375    3.1780    0.0079 H         1 <0>         0.1444
     17 H3          3.3052    2.0057   -0.0191 H         1 <0>         0.1492
     18 H4         -0.9247   -0.5586    0.0082 H         1 <0>         0.1492
@<TRIPOS>BOND
     1    1    6 ar
     2    1    2 ar
     3    1   15 1
     4    2    3 ar
     5    2   16 1
     6    3    4 ar
     7    3   17 1
     8    4   11 1
     9    4    5 ar
    10    5    6 ar
    11    5    7 1
    12    6   18 1
    13    7    8 2
    14    7    9 1
    15    9   10 2
    16    9   14 1
    17   10   11 1
    18   10   13 1
    19   11   12 2
@<TRIPOS>MOLECULE
ZINC01710914
   35    36     0     0     0
SMALL
USER_CHARGES
ethyl 2-(3-chloro-1,4-dioxo-2-naphthyl)-3-oxo-butanoate
@<TRIPOS>ATOM
      1 C1          0.1015   11.3410   -2.6658 C.3       1 <0>        -0.1534
      2 C2          0.0870    9.8124   -2.6025 C.3       1 <0>         0.0640
      3 O1         -0.5910    9.3846   -1.3918 O.3       1 <0>        -0.3490
      4 C3         -0.6902    8.0622   -1.1837 C.2       1 <0>         0.4870
      5 O2         -0.2259    7.2878   -1.9866 O.2       1 <0>        -0.4839
      6 C4         -1.3806    7.5435    0.0513 C.3       1 <0>        -0.0901
      7 H1         -2.3286    7.8615    0.0616 H         1 <0>         0.1360
      8 C5         -1.3562    6.0367    0.0450 C.2       1 <0>        -0.0939
      9 C6         -2.5126    5.3562    0.0532 C.2       1 <0>        -0.0527
     10 C7         -2.5227    3.8793    0.0464 C.2       1 <0>         0.4322
     11 O3         -3.5773    3.2765    0.0533 O.2       1 <0>        -0.3925
     12 C8         -1.2435    3.1376    0.0308 C.ar      1 <0>        -0.1241
     13 C9         -1.2250    1.7479    0.0174 C.ar      1 <0>        -0.0577
     14 C10        -0.0126    1.0758    0.0080 C.ar      1 <0>        -0.0966
     15 C11         1.1771    1.7783    0.0004 C.ar      1 <0>        -0.0906
     16 C12         1.1746    3.1647    0.0074 C.ar      1 <0>        -0.0618
     17 C13        -0.0325    3.8525    0.0226 C.ar      1 <0>        -0.1157
     18 C14        -0.0632    5.3314    0.0298 C.2       1 <0>         0.4261
     19 O4          0.9752    5.9625    0.0233 O.2       1 <0>        -0.3812
     20 Cl1        -4.0165    6.2231    0.0716 Cl        1 <0>        -0.0073
     21 C15        -0.6668    8.0524    1.2770 C.2       1 <0>         0.3635
     22 O5          0.4995    8.3588    1.2130 O.2       1 <0>        -0.4047
     23 C16        -1.4085    8.1788    2.5828 C.3       1 <0>        -0.1889
     24 H2          0.6105   11.6621   -3.5746 H         1 <0>         0.0836
     25 H3         -0.9226   11.7142   -2.6717 H         1 <0>         0.0679
     26 H4          0.6271   11.7357   -1.7963 H         1 <0>         0.0689
     27 H5          1.1111    9.4392   -2.5966 H         1 <0>         0.0748
     28 H6         -0.4386    9.4177   -3.4720 H         1 <0>         0.0731
     29 H7         -2.1519    1.1935    0.0185 H         1 <0>         0.1481
     30 H8          0.0021   -0.0041    0.0020 H         1 <0>         0.1433
     31 H9          2.1155    1.2437   -0.0115 H         1 <0>         0.1428
     32 H10         2.1079    3.7082    0.0014 H         1 <0>         0.1471
     33 H11        -2.3561    7.8848    2.4577 H         1 <0>         0.0763
     34 H12        -0.9297    7.5516    3.3348 H         1 <0>         0.1023
     35 H13        -1.3908    9.2179    2.9115 H         1 <0>         0.1071
@<TRIPOS>BOND
     1    1    2 1
     2    1   24 1
     3    1   25 1
     4    1   26 1
     5    2    3 1
     6    2   27 1
     7    2   28 1
     8    3    4 1
     9    4    5 2
    10    4    6 1
    11    6    7 1
    12    6    8 1
    13    6   21 1
    14    8   18 1
    15    8    9 2
    16    9   10 1
    17    9   20 1
    18   10   11 2
    19   10   12 1
    20   12   17 ar
    21   12   13 ar
    22   13   14 ar
    23   13   29 1
    24   14   15 ar
    25   14   30 1
    26   15   16 ar
    27   15   31 1
    28   16   17 ar
    29   16   32 1
    30   17   18 1
    31   18   19 2
    32   21   22 2
    33   21   23 1
    34   23   33 1
    35   23   34 1
    36   23   35 1
@<TRIPOS>MOLECULE
ZINC03199703
   35    36     0     0     0
SMALL
USER_CHARGES
ethyl 2-(3-chloro-1,4-dioxo-2-naphthyl)-3-oxo-butanoate
@<TRIPOS>ATOM
      1 C1         -1.4333   -0.5336    0.0129 C.3       1 <0>        -0.1536
      2 C2          0.0021   -0.0041    0.0020 C.3       1 <0>         0.0621
      3 O1         -0.0176    1.4478    0.0100 O.3       1 <0>        -0.3497
      4 C3          1.1699    2.0734    0.0020 C.2       1 <0>         0.4844
      5 O2          2.1921    1.4292   -0.0112 O.2       1 <0>        -0.4769
      6 C4          1.2284    3.5792    0.0096 C.3       1 <0>        -0.0914
      7 H1          0.7625    3.9350   -0.8006 H         1 <0>         0.1380
      8 C5          2.6676    4.0261   -0.0018 C.2       1 <0>        -0.0890
      9 C6          3.1180    4.7806   -1.0158 C.2       1 <0>        -0.0615
     10 C7          4.5214    5.2395   -1.0535 C.2       1 <0>         0.4331
     11 O3          4.9139    5.9266   -1.9750 O.2       1 <0>        -0.3959
     12 C8          5.4479    4.8546    0.0329 C.ar      1 <0>        -0.1256
     13 C9          6.7746    5.2683    0.0187 C.ar      1 <0>        -0.0583
     14 C10         7.6234    4.8938    1.0488 C.ar      1 <0>        -0.0987
     15 C11         7.1592    4.1122    2.0892 C.ar      1 <0>        -0.0909
     16 C12         5.8383    3.6918    2.1172 C.ar      1 <0>        -0.0630
     17 C13         4.9754    4.0591    1.0919 C.ar      1 <0>        -0.1126
     18 C14         3.5617    3.6236    1.0974 C.2       1 <0>         0.4356
     19 O4          3.1394    2.9357    2.0056 O.2       1 <0>        -0.3809
     20 Cl1         2.0356    5.2283   -2.2971 Cl        1 <0>        -0.0121
     21 C15         0.5498    4.1021    1.2494 C.2       1 <0>         0.3656
     22 O5          1.2027    4.3593    2.2322 O.2       1 <0>        -0.4123
     23 C16        -0.9436    4.3040    1.2627 C.3       1 <0>        -0.1838
     24 H2         -1.9435   -0.1821    0.9097 H         1 <0>         0.0690
     25 H3         -1.9605   -0.1726   -0.8702 H         1 <0>         0.0693
     26 H4         -1.4185   -1.6235    0.0069 H         1 <0>         0.0840
     27 H5          0.5123   -0.3556   -0.8948 H         1 <0>         0.0749
     28 H6          0.5293   -0.3651    0.8851 H         1 <0>         0.0750
     29 H7          7.1430    5.8797   -0.7918 H         1 <0>         0.1473
     30 H8          8.6543    5.2155    1.0382 H         1 <0>         0.1425
     31 H9          7.8297    3.8270    2.8864 H         1 <0>         0.1421
     32 H10         5.4812    3.0813    2.9333 H         1 <0>         0.1465
     33 H11        -1.3230    4.0439    0.3748 H         1 <0>         0.0796
     34 H12        -1.3869    3.6851    2.0427 H         1 <0>         0.1040
     35 H13        -1.1667    5.3525    1.4601 H         1 <0>         0.1031
@<TRIPOS>BOND
     1    1    2 1
     2    1   24 1
     3    1   25 1
     4    1   26 1
     5    2    3 1
     6    2   27 1
     7    2   28 1
     8    3    4 1
     9    4    5 2
    10    4    6 1
    11    6    7 1
    12    6    8 1
    13    6   21 1
    14    8   18 1
    15    8    9 2
    16    9   10 1
    17    9   20 1
    18   10   11 2
    19   10   12 1
    20   12   17 ar
    21   12   13 ar
    22   13   14 ar
    23   13   29 1
    24   14   15 ar
    25   14   30 1
    26   15   16 ar
    27   15   31 1
    28   16   17 ar
    29   16   32 1
    30   17   18 1
    31   18   19 2
    32   21   22 2
    33   21   23 1
    34   23   33 1
    35   23   34 1
    36   23   35 1
@<TRIPOS>MOLECULE
ZINC06070261
   31    32     0     0     0
SMALL
USER_CHARGES
6-acetyl-5-hydroxy-2-methoxy-7-methyl-naphthalene-1,4-dione
@<TRIPOS>ATOM
      1 C1         -2.2981    7.3569    5.5540 C.3       1 <0>        -0.1316
      2 C2         -1.6979    6.7699    4.3025 C.ar      1 <0>        -0.0168
      3 C3         -1.6637    5.3957    4.1345 C.ar      1 <0>        -0.0707
      4 C4         -1.1117    4.8474    2.9836 C.ar      1 <0>        -0.0864
      5 C5         -0.5850    5.6853    1.9827 C.ar      1 <0>        -0.1582
      6 C6         -0.6174    7.0693    2.1474 C.ar      1 <0>         0.1992
      7 C7         -1.1798    7.6141    3.3196 C.ar      1 <0>        -0.1624
      8 C8         -1.2199    9.0718    3.5069 C.2       1 <0>         0.4062
      9 O1         -0.2670    9.6479    3.9871 O.2       1 <0>        -0.4274
     10 C9         -2.4453    9.8501    3.1021 C.3       1 <0>        -0.1896
     11 O2         -0.1132    7.8824    1.1906 O.3       1 <0>        -0.4710
     12 C10        -0.0035    5.0769    0.7686 C.2       1 <0>         0.4370
     13 O3          0.2293    5.7620   -0.2093 O.2       1 <0>        -0.4209
     14 C11         0.2955    3.6392    0.7546 C.2       1 <0>        -0.2866
     15 C12        -0.2101    2.8256    1.7070 C.2       1 <0>         0.1033
     16 C13        -1.0646    3.3795    2.7850 C.2       1 <0>         0.4397
     17 O4         -1.7167    2.6409    3.4946 O.2       1 <0>        -0.3886
     18 O5          0.0687    1.5012    1.6805 O.3       1 <0>        -0.2860
     19 C14         0.8978    1.0340    0.6145 C.3       1 <0>         0.0164
     20 H1         -3.3397    7.6195    5.3687 H         1 <0>         0.0898
     21 H2         -2.2458    6.6250    6.3600 H         1 <0>         0.0862
     22 H3         -1.7431    8.2509    5.8384 H         1 <0>         0.0762
     23 H4         -2.0669    4.7490    4.8998 H         1 <0>         0.1551
     24 H5         -3.0403    9.9719    3.8965 H         1 <0>         0.0929
     25 H6         -2.1460   10.8258    2.7194 H         1 <0>         0.0969
     26 H7         -2.9823    9.3045    2.3262 H         1 <0>         0.0862
     27 H8         -0.7574    8.1470    0.5197 H         1 <0>         0.4048
     28 H9          0.9208    3.2289   -0.0246 H         1 <0>         0.1589
     29 H10         1.0424   -0.0420    0.7115 H         1 <0>         0.1132
     30 H11         1.8643    1.5359    0.6593 H         1 <0>         0.0672
     31 H12         0.4192    1.2517   -0.3402 H         1 <0>         0.0672
@<TRIPOS>BOND
     1    1    2 1
     2    1   20 1
     3    1   21 1
     4    1   22 1
     5    2    7 ar
     6    2    3 ar
     7    3    4 ar
     8    3   23 1
     9    4   16 1
    10    4    5 ar
    11    5    6 ar
    12    5   12 1
    13    6    7 ar
    14    6   11 1
    15    7    8 1
    16    8    9 2
    17    8   10 1
    18   10   24 1
    19   10   25 1
    20   10   26 1
    21   11   27 1
    22   12   13 2
    23   12   14 1
    24   14   15 2
    25   14   28 1
    26   15   16 1
    27   15   18 1
    28   16   17 2
    29   18   19 1
    30   19   29 1
    31   19   30 1
    32   19   31 1
@<TRIPOS>MOLECULE
ZINC27086305
   57    61     0     0     0
SMALL
USER_CHARGES

@<TRIPOS>ATOM
      1 C1         -0.0526   -2.0416   -4.0735 C.ar      1 <0>        -0.1068
      2 C2          0.9542   -1.2898   -4.6762 C.ar      1 <0>        -0.1009
      3 C3          1.9992   -0.8080   -3.9495 C.ar      1 <0>        -0.1098
      4 C4          2.0669   -1.0702   -2.5703 C.ar      1 <0>        -0.0353
      5 C5          1.0426   -1.8342   -1.9582 C.ar      1 <0>        -0.0556
      6 C6         -0.0197   -2.3151   -2.7403 C.ar      1 <0>        -0.0922
      7 C7          1.1101   -2.0975   -0.5747 C.ar      1 <0>         0.1096
      8 C8          2.1689   -1.6082    0.1567 C.ar      1 <0>        -0.1135
      9 C9          3.1705   -0.8585   -0.4536 C.ar      1 <0>        -0.0916
     10 C10         3.1313   -0.5880   -1.7885 C.ar      1 <0>        -0.0255
     11 Cl1         4.3940    0.3500   -2.5228 Cl        1 <0>        -0.0589
     12 O1          0.1385   -2.8274    0.0315 O.3       1 <0>        -0.2440
     13 C11         0.1957   -4.1815   -0.0771 C.ar      1 <0>         0.0967
     14 C12         1.2815   -4.7821   -0.6977 C.ar      1 <0>        -0.1591
     15 C13         1.3402   -6.1571   -0.8088 C.ar      1 <0>        -0.1128
     16 C14         0.3121   -6.9397   -0.2993 C.ar      1 <0>         0.1569
     17 C15        -0.7746   -6.3389    0.3222 C.ar      1 <0>        -0.0816
     18 C16        -0.8298   -4.9630    0.4380 C.ar      1 <0>        -0.0364
     19 Cl2        -2.1846   -4.2114    1.2212 Cl        1 <0>        -0.0540
     20 N1          0.3711   -8.3340   -0.4128 N.am      1 <0>        -0.6871
     21 C17        -0.7585   -9.0426   -0.6089 C.2       1 <0>         0.5657
     22 O2         -1.8370   -8.4805   -0.6066 O.2       1 <0>        -0.4714
     23 C18        -0.6867  -10.4988   -0.8263 C.ar      1 <0>        -0.2115
     24 C19         0.5499  -11.1498   -0.8240 C.ar      1 <0>        -0.0248
     25 C20         0.6101  -12.5118   -1.0279 C.ar      1 <0>        -0.1430
     26 C21        -0.5515  -13.2409   -1.2356 C.ar      1 <0>        -0.0257
     27 C22        -1.7793  -12.6118   -1.2409 C.ar      1 <0>        -0.2522
     28 C23        -1.8602  -11.2407   -1.0310 C.ar      1 <0>         0.3365
     29 N2         -3.0964  -10.6064   -1.0298 N.2       1 <0>        -1.0236
     30 S1         -4.4785  -11.4858   -1.2718 S.o2      1 <0>         2.5955
     31 O3         -4.4218  -11.9729   -2.6055 O.2       1 <0>        -1.0223
     32 O4         -4.6123  -12.3487   -0.1507 O.2       1 <0>        -1.0220
     33 C24        -5.8315  -10.3590   -1.2043 C.ar      1 <0>        -0.6095
     34 C25        -6.4500  -10.0935    0.0032 C.ar      1 <0>        -0.0083
     35 C26        -7.5113   -9.2098    0.0568 C.ar      1 <0>        -0.1359
     36 C27        -7.9546   -8.5907   -1.0984 C.ar      1 <0>         0.0048
     37 C28        -7.3352   -8.8568   -2.3066 C.ar      1 <0>        -0.1362
     38 C29        -6.2704   -9.7365   -2.3579 C.ar      1 <0>        -0.0085
     39 Cl3        -9.2879   -7.4810   -1.0320 Cl        1 <0>        -0.0735
     40 Cl4         2.1473  -13.3185   -1.0254 Cl        1 <0>        -0.1051
     41 H1         -0.8732   -2.4088   -4.6719 H         1 <0>         0.1302
     42 H2          0.9046   -1.0868   -5.7358 H         1 <0>         0.1289
     43 H3          2.7726   -0.2274   -4.4302 H         1 <0>         0.1345
     44 H4         -0.8070   -2.8987   -2.2864 H         1 <0>         0.1343
     45 H5          2.2229   -1.8080    1.2167 H         1 <0>         0.1444
     46 H6          3.9915   -0.4850    0.1404 H         1 <0>         0.1423
     47 H7          2.0810   -4.1739   -1.0943 H         1 <0>         0.1343
     48 H8          2.1855   -6.6242   -1.2922 H         1 <0>         0.1346
     49 H9         -1.5743   -6.9469    0.7186 H         1 <0>         0.1639
     50 H10         1.2249   -8.7900   -0.3502 H         1 <0>         0.4056
     51 H11         1.4573  -10.5866   -0.6631 H         1 <0>         0.1185
     52 H12        -0.4943  -14.3076   -1.3945 H         1 <0>         0.1203
     53 H13        -2.6790  -13.1865   -1.4041 H         1 <0>         0.1141
     54 H14        -6.1040  -10.5771    0.9048 H         1 <0>         0.1461
     55 H15        -7.9946   -9.0027    1.0001 H         1 <0>         0.1378
     56 H16        -7.6810   -8.3742   -3.2087 H         1 <0>         0.1376
     57 H17        -5.7837   -9.9407   -3.3002 H         1 <0>         0.1458
@<TRIPOS>BOND
     1    1    6 ar
     2    1    2 ar
     3    1   41 1
     4    2    3 ar
     5    2   42 1
     6    3    4 ar
     7    3   43 1
     8    4   10 ar
     9    4    5 ar
    10    5    6 ar
    11    5    7 ar
    12    6   44 1
    13    7    8 ar
    14    7   12 1
    15    8    9 ar
    16    8   45 1
    17    9   10 ar
    18    9   46 1
    19   10   11 1
    20   12   13 1
    21   13   18 ar
    22   13   14 ar
    23   14   15 ar
    24   14   47 1
    25   15   16 ar
    26   15   48 1
    27   16   17 ar
    28   16   20 1
    29   17   18 ar
    30   17   49 1
    31   18   19 1
    32   20   21 am
    33   20   50 1
    34   21   22 2
    35   21   23 1
    36   23   28 ar
    37   23   24 ar
    38   24   25 ar
    39   24   51 1
    40   25   26 ar
    41   25   40 1
    42   26   27 ar
    43   26   52 1
    44   27   28 ar
    45   27   53 1
    46   28   29 1
    47   29   30 1
    48   30   31 2
    49   30   32 2
    50   30   33 1
    51   33   38 ar
    52   33   34 ar
    53   34   35 ar
    54   34   54 1
    55   35   36 ar
    56   35   55 1
    57   36   37 ar
    58   36   39 1
    59   37   38 ar
    60   37   56 1
    61   38   57 1
@<TRIPOS>MOLECULE
ZINC00899749
   22    23     0     0     0
SMALL
USER_CHARGES
5-hydroxy-7-methyl-naphthalene-1,4-dione
@<TRIPOS>ATOM
      1 C1         -2.5052    0.9615    0.0189 C.3       1 <0>        -0.1231
      2 C2         -1.2173    1.7441    0.0173 C.ar      1 <0>        -0.0452
      3 C3         -1.2558    3.1330    0.0300 C.ar      1 <0>        -0.0773
      4 C4         -0.0724    3.8568    0.0234 C.ar      1 <0>        -0.1065
      5 C5          1.1636    3.1806    0.0081 C.ar      1 <0>        -0.1689
      6 C6          1.1895    1.7860    0.0003 C.ar      1 <0>         0.1710
      7 C7         -0.0126    1.0758    0.0080 C.ar      1 <0>        -0.1309
      8 O1          2.3727    1.1253   -0.0142 O.3       1 <0>        -0.4796
      9 C8          2.4099    3.9697    0.0013 C.2       1 <0>         0.4142
     10 O2          3.4724    3.4384   -0.2559 O.2       1 <0>        -0.4127
     11 C9          2.3520    5.4131    0.3110 C.2       1 <0>        -0.1367
     12 C10         1.1759    6.0588    0.3259 C.2       1 <0>        -0.1452
     13 C11        -0.0779    5.3360    0.0325 C.2       1 <0>         0.4156
     14 O3         -1.1016    5.9487   -0.1981 O.2       1 <0>        -0.4187
     15 H1         -2.8109    0.7670    1.0469 H         1 <0>         0.0824
     16 H2         -3.2802    1.5362   -0.4882 H         1 <0>         0.0766
     17 H3         -2.3559    0.0151   -0.5010 H         1 <0>         0.0757
     18 H4         -2.2051    3.6479    0.0413 H         1 <0>         0.1459
     19 H5          0.0021   -0.0041    0.0020 H         1 <0>         0.1445
     20 H6          2.7078    0.9381   -0.9018 H         1 <0>         0.4027
     21 H7          3.2625    5.9521    0.5274 H         1 <0>         0.1578
     22 H8          1.1461    7.1141    0.5535 H         1 <0>         0.1582
@<TRIPOS>BOND
     1    1    2 1
     2    1   15 1
     3    1   16 1
     4    1   17 1
     5    2    7 ar
     6    2    3 ar
     7    3    4 ar
     8    3   18 1
     9    4   13 1
    10    4    5 ar
    11    5    6 ar
    12    5    9 1
    13    6    7 ar
    14    6    8 1
    15    7   19 1
    16    8   20 1
    17    9   10 2
    18    9   11 1
    19   11   12 2
    20   11   21 1
    21   12   13 1
    22   12   22 1
    23   13   14 2
@<TRIPOS>MOLECULE
ZINC01529614
   24    26     0     0     0
SMALL
USER_CHARGES

@<TRIPOS>ATOM
      1 C1         -0.0167    1.3789    0.0096 C.ar      1 <0>        -0.0820
      2 C2          1.1642    2.1013    0.0022 C.ar      1 <0>        -0.1209
      3 C3          2.3818    1.4478   -0.0129 C.ar      1 <0>        -0.0537
      4 C4          2.4168    0.0552   -0.0201 C.ar      1 <0>        -0.1574
      5 C5          1.2168   -0.6822   -0.0134 C.ar      1 <0>        -0.0083
      6 C6          0.0021   -0.0041    0.0020 C.ar      1 <0>        -0.1113
      7 C7          1.2457   -2.1611   -0.0235 C.ar      1 <0>        -0.0083
      8 C8          0.0855   -2.8840   -0.2823 C.ar      1 <0>        -0.1113
      9 C9          0.1204   -4.2666   -0.2891 C.ar      1 <0>        -0.0820
     10 C10         1.3015   -4.9446   -0.0402 C.ar      1 <0>        -0.1209
     11 C11         2.4655   -4.2462    0.2188 C.ar      1 <0>        -0.0537
     12 C12         2.4463   -2.8533    0.2277 C.ar      1 <0>        -0.1574
     13 C13         3.6781   -2.0807    0.4986 C.2       1 <0>         0.3721
     14 O1          4.6118   -2.5543    1.1126 O.2       1 <0>        -0.3900
     15 C14         3.7058   -0.6700   -0.0339 C.2       1 <0>         0.3721
     16 O2          4.7256   -0.1600   -0.4497 O.2       1 <0>        -0.3900
     17 H1         -0.9622    1.9004    0.0260 H         1 <0>         0.1360
     18 H2          1.1338    3.1809    0.0079 H         1 <0>         0.1372
     19 H3          3.3016    2.0139   -0.0193 H         1 <0>         0.1400
     20 H4         -0.9256   -0.5571    0.0077 H         1 <0>         0.1384
     21 H5         -0.8418   -2.3659   -0.4773 H         1 <0>         0.1383
     22 H6         -0.7831   -4.8231   -0.4904 H         1 <0>         0.1360
     23 H7          1.3132   -6.0245   -0.0482 H         1 <0>         0.1372
     24 H8          3.3855   -4.7776    0.4131 H         1 <0>         0.1400
@<TRIPOS>BOND
     1    1    6 ar
     2    1    2 ar
     3    1   17 1
     4    2    3 ar
     5    2   18 1
     6    3    4 ar
     7    3   19 1
     8    4   15 1
     9    4    5 ar
    10    5    6 ar
    11    5    7 1
    12    6   20 1
    13    7   12 ar
    14    7    8 ar
    15    8    9 ar
    16    8   21 1
    17    9   10 ar
    18    9   22 1
    19   10   11 ar
    20   10   23 1
    21   11   12 ar
    22   11   24 1
    23   12   13 1
    24   13   14 2
    25   13   15 1
    26   15   16 2
@<TRIPOS>MOLECULE
ZINC01700208
   18    19     0     0     0
SMALL
USER_CHARGES

@<TRIPOS>ATOM
      1 C1         -0.0167    1.3807    0.0096 C.ar      1 <0>        -0.0891
      2 C2          1.1632    2.1012    0.0022 C.ar      1 <0>        -0.1127
      3 C3          2.3846    1.4461   -0.0134 C.ar      1 <0>        -0.0576
      4 C4          2.4214    0.0565   -0.0213 C.ar      1 <0>        -0.1498
      5 C5          1.2207   -0.6819   -0.0133 C.ar      1 <0>        -0.0463
      6 C6          0.0021   -0.0041    0.0020 C.ar      1 <0>        -0.0967
      7 C7          1.2577   -2.1490   -0.0225 C.2       1 <0>        -0.0099
      8 C8          2.4187   -2.8299   -0.0382 C.2       1 <0>        -0.2225
      9 C9          3.6692   -2.1674   -0.0471 C.2       1 <0>         0.3512
     10 O1          4.7021   -2.8074   -0.0612 O.2       1 <0>        -0.3934
     11 C10         3.7078   -0.6701   -0.0384 C.2       1 <0>         0.3576
     12 O2          4.7633   -0.0721   -0.0461 O.2       1 <0>        -0.3863
     13 H1         -0.9620    1.9027    0.0260 H         1 <0>         0.1366
     14 H2          1.1330    3.1807    0.0083 H         1 <0>         0.1374
     15 H3          3.3039    2.0130   -0.0199 H         1 <0>         0.1412
     16 H4         -0.9251   -0.5578    0.0083 H         1 <0>         0.1404
     17 H5          0.3275   -2.6977   -0.0162 H         1 <0>         0.1472
     18 H6          2.3954   -3.9096   -0.0437 H         1 <0>         0.1527
@<TRIPOS>BOND
     1    1    6 ar
     2    1    2 ar
     3    1   13 1
     4    2    3 ar
     5    2   14 1
     6    3    4 ar
     7    3   15 1
     8    4   11 1
     9    4    5 ar
    10    5    6 ar
    11    5    7 1
    12    6   16 1
    13    7    8 2
    14    7   17 1
    15    8    9 1
    16    8   18 1
    17    9   10 2
    18    9   11 1
    19   11   12 2
@<TRIPOS>MOLECULE
ZINC00537822
   50    52     0     0     0
SMALL
USER_CHARGES

@<TRIPOS>ATOM
      1 C1         -0.0169    1.3952    0.0097 C.ar      1 <0>        -0.0260
      2 C2          1.1683    2.0970    0.0022 C.ar      1 <0>        -0.1650
      3 C3          2.3789    1.4198   -0.0130 C.ar      1 <0>         0.1439
      4 C4          2.4047    0.0329   -0.0212 C.ar      1 <0>        -0.1670
      5 C5          1.2267   -0.6810   -0.0142 C.ar      1 <0>        -0.0432
      6 C6          0.0021   -0.0041    0.0020 C.ar      1 <0>        -0.1967
      7 C7         -1.2591   -0.7596    0.0105 C.2       1 <0>         0.4038
      8 O1         -2.3189   -0.1702    0.0242 O.2       1 <0>        -0.4483
      9 C8         -1.2348   -2.2664    0.0022 C.3       1 <0>        -0.1653
     10 C9         -2.6689   -2.7996    0.0135 C.3       1 <0>        -0.1429
     11 C10        -2.6443   -4.3293    0.0051 C.3       1 <0>        -0.0092
     12 N1         -4.0211   -4.8413    0.0160 N.4       1 <0>        -0.3830
     13 C11        -4.6726   -4.4620    1.2755 C.3       1 <0>        -0.0093
     14 C12        -6.1318   -4.9225    1.2582 C.3       1 <0>        -0.1330
     15 C13        -6.1791   -6.4445    1.0954 C.3       1 <0>         0.1746
     16 C14        -5.4322   -6.8346   -0.1834 C.3       1 <0>        -0.1706
     17 C15        -3.9990   -6.3033   -0.1127 C.3       1 <0>        -0.0017
     18 C16        -7.6135   -6.8966    0.9991 C.ar      1 <0>        -0.1262
     19 C17        -8.5661   -6.0599    0.4482 C.ar      1 <0>        -0.1006
     20 C18        -9.8818   -6.4740    0.3596 C.ar      1 <0>        -0.1039
     21 C19       -10.2453   -7.7262    0.8224 C.ar      1 <0>        -0.0247
     22 C20        -9.2914   -8.5631    1.3735 C.ar      1 <0>        -0.1016
     23 C21        -7.9750   -8.1501    1.4564 C.ar      1 <0>        -0.0934
     24 Cl1       -11.8977   -8.2468    0.7119 Cl        1 <0>        -0.0500
     25 O2         -5.5554   -7.0652    2.2213 O.3       1 <0>        -0.5474
     26 F1          3.5378    2.1141   -0.0204 F         1 <0>        -0.1258
     27 H1         -0.9587    1.9236    0.0260 H         1 <0>         0.1459
     28 H2          1.1551    3.1769    0.0077 H         1 <0>         0.1477
     29 H3          3.3506   -0.4883   -0.0334 H         1 <0>         0.1469
     30 H4          1.2482   -1.7608   -0.0213 H         1 <0>         0.1412
     31 H5         -0.7241   -2.6166   -0.8948 H         1 <0>         0.1127
     32 H6         -0.7064   -2.6261    0.8850 H         1 <0>         0.1127
     33 H7         -3.1796   -2.4493    0.9105 H         1 <0>         0.0952
     34 H8         -3.1973   -2.4398   -0.8693 H         1 <0>         0.0947
     35 H9         -2.1335   -4.6796   -0.8919 H         1 <0>         0.1333
     36 H10        -2.1158   -4.6891    0.8880 H         1 <0>         0.1327
     37 H11        -4.1530   -4.9339    2.1093 H         1 <0>         0.1388
     38 H12        -4.6353   -3.3788    1.3915 H         1 <0>         0.1356
     39 H13        -6.6132   -4.6415    2.1949 H         1 <0>         0.1238
     40 H14        -6.6524   -4.4509    0.4248 H         1 <0>         0.1045
     41 H15        -5.4137   -7.9204   -0.2771 H         1 <0>         0.1175
     42 H16        -5.9384   -6.4027   -1.0467 H         1 <0>         0.1009
     43 H17        -3.4644   -6.5795   -1.0215 H         1 <0>         0.1329
     44 H18        -3.4937   -6.7360    0.7507 H         1 <0>         0.1354
     45 H19        -8.2824   -5.0823    0.0874 H         1 <0>         0.1334
     46 H20       -10.6260   -5.8201   -0.0704 H         1 <0>         0.1408
     47 H21        -9.5746   -9.5405    1.7352 H         1 <0>         0.1414
     48 H22        -7.2294   -8.8051    1.8823 H         1 <0>         0.1323
     49 H23        -5.5495   -8.0314    2.1846 H         1 <0>         0.3907
     50 H24        -4.5327   -4.4442   -0.7578 H         1 <0>         0.4215
@<TRIPOS>BOND
     1    1    6 ar
     2    1    2 ar
     3    1   27 1
     4    2    3 ar
     5    2   28 1
     6    3    4 ar
     7    3   26 1
     8    4    5 ar
     9    4   29 1
    10    5    6 ar
    11    5   30 1
    12    6    7 1
    13    7    8 2
    14    7    9 1
    15    9   10 1
    16    9   31 1
    17    9   32 1
    18   10   11 1
    19   10   33 1
    20   10   34 1
    21   11   12 1
    22   11   35 1
    23   11   36 1
    24   12   17 1
    25   12   13 1
    26   12   50 1
    27   13   14 1
    28   13   37 1
    29   13   38 1
    30   14   15 1
    31   14   39 1
    32   14   40 1
    33   15   16 1
    34   15   18 1
    35   15   25 1
    36   16   17 1
    37   16   41 1
    38   16   42 1
    39   17   43 1
    40   17   44 1
    41   18   23 ar
    42   18   19 ar
    43   19   20 ar
    44   19   45 1
    45   20   21 ar
    46   20   46 1
    47   21   22 ar
    48   21   24 1
    49   22   23 ar
    50   22   47 1
    51   23   48 1
    52   25   49 1
@<TRIPOS>MOLECULE
ZINC00356600
   37    40     0     0     0
SMALL
USER_CHARGES

@<TRIPOS>ATOM
      1 C1         -0.0173    1.4248    0.0099 C.3       1 <0>         0.0262
      2 O1          0.0021   -0.0041    0.0020 O.3       1 <0>        -0.3168
      3 C2          0.6058   -0.6071   -1.0557 C.ar      1 <0>         0.1331
      4 C3          1.1730    0.1607   -2.0624 C.ar      1 <0>        -0.2087
      5 C4          1.7865   -0.4547   -3.1363 C.ar      1 <0>        -0.0641
      6 C5          1.8352   -1.8346   -3.2086 C.ar      1 <0>        -0.0984
      7 C6          1.2702   -2.6021   -2.2068 C.ar      1 <0>        -0.0511
      8 C7          0.6609   -1.9915   -1.1277 C.ar      1 <0>        -0.1504
      9 C8          2.5046   -2.5033   -4.3815 C.3       1 <0>        -0.0303
     10 H1          3.2738   -1.9152   -4.8821 H         1 <0>         0.1331
     11 C9          2.7075   -4.0198   -4.3104 C.3       1 <0>        -0.0999
     12 C10         1.6563   -3.4291   -5.2414 C.3       1 <0>        -0.0943
     13 C11         1.8020   -3.4791   -6.7431 C.2       1 <0>         0.5021
     14 O2          2.8155   -3.3755   -7.3926 O.2       1 <0>        -0.4085
     15 O3          0.5455   -3.6659   -7.1960 O.3       1 <0>        -0.3026
     16 C12        -0.3322   -3.7354   -6.1790 C.2       1 <0>         0.3507
     17 N1          0.2208   -3.6087   -5.0117 N.2       1 <0>        -0.4520
     18 C13        -1.7854   -3.9363   -6.3722 C.ar      1 <0>        -0.0509
     19 C14        -2.6375   -3.9921   -5.2690 C.ar      1 <0>        -0.0584
     20 C15        -3.9917   -4.1791   -5.4558 C.ar      1 <0>        -0.1252
     21 C16        -4.5049   -4.3116   -6.7337 C.ar      1 <0>        -0.0884
     22 C17        -3.6651   -4.2571   -7.8318 C.ar      1 <0>        -0.1246
     23 C18        -2.3098   -4.0648   -7.6586 C.ar      1 <0>        -0.0756
     24 H2          1.0053    1.8021    0.0021 H         1 <0>         0.0564
     25 H3         -0.5445    1.7859   -0.8732 H         1 <0>         0.0561
     26 H4         -0.5275    1.7763    0.9067 H         1 <0>         0.1016
     27 H5          1.1347    1.2385   -2.0068 H         1 <0>         0.1297
     28 H6          2.2283    0.1425   -3.9203 H         1 <0>         0.1247
     29 H7          1.3092   -3.6798   -2.2657 H         1 <0>         0.1310
     30 H8          0.2237   -2.5913   -0.3432 H         1 <0>         0.1328
     31 H9          3.6097   -4.4291   -4.7649 H         1 <0>         0.1228
     32 H10         2.3568   -4.5335   -3.4153 H         1 <0>         0.1252
     33 H11        -2.2380   -3.8895   -4.2709 H         1 <0>         0.1406
     34 H12        -4.6524   -4.2226   -4.6026 H         1 <0>         0.1345
     35 H13        -5.5655   -4.4585   -6.8747 H         1 <0>         0.1309
     36 H14        -4.0717   -4.3616   -8.8269 H         1 <0>         0.1335
     37 H15        -1.6558   -4.0183   -8.5167 H         1 <0>         0.1349
@<TRIPOS>BOND
     1    1    2 1
     2    1   24 1
     3    1   25 1
     4    1   26 1
     5    2    3 1
     6    3    8 ar
     7    3    4 ar
     8    4    5 ar
     9    4   27 1
    10    5    6 ar
    11    5   28 1
    12    6    7 ar
    13    6    9 1
    14    7    8 ar
    15    7   29 1
    16    8   30 1
    17    9   10 1
    18    9   12 1
    19    9   11 1
    20   11   12 1
    21   11   31 1
    22   11   32 1
    23   12   17 1
    24   12   13 1
    25   13   14 2
    26   13   15 1
    27   15   16 1
    28   16   17 2
    29   16   18 1
    30   18   23 ar
    31   18   19 ar
    32   19   20 ar
    33   19   33 1
    34   20   21 ar
    35   20   34 1
    36   21   22 ar
    37   21   35 1
    38   22   23 ar
    39   22   36 1
    40   23   37 1
