@<TRIPOS>MOLECULE
ZINC07992852
   48    51     0     0     0
SMALL
USER_CHARGES

@<TRIPOS>ATOM
      1 C1         -0.0187    1.5258    0.0104 C.3       1 <0>        -0.1723
      2 C2          0.0021   -0.0041    0.0020 C.3       1 <0>         0.1052
      3 C3          0.8355   -0.5277   -1.1890 C.3       1 <0>         0.0527
      4 H1          1.2327    0.3034   -1.7719 H         1 <0>         0.0877
      5 C4          1.9830   -1.3202   -0.5246 C.3       1 <0>         0.0503
      6 H2          1.7288   -2.3785   -0.4657 H         1 <0>         0.1004
      7 O1          2.1017   -0.7570    0.8000 O.3       1 <0>        -0.3457
      8 C5          0.7447   -0.5422    1.2451 C.3       1 <0>         0.3187
      9 H3          0.3006   -1.4812    1.5755 H         1 <0>         0.1234
     10 N1          0.7130    0.4464    2.3258 N.pl3     1 <0>        -0.4638
     11 C6          1.6771    1.3697    2.6032 C.2       1 <0>         0.2687
     12 N2          1.3234    2.0871    3.6296 N.2       1 <0>        -0.4558
     13 C7          0.1133    1.6712    4.0751 C.ar      1 <0>        -0.1045
     14 C8         -0.2951    0.6169    3.2407 C.ar      1 <0>         0.3265
     15 N3         -1.4663    0.0307    3.4663 N.ar      1 <0>        -0.5350
     16 C9         -2.2381    0.4316    4.4562 C.ar      1 <0>         0.4311
     17 N4         -1.8975    1.4200    5.2648 N.ar      1 <0>        -0.5725
     18 C10        -0.7418    2.0601    5.1200 C.ar      1 <0>         0.5223
     19 N5         -0.3945    3.0949    5.9708 N.pl3     1 <0>        -0.6802
     20 C11        -1.2987    3.4867    7.0548 C.3       1 <0>         0.1433
     21 C12        -2.3106    4.5342    6.5464 C.3       1 <0>        -0.1339
     22 C13        -2.4905    5.5007    7.7433 C.3       1 <0>        -0.1246
     23 C14        -1.0593    5.5899    8.3288 C.3       1 <0>        -0.1247
     24 C15        -0.5031    4.1579    8.1881 C.3       1 <0>        -0.1333
     25 Cl1        -3.7586   -0.3676    4.7073 Cl        1 <0>         0.0344
     26 C16         3.2845   -1.1288   -1.3059 C.3       1 <0>         0.0825
     27 O2          4.3032   -1.9594   -0.7452 O.3       1 <0>        -0.5632
     28 O3          0.0446   -1.3843   -2.0154 O.3       1 <0>        -0.5387
     29 O4         -1.3290   -0.5213   -0.0489 O.3       1 <0>        -0.5199
     30 H4          1.0039    1.9031    0.0027 H         1 <0>         0.0734
     31 H5         -0.5459    1.8868   -0.8726 H         1 <0>         0.0736
     32 H6         -0.5289    1.8773    0.9072 H         1 <0>         0.0703
     33 H7          2.5986    1.4880    2.0524 H         1 <0>         0.2247
     34 H8          0.4476    3.5607    5.8493 H         1 <0>         0.4193
     35 H9         -1.8255    2.6118    7.4359 H         1 <0>         0.0998
     36 H10        -1.9085    5.0658    5.6839 H         1 <0>         0.0682
     37 H11        -3.2583    4.0583    6.2946 H         1 <0>         0.0746
     38 H12        -2.8301    6.4787    7.4024 H         1 <0>         0.0690
     39 H13        -3.1822    5.0841    8.4756 H         1 <0>         0.0710
     40 H14        -0.4552    6.2920    7.7541 H         1 <0>         0.0669
     41 H15        -1.0939    5.8844    9.3777 H         1 <0>         0.0695
     42 H16        -0.6445    3.6093    9.1193 H         1 <0>         0.0779
     43 H17         0.5557    4.1921    7.9315 H         1 <0>         0.0716
     44 H18         3.1257   -1.4026   -2.3490 H         1 <0>         0.0672
     45 H19         3.5934   -0.0852   -1.2472 H         1 <0>         0.0609
     46 H20         5.1580   -1.8893   -1.1919 H         1 <0>         0.3869
     47 H21         0.5186   -1.7415   -2.7788 H         1 <0>         0.3873
     48 H22        -1.8314   -0.2387   -0.8254 H         1 <0>         0.3888
@<TRIPOS>BOND
     1    1    2 1
     2    1   30 1
     3    1   31 1
     4    1   32 1
     5    2    8 1
     6    2    3 1
     7    2   29 1
     8    3    4 1
     9    3    5 1
    10    3   28 1
    11    5    6 1
    12    5    7 1
    13    5   26 1
    14    7    8 1
    15    8    9 1
    16    8   10 1
    17   10   14 1
    18   10   11 1
    19   11   12 2
    20   11   33 1
    21   12   13 1
    22   13   18 ar
    23   13   14 ar
    24   14   15 ar
    25   15   16 ar
    26   16   17 ar
    27   16   25 1
    28   17   18 ar
    29   18   19 1
    30   19   20 1
    31   19   34 1
    32   20   24 1
    33   20   21 1
    34   20   35 1
    35   21   22 1
    36   21   36 1
    37   21   37 1
    38   22   23 1
    39   22   38 1
    40   22   39 1
    41   23   24 1
    42   23   40 1
    43   23   41 1
    44   24   42 1
    45   24   43 1
    46   26   27 1
    47   26   44 1
    48   26   45 1
    49   27   46 1
    50   28   47 1
    51   29   48 1
@<TRIPOS>MOLECULE
ZINC03995998
   45    48     0     0     0
SMALL
USER_CHARGES

@<TRIPOS>ATOM
      1 C1         -0.0164    1.3592    0.0095 C.2       1 <0>         0.2681
      2 N1          1.2005    1.8201    0.0004 N.2       1 <0>        -0.4560
      3 C2          2.0747    0.7850   -0.0135 C.ar      1 <0>        -0.1042
      4 C3          3.4758    0.6753   -0.0279 C.ar      1 <0>         0.5230
      5 N2          4.0162   -0.5385   -0.0400 N.ar      1 <0>        -0.5725
      6 C4          3.2613   -1.6237   -0.0386 C.ar      1 <0>         0.4317
      7 N3          1.9451   -1.5686   -0.0258 N.ar      1 <0>        -0.5360
      8 C5          1.3163   -0.3974   -0.0126 C.ar      1 <0>         0.3255
      9 N4          0.0021   -0.0041    0.0020 N.pl3     1 <0>        -0.4679
     10 C6         -1.1670   -0.8869    0.0084 C.3       1 <0>         0.3123
     11 H1         -0.9746   -1.7745   -0.5943 H         1 <0>         0.1247
     12 C7         -1.5302   -1.2878    1.4554 C.3       1 <0>         0.0792
     13 H2         -1.1596   -0.5452    2.1620 H         1 <0>         0.0858
     14 C8         -3.0750   -1.3163    1.4606 C.3       1 <0>         0.0477
     15 H3         -3.4681   -0.5878    2.1697 H         1 <0>         0.0875
     16 C9         -3.4624   -0.9293    0.0161 C.3       1 <0>         0.0503
     17 H4         -3.6240   -1.8235   -0.5860 H         1 <0>         0.1007
     18 O1         -2.3291   -0.1859   -0.4855 O.3       1 <0>        -0.3461
     19 C10        -4.7182   -0.0553    0.0175 C.3       1 <0>         0.0822
     20 O2         -5.1260    0.1947   -1.3291 O.3       1 <0>        -0.5634
     21 O3         -3.5506   -2.6266    1.7754 O.3       1 <0>        -0.5383
     22 O4         -1.0018   -2.5790    1.7649 O.3       1 <0>        -0.5248
     23 Cl1         4.0328   -3.1787   -0.0548 Cl        1 <0>         0.0350
     24 N5          4.2743    1.8056   -0.0299 N.pl3     1 <0>        -0.6800
     25 C11         5.7331    1.6718   -0.0450 C.3       1 <0>         0.1431
     26 C12         6.2685    1.5615    1.3975 C.3       1 <0>        -0.1342
     27 C13         7.6011    2.3504    1.3694 C.3       1 <0>        -0.1246
     28 C14         7.2728    3.5428    0.4369 C.3       1 <0>        -0.1247
     29 C15         6.3716    2.9316   -0.6558 C.3       1 <0>        -0.1333
     30 H5         -0.9091    1.9668    0.0254 H         1 <0>         0.2263
     31 H6         -5.5183   -0.5696    0.5499 H         1 <0>         0.0674
     32 H7         -4.5017    0.8911    0.5131 H         1 <0>         0.0611
     33 H8         -5.9182    0.7441   -1.4046 H         1 <0>         0.3870
     34 H9         -4.5145   -2.7016    1.7924 H         1 <0>         0.3876
     35 H10        -1.2003   -2.8805    2.6620 H         1 <0>         0.3912
     36 H11         3.8680    2.6864   -0.0214 H         1 <0>         0.4194
     37 H12         6.0211    0.7913   -0.6193 H         1 <0>         0.1002
     38 H13         5.5702    2.0171    2.0996 H         1 <0>         0.0683
     39 H14         6.4480    0.5187    1.6591 H         1 <0>         0.0746
     40 H15         7.8634    2.7014    2.3675 H         1 <0>         0.0690
     41 H16         8.4019    1.7413    0.9502 H         1 <0>         0.0711
     42 H17         6.7367    4.3184    0.9838 H         1 <0>         0.0670
     43 H18         8.1852    3.9459   -0.0025 H         1 <0>         0.0696
     44 H19         6.9702    2.6623   -1.5260 H         1 <0>         0.0780
     45 H20         5.5961    3.6424   -0.9410 H         1 <0>         0.0717
@<TRIPOS>BOND
     1    1    9 1
     2    1    2 2
     3    1   30 1
     4    2    3 1
     5    3    8 ar
     6    3    4 ar
     7    4    5 ar
     8    4   24 1
     9    5    6 ar
    10    6    7 ar
    11    6   23 1
    12    7    8 ar
    13    8    9 1
    14    9   10 1
    15   10   11 1
    16   10   18 1
    17   10   12 1
    18   12   13 1
    19   12   14 1
    20   12   22 1
    21   14   15 1
    22   14   16 1
    23   14   21 1
    24   16   17 1
    25   16   18 1
    26   16   19 1
    27   19   20 1
    28   19   31 1
    29   19   32 1
    30   20   33 1
    31   21   34 1
    32   22   35 1
    33   24   25 1
    34   24   36 1
    35   25   29 1
    36   25   26 1
    37   25   37 1
    38   26   27 1
    39   26   38 1
    40   26   39 1
    41   27   28 1
    42   27   40 1
    43   27   41 1
    44   28   29 1
    45   28   42 1
    46   28   43 1
    47   29   44 1
    48   29   45 1
@<TRIPOS>MOLECULE
ZINC03985981
   43    46     0     0     0
SMALL
USER_CHARGES
2-(hydroxymethyl)-5-(6-tetrahydrofuran-3-ylaminopurin-9-yl)-tetrahydrofuran-3,4-diol
@<TRIPOS>ATOM
      1 C1          1.2006    8.5720    3.9933 C.ar      1 <0>         0.3453
      2 N1          1.0802    8.4094    5.2985 N.ar      1 <0>        -0.5698
      3 C2          0.9608    7.1987    5.8330 C.ar      1 <0>         0.4405
      4 C3          0.9650    6.0848    4.9759 C.ar      1 <0>        -0.0655
      5 C4          1.0960    6.3107    3.5955 C.ar      1 <0>         0.3051
      6 N2          1.2100    7.5590    3.1531 N.ar      1 <0>        -0.5246
      7 N3          1.0699    5.0724    3.0054 N.pl3     1 <0>        -0.4710
      8 C5          0.9234    4.1498    3.9980 C.2       1 <0>         0.2733
      9 N4          0.8675    4.7455    5.1538 N.2       1 <0>        -0.4539
     10 C6          1.1740    4.7934    1.5710 C.3       1 <0>         0.3149
     11 H1          0.7061    5.5877    0.9894 H         1 <0>         0.1249
     12 C7          2.6565    4.6139    1.1560 C.3       1 <0>         0.0778
     13 H2          3.2174    4.0931    1.9321 H         1 <0>         0.0912
     14 C8          2.5334    3.7412   -0.1206 C.3       1 <0>         0.0457
     15 H3          3.3142    2.9809   -0.1406 H         1 <0>         0.0890
     16 C9          1.1449    3.0852    0.0077 C.3       1 <0>         0.0521
     17 H4          0.5071    3.4032   -0.8170 H         1 <0>         0.0993
     18 O1          0.5793    3.5157    1.2571 O.3       1 <0>        -0.3479
     19 C10         1.2864    1.5618   -0.0018 C.3       1 <0>         0.0768
     20 O2         -0.0110    0.9628    0.0073 O.3       1 <0>        -0.5628
     21 O3          2.5957    4.5548   -1.2938 O.3       1 <0>        -0.5359
     22 O4          3.2577    5.8746    0.8538 O.3       1 <0>        -0.5224
     23 N5          0.8352    7.0383    7.2018 N.pl3     1 <0>        -0.5917
     24 C11         0.8329    8.2112    8.0796 C.3       1 <0>         0.0597
     25 H5          1.4923    8.9840    7.6846 H         1 <0>         0.1105
     26 C12         1.2583    7.8165    9.5116 C.3       1 <0>        -0.1477
     27 C13         0.0298    8.1696   10.3790 C.3       1 <0>         0.0423
     28 O5         -1.0879    8.1414    9.4646 O.3       1 <0>        -0.3744
     29 C14        -0.6019    8.7583    8.2482 C.3       1 <0>         0.0236
     30 H6          1.2952    9.5737    3.6009 H         1 <0>         0.2066
     31 H7          0.8653    3.0819    3.8478 H         1 <0>         0.2257
     32 H8          1.8401    1.2428    0.8812 H         1 <0>         0.0594
     33 H9          1.8231    1.2523   -0.8987 H         1 <0>         0.0668
     34 H10         0.0021   -0.0041    0.0020 H         1 <0>         0.3866
     35 H11         2.4638    4.0669   -2.1182 H         1 <0>         0.3867
     36 H12         4.1858    5.8143    0.5889 H         1 <0>         0.3883
     37 H13        -0.0310    6.5821    7.4058 H         1 <0>         0.3725
     38 H14         1.4704    6.7488    9.5664 H         1 <0>         0.0912
     39 H15         2.1266    8.3959    9.8254 H         1 <0>         0.0870
     40 H16        -0.1050    7.4277   11.1660 H         1 <0>         0.0962
     41 H17         0.1435    9.1638   10.8112 H         1 <0>         0.0632
     42 H18        -0.5845    9.8431    8.3526 H         1 <0>         0.0757
     43 H19        -1.2210    8.4677    7.3995 H         1 <0>         0.0899
@<TRIPOS>BOND
     1    1    6 ar
     2    1    2 ar
     3    1   30 1
     4    2    3 ar
     5    3    4 ar
     6    3   23 1
     7    4    9 1
     8    4    5 ar
     9    5    6 ar
    10    5    7 1
    11    7    8 1
    12    7   10 1
    13    8    9 2
    14    8   31 1
    15   10   11 1
    16   10   18 1
    17   10   12 1
    18   12   13 1
    19   12   14 1
    20   12   22 1
    21   14   15 1
    22   14   16 1
    23   14   21 1
    24   16   17 1
    25   16   18 1
    26   16   19 1
    27   19   20 1
    28   19   32 1
    29   19   33 1
    30   20   34 1
    31   21   35 1
    32   22   36 1
    33   23   24 1
    34   23   37 1
    35   24   25 1
    36   24   29 1
    37   24   26 1
    38   26   27 1
    39   26   38 1
    40   26   39 1
    41   27   28 1
    42   27   40 1
    43   27   41 1
    44   28   29 1
    45   29   42 1
    46   29   43 1
@<TRIPOS>MOLECULE
ZINC13472701
   48    51     0     0     0
SMALL
USER_CHARGES
(2R,3R,4R,5R)-2-[6-(cyclopentylamino)purin-9-yl]-5-(hydroxymethyl)-3-methyl-tetrahydrofuran-3,4-diol
@<TRIPOS>ATOM
      1 C1         -0.4890    0.9397    2.4370 C.3       1 <0>        -0.1728
      2 C2         -0.6332    1.9830    1.3272 C.3       1 <0>         0.1055
      3 C3          0.1987    3.2426    1.6568 C.3       1 <0>         0.0529
      4 H1          0.7127    3.1221    2.6104 H         1 <0>         0.0878
      5 C4          1.2183    3.3324    0.4998 C.3       1 <0>         0.0497
      6 H2          0.8486    3.9969   -0.2811 H         1 <0>         0.0995
      7 O1          1.3291    1.9819    0.0000 O.3       1 <0>        -0.3453
      8 C5         -0.0178    1.4608    0.0101 C.3       1 <0>         0.3188
      9 H3         -0.5765    1.8367   -0.8470 H         1 <0>         0.1226
     10 N1          0.0021   -0.0041    0.0020 N.pl3     1 <0>        -0.4684
     11 C6          1.0268   -0.7992    0.4215 C.2       1 <0>         0.2726
     12 N2          0.7058   -2.0519    0.2762 N.2       1 <0>        -0.4531
     13 C7         -0.5385   -2.1402   -0.2524 C.ar      1 <0>        -0.0669
     14 C8         -1.0049   -0.8272   -0.4347 C.ar      1 <0>         0.3025
     15 N3         -2.2168   -0.6374   -0.9458 N.ar      1 <0>        -0.5289
     16 C9         -2.9726   -1.6626   -1.2788 C.ar      1 <0>         0.3456
     17 N4         -2.5778   -2.9134   -1.1262 N.ar      1 <0>        -0.5673
     18 C10        -1.3820   -3.2011   -0.6226 C.ar      1 <0>         0.4418
     19 N5         -0.9773   -4.5152   -0.4660 N.pl3     1 <0>        -0.5950
     20 C11        -1.8705   -5.6084   -0.8576 C.3       1 <0>         0.0851
     21 C12        -2.8087   -5.9692    0.3126 C.3       1 <0>        -0.1122
     22 C13        -2.9441   -7.5106    0.2286 C.3       1 <0>        -0.1252
     23 C14        -1.5186   -7.9580   -0.1797 C.3       1 <0>        -0.1204
     24 C15        -1.0507   -6.8724   -1.1709 C.3       1 <0>        -0.1284
     25 C16         2.5726    3.8217    1.0170 C.3       1 <0>         0.0823
     26 O2          3.4858    3.9389   -0.0759 O.3       1 <0>        -0.5626
     27 O3         -0.6341    4.4036    1.6816 O.3       1 <0>        -0.5391
     28 O4         -2.0072    2.3262    1.1364 O.3       1 <0>        -0.5219
     29 H4          0.5674    0.7264    2.6001 H         1 <0>         0.0741
     30 H5         -0.9281    1.3251    3.3572 H         1 <0>         0.0738
     31 H6         -1.0035    0.0245    2.1444 H         1 <0>         0.0709
     32 H7          1.9658   -0.4421    0.8181 H         1 <0>         0.2235
     33 H8         -3.9524   -1.4735   -1.6920 H         1 <0>         0.2054
     34 H9         -0.1494   -4.6753   -1.0036 H         1 <0>         0.3670
     35 H10        -2.4561   -5.3175   -1.7297 H         1 <0>         0.0759
     36 H11        -2.3627   -5.6768    1.2632 H         1 <0>         0.0732
     37 H12        -3.7804   -5.4925    0.1833 H         1 <0>         0.0678
     38 H13        -3.6706   -7.7929   -0.5334 H         1 <0>         0.0676
     39 H14        -3.2185   -7.9306    1.1963 H         1 <0>         0.0683
     40 H15        -1.5495   -8.9322   -0.6676 H         1 <0>         0.0672
     41 H16        -0.8638   -7.9871    0.6912 H         1 <0>         0.0689
     42 H17        -1.2391   -7.1954   -2.1947 H         1 <0>         0.0731
     43 H18         0.0118   -6.6722   -1.0323 H         1 <0>         0.0737
     44 H19         2.4497    4.7942    1.4936 H         1 <0>         0.0674
     45 H20         2.9637    3.1084    1.7425 H         1 <0>         0.0606
     46 H21         4.3669    4.2451    0.1789 H         1 <0>         0.3868
     47 H22        -0.1528    5.2299    1.8259 H         1 <0>         0.3871
     48 H23        -2.4434    2.6602    1.9322 H         1 <0>         0.3888
@<TRIPOS>BOND
     1    1    2 1
     2    1   29 1
     3    1   30 1
     4    1   31 1
     5    2    8 1
     6    2    3 1
     7    2   28 1
     8    3    4 1
     9    3    5 1
    10    3   27 1
    11    5    6 1
    12    5    7 1
    13    5   25 1
    14    7    8 1
    15    8    9 1
    16    8   10 1
    17   10   14 1
    18   10   11 1
    19   11   12 2
    20   11   32 1
    21   12   13 1
    22   13   18 ar
    23   13   14 ar
    24   14   15 ar
    25   15   16 ar
    26   16   17 ar
    27   16   33 1
    28   17   18 ar
    29   18   19 1
    30   19   20 1
    31   19   34 1
    32   20   24 1
    33   20   21 1
    34   20   35 1
    35   21   22 1
    36   21   36 1
    37   21   37 1
    38   22   23 1
    39   22   38 1
    40   22   39 1
    41   23   24 1
    42   23   40 1
    43   23   41 1
    44   24   42 1
    45   24   43 1
    46   25   26 1
    47   25   44 1
    48   25   45 1
    49   26   46 1
    50   27   47 1
    51   28   48 1
@<TRIPOS>MOLECULE
ZINC03995996
   45    48     0     0     0
SMALL
USER_CHARGES

@<TRIPOS>ATOM
      1 C1         -0.0158    1.3119    0.0093 C.ar      1 <0>         0.3644
      2 N1          1.0888    2.0360    0.0026 N.ar      1 <0>        -0.5872
      3 C2          2.2875    1.4625   -0.0119 C.ar      1 <0>         0.5077
      4 C3          2.3582    0.0588   -0.0202 C.ar      1 <0>        -0.1088
      5 C4          1.1547   -0.6659   -0.0126 C.ar      1 <0>         0.3137
      6 N2          0.0021   -0.0041    0.0020 N.ar      1 <0>        -0.5515
      7 N3          1.5110   -1.9908   -0.0227 N.pl3     1 <0>        -0.4718
      8 C5          2.8729   -2.0476   -0.0358 C.2       1 <0>         0.2611
      9 N4          3.3680   -0.8441   -0.0343 N.2       1 <0>        -0.4603
     10 C6          0.5956   -3.1347   -0.0195 C.3       1 <0>         0.3142
     11 H1         -0.2832   -2.9148    0.5866 H         1 <0>         0.1228
     12 C7          0.1775   -3.4928   -1.4629 C.3       1 <0>         0.0798
     13 H2          0.9267   -3.1463   -2.1747 H         1 <0>         0.0850
     14 C8          0.1056   -5.0362   -1.4608 C.3       1 <0>         0.0473
     15 H3          0.8193   -5.4528   -2.1716 H         1 <0>         0.0869
     16 C9          0.4888   -5.4280   -0.0165 C.3       1 <0>         0.0504
     17 H4         -0.4066   -5.5617    0.5906 H         1 <0>         0.1001
     18 O1          1.2661   -4.3138    0.4763 O.3       1 <0>        -0.3470
     19 C10         1.3272   -6.7078   -0.0164 C.3       1 <0>         0.0821
     20 O2          1.5723   -7.1166    1.3308 O.3       1 <0>        -0.5634
     21 O3         -1.2191   -5.4762   -1.7672 O.3       1 <0>        -0.5387
     22 O4         -1.0998   -2.9297   -1.7685 O.3       1 <0>        -0.5252
     23 N5          3.4393    2.2295   -0.0193 N.pl3     1 <0>        -0.6872
     24 C11         3.3458    3.6915   -0.0110 C.3       1 <0>         0.1462
     25 C12         3.2434    4.2227   -1.4557 C.3       1 <0>        -0.1335
     26 C13         4.0688    5.5332   -1.4380 C.3       1 <0>        -0.1249
     27 C14         5.2562    5.1767   -0.5095 C.3       1 <0>        -0.1248
     28 C15         4.6256    4.2981    0.5906 C.3       1 <0>        -0.1339
     29 H5         -0.9693    1.8187    0.0257 H         1 <0>         0.2043
     30 H6          3.4551   -2.9572   -0.0459 H         1 <0>         0.2223
     31 H7          0.7880   -7.4954   -0.5427 H         1 <0>         0.0671
     32 H8          2.2767   -6.5201   -0.5176 H         1 <0>         0.0609
     33 H9          2.0996   -7.9235    1.4072 H         1 <0>         0.3867
     34 H10        -1.3212   -6.4377   -1.7794 H         1 <0>         0.3873
     35 H11        -1.4113   -3.1237   -2.6632 H         1 <0>         0.3905
     36 H12         4.3085    1.7992   -0.0299 H         1 <0>         0.4159
     37 H13         2.4764    4.0065    0.5660 H         1 <0>         0.0983
     38 H14         3.6762    3.5086   -2.1563 H         1 <0>         0.0673
     39 H15         2.2046    4.4296   -1.7133 H         1 <0>         0.0735
     40 H16         4.4221    5.7807   -2.4391 H         1 <0>         0.0683
     41 H17         3.4840    6.3525   -1.0200 H         1 <0>         0.0706
     42 H18         6.0141    4.6167   -1.0573 H         1 <0>         0.0665
     43 H19         5.6864    6.0798   -0.0766 H         1 <0>         0.0690
     44 H20         4.3771    4.9082    1.4590 H         1 <0>         0.0768
     45 H21         5.3162    3.5047    0.8764 H         1 <0>         0.0709
@<TRIPOS>BOND
     1    1    6 ar
     2    1    2 ar
     3    1   29 1
     4    2    3 ar
     5    3    4 ar
     6    3   23 1
     7    4    9 1
     8    4    5 ar
     9    5    6 ar
    10    5    7 1
    11    7    8 1
    12    7   10 1
    13    8    9 2
    14    8   30 1
    15   10   11 1
    16   10   18 1
    17   10   12 1
    18   12   13 1
    19   12   14 1
    20   12   22 1
    21   14   15 1
    22   14   16 1
    23   14   21 1
    24   16   17 1
    25   16   18 1
    26   16   19 1
    27   19   20 1
    28   19   31 1
    29   19   32 1
    30   20   33 1
    31   21   34 1
    32   22   35 1
    33   23   24 1
    34   23   36 1
    35   24   28 1
    36   24   25 1
    37   24   37 1
    38   25   26 1
    39   25   38 1
    40   25   39 1
    41   26   27 1
    42   26   40 1
    43   26   41 1
    44   27   28 1
    45   27   42 1
    46   27   43 1
    47   28   44 1
    48   28   45 1
