@<TRIPOS>MOLECULE
ZINC00156972
   32    35     0     0     0
SMALL
USER_CHARGES

@<TRIPOS>ATOM
      1 C1         -0.0166    1.3718    0.0096 C.ar      1 <0>        -0.0800
      2 C2          1.1605    2.0994    0.0023 C.ar      1 <0>        -0.0908
      3 C3          2.3767    1.4321   -0.0129 C.ar      1 <0>         0.0059
      4 C4          2.3992    0.0662   -0.0204 C.ar      1 <0>        -0.6172
      5 C5          1.2246   -0.6975   -0.0133 C.ar      1 <0>        -0.1149
      6 C6          0.0021   -0.0041    0.0020 C.ar      1 <0>        -0.0342
      7 C7          1.4909   -2.1423   -0.0240 C.2       1 <0>         0.5357
      8 O1          0.5787   -2.9456   -0.0200 O.2       1 <0>        -0.4528
      9 N1          2.7689   -2.5506   -0.0387 N.am      1 <0>        -0.9201
     10 S1          3.6863   -1.1515   -0.0397 S.o2      1 <0>         2.6509
     11 O2          4.3669   -1.0804    1.2056 O.2       1 <0>        -0.9143
     12 O3          4.3426   -1.0663   -1.2972 O.2       1 <0>        -0.9032
     13 C8          3.2582   -3.9315   -0.0505 C.3       1 <0>         0.2324
     14 C9          3.2958   -4.4390   -1.4689 C.2       1 <0>         0.0466
     15 N2          4.2821   -4.3700   -2.3147 N.2       1 <0>        -0.4793
     16 C10         4.1919   -4.8661   -3.5659 C.ar      1 <0>         0.0745
     17 C11         5.1459   -4.8804   -4.6049 C.ar      1 <0>        -0.0505
     18 C12         4.8483   -5.4386   -5.8102 C.ar      1 <0>        -0.1112
     19 C13         3.6081   -6.0092   -6.0610 C.ar      1 <0>        -0.0880
     20 C14         2.6473   -6.0147   -5.0673 C.ar      1 <0>        -0.0676
     21 C15         2.9379   -5.4539   -3.8473 C.ar      1 <0>        -0.1653
     22 S2          2.0740   -5.2295   -2.3145 S.3       1 <0>         0.1279
     23 H1         -0.9633    1.8912    0.0260 H         1 <0>         0.1487
     24 H2          1.1326    3.1791    0.0079 H         1 <0>         0.1509
     25 H3          3.3014    1.9899   -0.0191 H         1 <0>         0.1480
     26 H4         -0.9274   -0.5540    0.0083 H         1 <0>         0.1487
     27 H5          4.2615   -3.9650    0.3742 H         1 <0>         0.1342
     28 H6          2.5917   -4.5582    0.5421 H         1 <0>         0.1340
     29 H7          6.1206   -4.4444   -4.4428 H         1 <0>         0.1364
     30 H8          5.5951   -5.4371   -6.5904 H         1 <0>         0.1373
     31 H9          3.3952   -6.4455   -7.0258 H         1 <0>         0.1410
     32 H10         1.6781   -6.4555   -5.2481 H         1 <0>         0.1364
@<TRIPOS>BOND
     1    1    6 ar
     2    1    2 ar
     3    1   23 1
     4    2    3 ar
     5    2   24 1
     6    3    4 ar
     7    3   25 1
     8    4   10 1
     9    4    5 ar
    10    5    6 ar
    11    5    7 1
    12    6   26 1
    13    7    8 2
    14    7    9 am
    15    9   10 1
    16    9   13 1
    17   10   11 2
    18   10   12 2
    19   13   14 1
    20   13   27 1
    21   13   28 1
    22   14   22 1
    23   14   15 2
    24   15   16 1
    25   16   21 ar
    26   16   17 ar
    27   17   18 ar
    28   17   29 1
    29   18   19 ar
    30   18   30 1
    31   19   20 ar
    32   19   31 1
    33   20   21 ar
    34   20   32 1
    35   21   22 1
@<TRIPOS>MOLECULE
ZINC00068846
   35    37     0     0     0
SMALL
USER_CHARGES

@<TRIPOS>ATOM
      1 C1         -0.0168    1.3854    0.0097 C.ar      1 <0>        -0.0810
      2 C2          1.1704    2.0906    0.0021 C.ar      1 <0>        -0.0969
      3 C3          2.3782    1.4150   -0.0130 C.ar      1 <0>        -0.0322
      4 C4          2.4002    0.0312   -0.0207 C.ar      1 <0>        -0.0928
      5 C5          1.2163   -0.6796   -0.0132 C.ar      1 <0>        -0.0920
      6 C6          0.0021   -0.0041    0.0020 C.ar      1 <0>        -0.1024
      7 S1         -1.5106   -0.9075    0.0122 S.3       1 <0>        -0.0362
      8 C7         -0.9850   -2.6436   -0.0023 C.3       1 <0>        -0.1385
      9 H1         -0.3124   -2.8326   -0.8390 H         1 <0>         0.1482
     10 C8         -2.2084   -3.5806   -0.0671 C.3       1 <0>        -0.1312
     11 C9         -2.1116   -4.3793    1.2145 C.2       1 <0>         0.5323
     12 O1         -2.8880   -5.2420    1.5645 O.2       1 <0>        -0.4638
     13 N1         -1.0324   -3.9826    1.9002 N.am      1 <0>        -0.5640
     14 C10        -0.3219   -3.0103    1.3074 C.2       1 <0>         0.5356
     15 O2          0.6879   -2.5052    1.7488 O.2       1 <0>        -0.4527
     16 C11        -0.6558   -4.5635    3.1913 C.3       1 <0>         0.1400
     17 C12         0.2582   -5.7402    2.9653 C.ar      1 <0>        -0.0764
     18 C13        -0.2562   -7.0175    2.8030 C.ar      1 <0>        -0.1500
     19 C14         0.6128   -8.0723    2.5977 C.ar      1 <0>         0.0985
     20 N2          1.9159   -7.8744    2.5560 N.ar      1 <0>        -0.4768
     21 C15         2.4402   -6.6738    2.7064 C.ar      1 <0>         0.0982
     22 C16         1.6331   -5.5704    2.9091 C.ar      1 <0>        -0.1507
     23 Cl1         3.8686    2.3051   -0.0231 Cl        1 <0>        -0.0643
     24 H2         -0.9589    1.9131    0.0260 H         1 <0>         0.1380
     25 H3          1.1564    3.1705    0.0077 H         1 <0>         0.1407
     26 H4          3.3442   -0.4932   -0.0329 H         1 <0>         0.1372
     27 H5          1.2341   -1.7594   -0.0195 H         1 <0>         0.1384
     28 H6         -3.1328   -3.0035   -0.0905 H         1 <0>         0.1340
     29 H7         -2.1429   -4.2375   -0.9344 H         1 <0>         0.1394
     30 H8         -0.1405   -3.8131    3.7909 H         1 <0>         0.1103
     31 H9         -1.5520   -4.8950    3.7158 H         1 <0>         0.1114
     32 H10        -1.3224   -7.1860    2.8368 H         1 <0>         0.1408
     33 H11         0.2202   -9.0703    2.4703 H         1 <0>         0.1598
     34 H12         3.5124   -6.5508    2.6665 H         1 <0>         0.1592
     35 H13         2.0681   -4.5889    3.0267 H         1 <0>         0.1399
@<TRIPOS>BOND
     1    1    6 ar
     2    1    2 ar
     3    1   24 1
     4    2    3 ar
     5    2   25 1
     6    3    4 ar
     7    3   23 1
     8    4    5 ar
     9    4   26 1
    10    5    6 ar
    11    5   27 1
    12    6    7 1
    13    7    8 1
    14    8    9 1
    15    8   14 1
    16    8   10 1
    17   10   11 1
    18   10   28 1
    19   10   29 1
    20   11   12 2
    21   11   13 am
    22   13   14 am
    23   13   16 1
    24   14   15 2
    25   16   17 1
    26   16   30 1
    27   16   31 1
    28   17   22 ar
    29   17   18 ar
    30   18   19 ar
    31   18   32 1
    32   19   20 ar
    33   19   33 1
    34   20   21 ar
    35   21   22 ar
    36   21   34 1
    37   22   35 1
@<TRIPOS>MOLECULE
ZINC01034831
   38    41     0     0     0
SMALL
USER_CHARGES
N-[[2-(2-thienyl)thiazol-4-yl]methyl]-2H-chromene-3-carboxamide
@<TRIPOS>ATOM
      1 C1          9.2789   -1.0258    6.2667 C.ar      1 <0>        -0.1503
      2 C2          8.2948   -1.2763    7.2095 C.ar      1 <0>        -0.0699
      3 C3          6.9614   -1.3052    6.8454 C.ar      1 <0>        -0.1463
      4 C4          6.6020   -1.0806    5.5285 C.ar      1 <0>         0.1403
      5 C5          7.5983   -0.8256    4.5702 C.ar      1 <0>        -0.1549
      6 C6          8.9401   -0.7999    4.9486 C.ar      1 <0>        -0.0563
      7 C7          7.1873   -0.5950    3.1766 C.2       1 <0>         0.0139
      8 C8          5.8852   -0.2994    2.9405 C.2       1 <0>        -0.2407
      9 C9          4.9195   -0.2080    4.0931 C.3       1 <0>         0.1120
     10 O1          5.3036   -1.1013    5.1389 O.3       1 <0>        -0.3051
     11 C10         5.4192   -0.0763    1.5724 C.2       1 <0>         0.5680
     12 O2          6.2018   -0.1508    0.6431 O.2       1 <0>        -0.5352
     13 N1          4.1231    0.2118    1.3405 N.am      1 <0>        -0.7217
     14 C11         3.6563    0.4353   -0.0300 C.3       1 <0>         0.1938
     15 C12         2.1800    0.7375   -0.0148 C.2       1 <0>         0.0385
     16 C13         1.7496    2.0262   -0.0038 C.2       1 <0>        -0.1797
     17 S1         -0.0222    1.7837    0.0118 S.3       1 <0>         0.0551
     18 C14         0.0021   -0.0041    0.0020 C.2       1 <0>         0.1927
     19 N2          1.3081   -0.2443   -0.0117 N.2       1 <0>        -0.4853
     20 C15        -1.1221   -0.9534    0.0081 C.2       1 <0>        -0.1054
     21 C16        -2.4701   -0.6973    0.0279 C.2       1 <0>        -0.1099
     22 C17        -3.3445   -1.7600    0.0250 C.2       1 <0>        -0.1634
     23 C18        -2.8494   -3.0253    0.0144 C.2       1 <0>        -0.1611
     24 S2         -1.0875   -2.7384   -0.0007 S.3       1 <0>         0.1330
     25 H1         10.3166   -1.0071    6.5654 H         1 <0>         0.1315
     26 H2          8.5721   -1.4513    8.2385 H         1 <0>         0.1343
     27 H3          6.2018   -1.5015    7.5877 H         1 <0>         0.1370
     28 H4          9.7085   -0.6042    4.2153 H         1 <0>         0.1345
     29 H5          7.9005   -0.6559    2.3679 H         1 <0>         0.1511
     30 H6          4.9110    0.8125    4.4760 H         1 <0>         0.0757
     31 H7          3.9193   -0.4678    3.7466 H         1 <0>         0.1111
     32 H8          3.4995    0.2712    2.0811 H         1 <0>         0.4003
     33 H9          3.8380   -0.4590   -0.6261 H         1 <0>         0.0884
     34 H10         4.1950    1.2773   -0.4646 H         1 <0>         0.0900
     35 H11         2.3199    2.9433   -0.0043 H         1 <0>         0.2059
     36 H12        -2.8376    0.3182    0.0419 H         1 <0>         0.1399
     37 H13        -4.4110   -1.5904    0.0358 H         1 <0>         0.1440
     38 H14        -3.3844   -3.9635    0.0153 H         1 <0>         0.1944
@<TRIPOS>BOND
     1    1    6 ar
     2    1    2 ar
     3    1   25 1
     4    2    3 ar
     5    2   26 1
     6    3    4 ar
     7    3   27 1
     8    4   10 1
     9    4    5 ar
    10    5    6 ar
    11    5    7 1
    12    6   28 1
    13    7    8 2
    14    7   29 1
    15    8    9 1
    16    8   11 1
    17    9   10 1
    18    9   30 1
    19    9   31 1
    20   11   12 2
    21   11   13 am
    22   13   14 1
    23   13   32 1
    24   14   15 1
    25   14   33 1
    26   14   34 1
    27   15   19 1
    28   15   16 2
    29   16   17 1
    30   16   35 1
    31   17   18 1
    32   18   19 2
    33   18   20 1
    34   20   24 1
    35   20   21 2
    36   21   22 1
    37   21   36 1
    38   22   23 2
    39   22   37 1
    40   23   24 1
    41   23   38 1
@<TRIPOS>MOLECULE
ZINC00125385
   34    36     0     0     0
SMALL
USER_CHARGES
2-(2-furylmethylsulfonylmethyl)-4-phenyl-thiazole
@<TRIPOS>ATOM
      1 C1          4.0223    3.9360    6.7315 C.ar      1 <0>        -0.1106
      2 C2          3.7018    2.6434    7.1054 C.ar      1 <0>        -0.1204
      3 C3          2.7658    1.9266    6.3877 C.ar      1 <0>        -0.1030
      4 C4          2.1433    2.5076    5.2845 C.ar      1 <0>        -0.0300
      5 C5          2.4740    3.8084    4.9091 C.ar      1 <0>        -0.0843
      6 C6          3.4072    4.5178    5.6376 C.ar      1 <0>        -0.1219
      7 C7          1.1368    1.7420    4.5088 C.2       1 <0>         0.0994
      8 C8          0.7275    0.5004    4.9149 C.2       1 <0>        -0.1921
      9 S1         -0.4506    0.1061    3.6307 S.3       1 <0>         0.1021
     10 C9         -0.2830    1.5684    2.7099 C.2       1 <0>         0.0691
     11 N1          0.6064    2.2378    3.4018 N.2       1 <0>        -0.4742
     12 C10        -0.9873    1.9696    1.4395 C.3       1 <0>        -0.5238
     13 S2         -0.0172    1.4168    0.0098 S.o2      1 <0>         2.4080
     14 O1          0.0021   -0.0041    0.0020 O.2       1 <0>        -0.9097
     15 O2          1.2149    2.1246    0.0019 O.2       1 <0>        -0.9027
     16 C11        -1.0144    1.9848   -1.3950 C.3       1 <0>        -0.5225
     17 C12        -0.3345    1.5974   -2.6829 C.2       1 <0>        -0.0347
     18 C13        -0.5198    0.4471   -3.3551 C.2       1 <0>        -0.1682
     19 C14         0.3108    0.5022   -4.4979 C.2       1 <0>        -0.2174
     20 C15         0.9539    1.6829   -4.4557 C.2       1 <0>        -0.0154
     21 O3          0.5548    2.3445   -3.3572 O.3       1 <0>        -0.1666
     22 H1          4.7553    4.4932    7.2959 H         1 <0>         0.1249
     23 H2          4.1851    2.1940    7.9603 H         1 <0>         0.1274
     24 H3          2.5161    0.9176    6.6808 H         1 <0>         0.1249
     25 H4          1.9979    4.2619    4.0523 H         1 <0>         0.1333
     26 H5          3.6610    5.5275    5.3503 H         1 <0>         0.1266
     27 H6          1.0292   -0.0782    5.7756 H         1 <0>         0.2067
     28 H7         -1.0929    3.0541    1.4095 H         1 <0>         0.1680
     29 H8         -1.9741    1.5075    1.4096 H         1 <0>         0.1610
     30 H9         -2.0004    1.5224   -1.3512 H         1 <0>         0.1618
     31 H10        -1.1193    3.0689   -1.3513 H         1 <0>         0.1548
     32 H11        -1.1765   -0.3633   -3.0752 H         1 <0>         0.1596
     33 H12         0.4101   -0.2580   -5.2587 H         1 <0>         0.1578
     34 H13         1.6664    2.0404   -5.1844 H         1 <0>         0.2121
@<TRIPOS>BOND
     1    1    6 ar
     2    1    2 ar
     3    1   22 1
     4    2    3 ar
     5    2   23 1
     6    3    4 ar
     7    3   24 1
     8    4    5 ar
     9    4    7 1
    10    5    6 ar
    11    5   25 1
    12    6   26 1
    13    7   11 1
    14    7    8 2
    15    8    9 1
    16    8   27 1
    17    9   10 1
    18   10   11 2
    19   10   12 1
    20   12   13 1
    21   12   28 1
    22   12   29 1
    23   13   14 2
    24   13   15 2
    25   13   16 1
    26   16   17 1
    27   16   30 1
    28   16   31 1
    29   17   21 1
    30   17   18 2
    31   18   19 1
    32   18   32 1
    33   19   20 2
    34   19   33 1
    35   20   21 1
    36   20   34 1
@<TRIPOS>MOLECULE
ZINC00147092
   32    35     0     0     0
SMALL
USER_CHARGES
2-[[2-(2-thienyl)thiazol-4-yl]methyl]isoindoline-1,3-dione
@<TRIPOS>ATOM
      1 C1          5.6454    3.6009   -0.7237 C.ar      1 <0>        -0.0936
      2 C2          5.6584    3.5939    0.6585 C.ar      1 <0>        -0.0961
      3 C3          4.5441    3.1766    1.3696 C.ar      1 <0>        -0.0437
      4 C4          3.4102    2.7630    0.6891 C.ar      1 <0>        -0.1428
      5 C5          3.3969    2.7701   -0.7203 C.ar      1 <0>        -0.1386
      6 C6          4.5180    3.1902   -1.4178 C.ar      1 <0>        -0.0452
      7 C7          2.0596    2.2793   -1.1146 C.2       1 <0>         0.5719
      8 O1          1.6625    2.1419   -2.2541 O.2       1 <0>        -0.4424
      9 N1          1.3560    2.0099   -0.0001 N.am      1 <0>        -0.5729
     10 C8          2.0787    2.2728    1.1036 C.2       1 <0>         0.5760
     11 O2          1.7012    2.1291    2.2490 O.2       1 <0>        -0.4622
     12 C9         -0.0184    1.5028    0.0103 C.3       1 <0>         0.1853
     13 C10         0.0021   -0.0041    0.0020 C.2       1 <0>         0.0283
     14 C11        -0.0749   -0.6917    1.1713 C.2       1 <0>        -0.1721
     15 S1         -0.0104   -2.3750    0.5706 S.3       1 <0>         0.0522
     16 C12         0.1203   -1.9812   -1.1685 C.2       1 <0>         0.1898
     17 N2          0.0997   -0.6538   -1.1348 N.2       1 <0>        -0.4766
     18 C13         0.2225   -2.8846   -2.3255 C.2       1 <0>        -0.1026
     19 C14         0.2487   -4.2563   -2.3519 C.2       1 <0>        -0.1126
     20 C15         0.3474   -4.8918   -3.5687 C.2       1 <0>        -0.1629
     21 C16         0.4257   -4.1456   -4.7014 C.2       1 <0>        -0.1646
     22 S2          0.3526   -2.4813   -4.0599 S.3       1 <0>         0.1369
     23 H1          6.5195    3.9289   -1.2665 H         1 <0>         0.1438
     24 H2          6.5428    3.9162    1.1881 H         1 <0>         0.1438
     25 H3          4.5597    3.1740    2.4495 H         1 <0>         0.1430
     26 H4          4.5134    3.1981   -2.4978 H         1 <0>         0.1431
     27 H5         -0.5455    1.8639   -0.8728 H         1 <0>         0.1148
     28 H6         -0.5286    1.8543    0.9071 H         1 <0>         0.1165
     29 H7         -0.1544   -0.3236    2.1835 H         1 <0>         0.2070
     30 H8          0.1899   -4.8260   -1.4363 H         1 <0>         0.1392
     31 H9          0.3667   -5.9703   -3.6221 H         1 <0>         0.1433
     32 H10         0.5107   -4.4748   -5.7265 H         1 <0>         0.1939
@<TRIPOS>BOND
     1    1    6 ar
     2    1    2 ar
     3    1   23 1
     4    2    3 ar
     5    2   24 1
     6    3    4 ar
     7    3   25 1
     8    4   10 1
     9    4    5 ar
    10    5    6 ar
    11    5    7 1
    12    6   26 1
    13    7    8 2
    14    7    9 am
    15    9   10 am
    16    9   12 1
    17   10   11 2
    18   12   13 1
    19   12   27 1
    20   12   28 1
    21   13   17 1
    22   13   14 2
    23   14   15 1
    24   14   29 1
    25   15   16 1
    26   16   17 2
    27   16   18 1
    28   18   22 1
    29   18   19 2
    30   19   20 1
    31   19   30 1
    32   20   21 2
    33   20   31 1
    34   21   22 1
    35   21   32 1
@<TRIPOS>MOLECULE
ZINC00117115
   38    40     0     0     0
SMALL
USER_CHARGES
N'-(8-tert-butyl-7-thia-2,4-diazabicyclo[4.3.0]nona-1,3,5,8-tetraen-5-yl)thiophene-2-carbohydrazide
@<TRIPOS>ATOM
      1 C1         -0.0127    1.0858    0.0080 C.3       1 <0>        -0.1406
      2 C2         -0.7288    1.5792    1.2668 C.3       1 <0>         0.0093
      3 C3         -0.7496    3.1091    1.2752 C.3       1 <0>        -0.1407
      4 C4         -2.1642    1.0497    1.2777 C.3       1 <0>        -0.1532
      5 C5          0.0000    1.0800    2.4877 C.2       1 <0>        -0.0534
      6 C6          1.2738    1.3121    2.8579 C.2       1 <0>        -0.1635
      7 C7          1.7779    0.7526    4.0452 C.ar      1 <0>         0.2122
      8 C8          0.8647   -0.0378    4.7761 C.ar      1 <0>        -0.3035
      9 S1         -0.6149    0.0418    3.8033 S.3       1 <0>         0.0916
     10 C9          1.2345   -0.6451    5.9633 C.ar      1 <0>         0.4995
     11 N1          2.4806   -0.4659    6.4034 N.ar      1 <0>        -0.5746
     12 C10         3.3264    0.2758    5.7103 C.ar      1 <0>         0.3496
     13 N2          3.0165    0.8665    4.5854 N.ar      1 <0>        -0.5334
     14 N3          0.3337   -1.4196    6.6760 N.pl3     1 <0>        -0.4957
     15 N4          0.7274   -2.0266    7.8757 N.am      1 <0>        -0.5091
     16 C11        -0.1490   -2.7801    8.5690 C.2       1 <0>         0.6088
     17 O1         -1.2824   -2.9332    8.1529 O.2       1 <0>        -0.5241
     18 C12         0.2629   -3.4151    9.8243 C.2       1 <0>        -0.2450
     19 C13        -0.4757   -4.2146   10.6825 C.2       1 <0>        -0.0559
     20 C14         0.1636   -4.6885   11.8009 C.2       1 <0>        -0.1803
     21 C15         1.4616   -4.3494   12.0168 C.2       1 <0>        -0.1717
     22 S2          1.8434   -3.3542   10.6496 S.3       1 <0>         0.1525
     23 H1          0.0021   -0.0041    0.0020 H         1 <0>         0.0619
     24 H2          1.0099    1.4631    0.0003 H         1 <0>         0.0635
     25 H3         -0.5399    1.4469   -0.8751 H         1 <0>         0.0711
     26 H4         -1.2768    3.4701    0.3922 H         1 <0>         0.0711
     27 H5         -1.2598    3.4606    2.1720 H         1 <0>         0.0619
     28 H6          0.2730    3.4864    1.2675 H         1 <0>         0.0635
     29 H7         -2.1494   -0.0402    1.2717 H         1 <0>         0.0638
     30 H8         -2.6744    1.4012    2.1745 H         1 <0>         0.0637
     31 H9         -2.6914    1.4107    0.3946 H         1 <0>         0.0738
     32 H10         1.9098    1.9299    2.2413 H         1 <0>         0.1513
     33 H11         4.3282    0.4013    6.0938 H         1 <0>         0.2031
     34 H12        -0.5697   -1.5417    6.3443 H         1 <0>         0.4458
     35 H13         1.6307   -1.9046    8.2074 H         1 <0>         0.4354
     36 H14        -1.5082   -4.4568   10.4783 H         1 <0>         0.1510
     37 H15        -0.3605   -5.3193   12.5036 H         1 <0>         0.1455
     38 H16         2.1005   -4.6312   12.8407 H         1 <0>         0.1948
@<TRIPOS>BOND
     1    1    2 1
     2    1   23 1
     3    1   24 1
     4    1   25 1
     5    2    3 1
     6    2    4 1
     7    2    5 1
     8    3   26 1
     9    3   27 1
    10    3   28 1
    11    4   29 1
    12    4   30 1
    13    4   31 1
    14    5    9 1
    15    5    6 2
    16    6    7 1
    17    6   32 1
    18    7   13 ar
    19    7    8 ar
    20    8    9 1
    21    8   10 ar
    22   10   11 ar
    23   10   14 1
    24   11   12 ar
    25   12   13 ar
    26   12   33 1
    27   14   15 1
    28   14   34 1
    29   15   16 am
    30   15   35 1
    31   16   17 2
    32   16   18 1
    33   18   22 1
    34   18   19 2
    35   19   20 1
    36   19   36 1
    37   20   21 2
    38   20   37 1
    39   21   22 1
    40   21   38 1
@<TRIPOS>MOLECULE
ZINC13658860
   42    44     0     0     0
SMALL
USER_CHARGES

@<TRIPOS>ATOM
      1 C1          0.9788    1.3959   -0.5707 C.3       1 <0>        -0.1525
      2 C2          0.8208   -0.1220   -0.4618 C.3       1 <0>         0.0576
      3 O1          1.3004   -0.5607    0.8109 O.3       1 <0>        -0.3239
      4 C3          1.2318   -1.8805    1.0681 C.2       1 <0>         0.5269
      5 O2          0.7775   -2.6384    0.2357 O.2       1 <0>        -0.4804
      6 C4          1.7113   -2.4086    2.3688 C.ar      1 <0>         0.1527
      7 C5          1.5386   -3.7503    2.6933 C.ar      1 <0>        -0.1039
      8 C6          2.0092   -4.1961    3.9326 C.ar      1 <0>         0.1310
      9 N1          2.5992   -3.3278    4.7473 N.ar      1 <0>        -0.4385
     10 C7          2.7429   -2.0639    4.4011 C.ar      1 <0>         0.3239
     11 N2          2.3195   -1.6056    3.2428 N.ar      1 <0>        -0.4659
     12 C8          3.4187   -1.1165    5.3586 C.3       1 <0>        -0.0852
     13 S1          1.8223   -5.8828    4.4064 S.3       1 <0>         0.2148
     14 C9          2.5518   -5.9589    6.0085 C.2       1 <0>         0.2265
     15 N3          3.0972   -4.9540    6.6571 N.2       1 <0>        -0.4678
     16 C10         3.5500   -5.3771    7.8458 C.2       1 <0>         0.2707
     17 N4          3.2958   -6.6607    7.9654 N.2       1 <0>        -0.2870
     18 H1          2.3227   -7.9496    6.5745 H         1 <0>         0.4460
     19 N5          2.6431   -7.0592    6.7877 N.pl3     1 <0>        -0.4580
     20 C11         4.2281   -4.5334    8.8610 C.ar      1 <0>        -0.0185
     21 C12         4.4358   -3.1773    8.6174 C.ar      1 <0>        -0.0748
     22 C13         5.0666   -2.3972    9.5652 C.ar      1 <0>        -0.1255
     23 C14         5.4928   -2.9594   10.7550 C.ar      1 <0>        -0.1022
     24 C15         5.2896   -4.3052   11.0019 C.ar      1 <0>        -0.1245
     25 C16         4.6543   -5.0933   10.0637 C.ar      1 <0>        -0.0840
     26 C17         0.8624   -4.6974    1.7358 C.3       1 <0>        -0.1188
     27 H2          2.0314    1.6599   -0.4685 H         1 <0>         0.0689
     28 H3          0.6129    1.7305   -1.5414 H         1 <0>         0.0825
     29 H4          0.4046    1.8787    0.2201 H         1 <0>         0.0686
     30 H5         -0.2318   -0.3860   -0.5640 H         1 <0>         0.0718
     31 H6          1.3949   -0.6048   -1.2526 H         1 <0>         0.0720
     32 H7          4.4913   -1.1079    5.1649 H         1 <0>         0.0913
     33 H8          3.0165   -0.1128    5.2211 H         1 <0>         0.0912
     34 H9          3.2369   -1.4437    6.3823 H         1 <0>         0.0918
     35 H10         4.1041   -2.7375    7.6884 H         1 <0>         0.1375
     36 H11         5.2281   -1.3460    9.3774 H         1 <0>         0.1294
     37 H12         5.9863   -2.3454   11.4938 H         1 <0>         0.1262
     38 H13         5.6246   -4.7391   11.9324 H         1 <0>         0.1284
     39 H14         4.4921   -6.1429   10.2593 H         1 <0>         0.1299
     40 H15         1.5890   -5.0585    1.0079 H         1 <0>         0.0942
     41 H16         0.4521   -5.5420    2.2892 H         1 <0>         0.0712
     42 H17         0.0571   -4.1768    1.2177 H         1 <0>         0.1063
@<TRIPOS>BOND
     1    1    2 1
     2    1   27 1
     3    1   28 1
     4    1   29 1
     5    2    3 1
     6    2   30 1
     7    2   31 1
     8    3    4 1
     9    4    5 2
    10    4    6 1
    11    6   11 ar
    12    6    7 ar
    13    7    8 ar
    14    7   26 1
    15    8    9 ar
    16    8   13 1
    17    9   10 ar
    18   10   11 ar
    19   10   12 1
    20   12   32 1
    21   12   33 1
    22   12   34 1
    23   13   14 1
    24   14   15 2
    25   14   19 1
    26   15   16 1
    27   16   20 1
    28   16   17 2
    29   17   19 1
    30   18   19 1
    31   20   25 ar
    32   20   21 ar
    33   21   22 ar
    34   21   35 1
    35   22   23 ar
    36   22   36 1
    37   23   24 ar
    38   23   37 1
    39   24   25 ar
    40   24   38 1
    41   25   39 1
    42   26   40 1
    43   26   41 1
    44   26   42 1
@<TRIPOS>MOLECULE
ZINC03120110
   38    40     0     0     0
SMALL
USER_CHARGES

@<TRIPOS>ATOM
      1 C1         -0.0225    1.8097    0.0120 C.3       1 <0>        -0.1583
      2 S1          0.0021   -0.0041    0.0020 S.3       1 <0>         0.0327
      3 C2          0.8767   -0.4266    1.4721 C.2       1 <0>         0.1197
      4 C3          1.1840   -1.7820    1.9425 C.2       1 <0>        -0.1536
      5 C4          1.8853   -1.6345    3.1388 C.2       1 <0>         0.2387
      6 O1          1.9999   -0.3176    3.3833 O.3       1 <0>        -0.0517
      7 N1          1.3778    0.4099    2.3441 N.2       1 <0>        -0.2931
      8 C5          2.4032   -2.7180    3.9771 C.2       1 <0>        -0.1613
      9 C6          3.0999   -2.6409    5.1741 C.2       1 <0>        -0.1033
     10 C7          3.4586   -3.8453    5.7343 C.2       1 <0>        -0.0346
     11 C8          3.1189   -4.9936    5.1005 C.2       1 <0>        -0.8206
     12 S2          2.2957   -4.4801    3.7291 S.3       1 <0>         0.3854
     13 S3          3.4563   -6.6480    5.6040 S.o2      1 <0>         2.7258
     14 O2          3.4285   -7.4443    4.4274 O.2       1 <0>        -0.9376
     15 O3          4.5910   -6.5894    6.4575 O.2       1 <0>        -0.9376
     16 N2          2.1842   -7.1437    6.5412 N.pl3     1 <0>        -1.1057
     17 C9          0.8499   -7.2803    5.9521 C.3       1 <0>         0.1527
     18 C10        -0.0298   -8.0777    6.8802 C.ar      1 <0>        -0.1048
     19 C11        -0.0858   -9.4542    6.7667 C.ar      1 <0>        -0.0988
     20 C12        -0.8927  -10.1857    7.6181 C.ar      1 <0>        -0.1203
     21 C13        -1.6433   -9.5406    8.5832 C.ar      1 <0>        -0.1095
     22 C14        -1.5865   -8.1641    8.6973 C.ar      1 <0>        -0.1215
     23 C15        -0.7763   -7.4331    7.8487 C.ar      1 <0>        -0.1022
     24 C16         0.8328   -3.0129    1.3005 C.1       1 <0>         0.2619
     25 N3          0.5542   -3.9893    0.7912 N.1       1 <0>        -0.3667
     26 H1          1.0001    2.1870    0.0043 H         1 <0>         0.0958
     27 H2         -0.5497    2.1708   -0.8711 H         1 <0>         0.1233
     28 H3         -0.5327    2.1613    0.9088 H         1 <0>         0.0957
     29 H4          3.3453   -1.6962    5.6365 H         1 <0>         0.1671
     30 H5          4.0038   -3.8750    6.6661 H         1 <0>         0.1604
     31 H6          2.3226   -7.3436    7.4802 H         1 <0>         0.4251
     32 H7          0.4165   -6.2916    5.8008 H         1 <0>         0.0754
     33 H8          0.9267   -7.7939    4.9937 H         1 <0>         0.0937
     34 H9          0.5005   -9.9582    6.0127 H         1 <0>         0.1275
     35 H10        -0.9371  -11.2611    7.5289 H         1 <0>         0.1262
     36 H11        -2.2742  -10.1120    9.2479 H         1 <0>         0.1245
     37 H12        -2.1732   -7.6601    9.4511 H         1 <0>         0.1251
     38 H13        -0.7292   -6.3580    7.9402 H         1 <0>         0.1245
@<TRIPOS>BOND
     1    1    2 1
     2    1   26 1
     3    1   27 1
     4    1   28 1
     5    2    3 1
     6    3    7 2
     7    3    4 1
     8    4    5 2
     9    4   24 1
    10    5    6 1
    11    5    8 1
    12    6    7 1
    13    8   12 1
    14    8    9 2
    15    9   10 1
    16    9   29 1
    17   10   11 2
    18   10   30 1
    19   11   12 1
    20   11   13 1
    21   13   14 2
    22   13   15 2
    23   13   16 1
    24   16   17 1
    25   16   31 1
    26   17   18 1
    27   17   32 1
    28   17   33 1
    29   18   23 ar
    30   18   19 ar
    31   19   20 ar
    32   19   34 1
    33   20   21 ar
    34   20   35 1
    35   21   22 ar
    36   21   36 1
    37   22   23 ar
    38   22   37 1
    39   23   38 1
    40   24   25 3
@<TRIPOS>MOLECULE
ZINC00095386
   32    34     0     0     0
SMALL
USER_CHARGES
2-[[5-(4-chlorophenyl)-1,2,4-oxadiazol-3-yl]methylsulfonyl]pyridine
@<TRIPOS>ATOM
      1 C1          1.7795    1.2939   -4.4308 C.ar      1 <0>        -0.0886
      2 C2          1.4247    0.0511   -4.9333 C.ar      1 <0>        -0.1128
      3 C3          0.3767   -0.6363   -4.3514 C.ar      1 <0>         0.0838
      4 N1         -0.2822   -0.1237   -3.3304 N.ar      1 <0>        -0.3924
      5 C4          0.0275    1.0548   -2.8267 C.ar      1 <0>        -0.4345
      6 C5          1.0600    1.8028   -3.3607 C.ar      1 <0>        -0.0840
      7 S1         -0.8901    1.6867   -1.4616 S.o2      1 <0>         2.5110
      8 O1         -2.1631    1.0632   -1.5607 O.2       1 <0>        -0.8953
      9 O2         -0.7650    3.0986   -1.5631 O.2       1 <0>        -0.9076
     10 C6         -0.0127    1.0858    0.0080 C.3       1 <0>        -0.5197
     11 C7         -0.7181    1.5718    1.2479 C.2       1 <0>         0.1679
     12 N2         -0.4720    2.7176    1.9018 N.2       1 <0>        -0.4571
     13 C8         -1.3179    2.7348    2.9168 C.2       1 <0>         0.2356
     14 O3         -2.0319    1.6010    2.8413 O.3       1 <0>         0.1052
     15 N3         -1.6714    0.9541    1.8809 N.2       1 <0>        -0.3494
     16 C9         -1.4478    3.7933    3.9398 C.ar      1 <0>        -0.0348
     17 C10        -0.6250    4.9200    3.8908 C.ar      1 <0>        -0.0462
     18 C11        -0.7539    5.9066    4.8457 C.ar      1 <0>        -0.1129
     19 C12        -1.6904    5.7765    5.8578 C.ar      1 <0>        -0.0063
     20 C13        -2.5062    4.6587    5.9145 C.ar      1 <0>        -0.1119
     21 C14        -2.3899    3.6678    4.9624 C.ar      1 <0>        -0.0615
     22 Cl1        -1.8426    7.0197    7.0598 Cl        1 <0>        -0.0526
     23 H1          2.5940    1.8541   -4.8657 H         1 <0>         0.1510
     24 H2          1.9604   -0.3740   -5.7692 H         1 <0>         0.1494
     25 H3          0.0941   -1.6048   -4.7370 H         1 <0>         0.1727
     26 H4          1.3058    2.7696   -2.9467 H         1 <0>         0.1590
     27 H5          0.0021   -0.0041    0.0020 H         1 <0>         0.1670
     28 H6          1.0099    1.4631    0.0003 H         1 <0>         0.1682
     29 H7          0.1084    5.0206    3.1044 H         1 <0>         0.1518
     30 H8         -0.1205    6.7805    4.8067 H         1 <0>         0.1482
     31 H9         -3.2346    4.5627    6.7060 H         1 <0>         0.1480
     32 H10        -3.0261    2.7962    5.0080 H         1 <0>         0.1489
@<TRIPOS>BOND
     1    1    6 ar
     2    1    2 ar
     3    1   23 1
     4    2    3 ar
     5    2   24 1
     6    3    4 ar
     7    3   25 1
     8    4    5 ar
     9    5    6 ar
    10    5    7 1
    11    6   26 1
    12    7    8 2
    13    7    9 2
    14    7   10 1
    15   10   11 1
    16   10   27 1
    17   10   28 1
    18   11   15 2
    19   11   12 1
    20   12   13 2
    21   13   14 1
    22   13   16 1
    23   14   15 1
    24   16   21 ar
    25   16   17 ar
    26   17   18 ar
    27   17   29 1
    28   18   19 ar
    29   18   30 1
    30   19   20 ar
    31   19   22 1
    32   20   21 ar
    33   20   31 1
    34   21   32 1
@<TRIPOS>MOLECULE
ZINC00114311
   29    31     0     0     0
SMALL
USER_CHARGES
3-(2-furylmethylsulfonylmethyl)-5-isoxazol-5-yl-1,2,4-oxadiazole
@<TRIPOS>ATOM
      1 C1         10.0776    2.7529    4.6785 C.2       1 <0>        -0.2176
      2 C2          9.6525    2.1377    3.4786 C.2       1 <0>        -0.1668
      3 C3          8.9708    3.0667    2.7846 C.2       1 <0>        -0.0362
      4 O1          8.9655    4.2071    3.4939 O.3       1 <0>        -0.1662
      5 C4          9.6303    4.0210    4.6460 C.2       1 <0>        -0.0140
      6 C5          8.3276    2.8640    1.4369 C.3       1 <0>        -0.5184
      7 S1          6.6210    2.2914    1.6613 S.o2      1 <0>         2.4113
      8 O2          5.8773    3.3287    2.2860 O.2       1 <0>        -0.9017
      9 O3          6.6541    1.0053    2.2646 O.2       1 <0>        -0.9069
     10 C6          6.0316    2.1101   -0.0446 C.3       1 <0>        -0.5328
     11 C7          4.6025    1.6322   -0.0342 C.2       1 <0>         0.1772
     12 N1          3.5084    2.4080   -0.0192 N.2       1 <0>        -0.4307
     13 C8          2.4823    1.5737   -0.0139 C.2       1 <0>         0.2614
     14 O4          2.9961    0.3330   -0.0204 O.3       1 <0>         0.1214
     15 N2          4.2074    0.3929   -0.0372 N.2       1 <0>        -0.3420
     16 C9          1.0541    1.9350    0.0024 C.2       1 <0>         0.0218
     17 C10        -0.0126    1.0758    0.0080 C.2       1 <0>        -0.1542
     18 C11        -1.1350    1.9307    0.0170 C.2       1 <0>        -0.0039
     19 N3         -0.6751    3.1489    0.0254 N.2       1 <0>        -0.3326
     20 O5          0.5335    3.1764    0.0140 O.3       1 <0>         0.1436
     21 H1         10.6512    2.2928    5.4696 H         1 <0>         0.1581
     22 H2          9.8388    1.1174    3.1774 H         1 <0>         0.1597
     23 H3          9.7841    4.7649    5.4137 H         1 <0>         0.2126
     24 H4          8.8899    2.1188    0.8744 H         1 <0>         0.1627
     25 H5          8.3256    3.8068    0.8899 H         1 <0>         0.1564
     26 H6          6.6536    1.3844   -0.5687 H         1 <0>         0.1659
     27 H7          6.0892    3.0724   -0.5532 H         1 <0>         0.1708
     28 H8          0.0021   -0.0041    0.0020 H         1 <0>         0.1935
     29 H9         -2.1731    1.6329    0.0192 H         1 <0>         0.2077
@<TRIPOS>BOND
     1    1    5 2
     2    1    2 1
     3    1   21 1
     4    2    3 2
     5    2   22 1
     6    3    4 1
     7    3    6 1
     8    4    5 1
     9    5   23 1
    10    6    7 1
    11    6   24 1
    12    6   25 1
    13    7    8 2
    14    7    9 2
    15    7   10 1
    16   10   11 1
    17   10   26 1
    18   10   27 1
    19   11   15 2
    20   11   12 1
    21   12   13 2
    22   13   14 1
    23   13   16 1
    24   14   15 1
    25   16   20 1
    26   16   17 2
    27   17   18 1
    28   17   28 1
    29   18   19 2
    30   18   29 1
    31   19   20 1
@<TRIPOS>MOLECULE
ZINC00732524
   36    37     0     0     0
SMALL
USER_CHARGES
ethyl 2-[2-[(3,4-dichlorophenyl)carbamoylamino]thiazol-4-yl]acetate
@<TRIPOS>ATOM
      1 C1         13.9037   -3.1328    1.5360 C.3       1 <0>        -0.1534
      2 C2         12.4930   -2.5451    1.6099 C.3       1 <0>         0.0637
      3 O1         12.2835   -1.6469    0.4885 O.3       1 <0>        -0.3614
      4 C3         11.0869   -1.0442    0.4058 C.2       1 <0>         0.4636
      5 O2         10.2426   -1.2601    1.2427 O.2       1 <0>        -0.4895
      6 C4         10.7967   -0.0983   -0.7309 C.3       1 <0>        -0.0381
      7 C5          9.3955    0.4387   -0.5922 C.2       1 <0>         0.0878
      8 C6          9.1644    1.7738   -0.5635 C.2       1 <0>        -0.2532
      9 S1          7.3861    1.7993   -0.3904 S.3       1 <0>         0.1796
     10 C7          7.1360    0.0810   -0.3742 C.2       1 <0>         0.2981
     11 N1          8.3662   -0.3798   -0.4901 N.2       1 <0>        -0.5242
     12 N2          5.9453   -0.6272   -0.2617 N.am      1 <0>        -0.6152
     13 C8          4.7765    0.0339   -0.1455 C.2       1 <0>         0.7111
     14 O3          4.7637    1.2496   -0.1390 O.2       1 <0>        -0.5329
     15 N3          3.6219   -0.6528   -0.0364 N.am      1 <0>        -0.6694
     16 C9          2.3998    0.0298   -0.0278 C.ar      1 <0>         0.1788
     17 C10         2.2477    1.1932   -0.7709 C.ar      1 <0>        -0.1025
     18 C11         1.0411    1.8650   -0.7614 C.ar      1 <0>        -0.0746
     19 C12        -0.0164    1.3804   -0.0120 C.ar      1 <0>        -0.0443
     20 C13         0.1320    0.2206    0.7300 C.ar      1 <0>        -0.0108
     21 C14         1.3378   -0.4554    0.7232 C.ar      1 <0>        -0.1240
     22 Cl1        -1.1965   -0.3842    1.6695 Cl        1 <0>        -0.0384
     23 Cl2        -1.5294    2.2315    0.0037 Cl        1 <0>        -0.0434
     24 H1         14.0192   -3.6838    0.6026 H         1 <0>         0.0672
     25 H2         14.6358   -2.3262    1.5748 H         1 <0>         0.0673
     26 H3         14.0610   -3.8071    2.3778 H         1 <0>         0.0802
     27 H4         12.3774   -1.9941    2.5433 H         1 <0>         0.0690
     28 H5         11.7609   -3.3517    1.5711 H         1 <0>         0.0692
     29 H6         10.8902   -0.6292   -1.6783 H         1 <0>         0.1215
     30 H7         11.5067    0.7283   -0.7061 H         1 <0>         0.1243
     31 H8          9.8623    2.5954   -0.6278 H         1 <0>         0.2002
     32 H9          5.9554   -1.5971   -0.2669 H         1 <0>         0.4246
     33 H10         3.6378   -1.6199    0.0361 H         1 <0>         0.4176
     34 H11         3.0727    1.5726   -1.3555 H         1 <0>         0.1532
     35 H12         0.9228    2.7697   -1.3393 H         1 <0>         0.1501
     36 H13         1.4537   -1.3600    1.3019 H         1 <0>         0.1483
@<TRIPOS>BOND
     1    1    2 1
     2    1   24 1
     3    1   25 1
     4    1   26 1
     5    2    3 1
     6    2   27 1
     7    2   28 1
     8    3    4 1
     9    4    5 2
    10    4    6 1
    11    6    7 1
    12    6   29 1
    13    6   30 1
    14    7   11 1
    15    7    8 2
    16    8    9 1
    17    8   31 1
    18    9   10 1
    19   10   11 2
    20   10   12 1
    21   12   13 am
    22   12   32 1
    23   13   14 2
    24   13   15 am
    25   15   16 1
    26   15   33 1
    27   16   21 ar
    28   16   17 ar
    29   17   18 ar
    30   17   34 1
    31   18   19 ar
    32   18   35 1
    33   19   20 ar
    34   19   23 1
    35   20   21 ar
    36   20   22 1
    37   21   36 1
