@<TRIPOS>MOLECULE
ZINC01247140
   33    35     0     0     0
SMALL
USER_CHARGES

@<TRIPOS>ATOM
      1 C1          0.3533    1.9762   -0.1393 C.3       1 <0>        -0.1445
      2 C2          0.3026    0.4504   -0.0372 C.3       1 <0>        -0.0697
      3 C3          0.9281   -0.1563   -1.2667 C.ar      1 <0>        -0.1631
      4 C4          0.1471   -0.4297   -2.3747 C.ar      1 <0>        -0.0845
      5 C5          0.7172   -0.9858   -3.5030 C.ar      1 <0>        -0.2046
      6 C6          2.0766   -1.2704   -3.5241 C.ar      1 <0>         0.1989
      7 C7          2.8582   -0.9945   -2.4094 C.ar      1 <0>        -0.1647
      8 C8          2.2829   -0.4332   -1.2863 C.ar      1 <0>        -0.0873
      9 N1          2.6567   -1.8336   -4.6643 N.2       1 <0>        -0.6646
     10 C9          2.1165   -1.5838   -5.9073 C.2       1 <0>         0.4603
     11 C10         1.4454   -0.4028   -6.1590 C.2       1 <0>        -0.3741
     12 C11         0.9128   -0.1856   -7.4274 C.2       1 <0>         0.2358
     13 N2          1.0475   -1.0931   -8.3716 N.2       1 <0>        -0.5598
     14 C12         1.6947   -2.2415   -8.1428 C.2       1 <0>         0.4777
     15 N3          2.2389   -2.4964   -6.9156 N.pl3     1 <0>        -0.3415
     16 N4          2.8428   -3.7571   -7.0040 N.2       1 <0>        -0.3405
     17 C13         2.6520   -4.1895   -8.2265 C.2       1 <0>         0.2151
     18 N5          1.9579   -3.2908   -8.9139 N.2       1 <0>        -0.5736
     19 C14         0.1770    1.0964   -7.7208 C.3       1 <0>        -0.0961
     20 H1          1.3909    2.3009   -0.2169 H         1 <0>         0.0525
     21 H2         -0.1958    2.2996   -1.0236 H         1 <0>         0.0529
     22 H3         -0.0992    2.4150    0.7500 H         1 <0>         0.0472
     23 H4          0.8517    0.1270    0.8471 H         1 <0>         0.0595
     24 H5         -0.7350    0.1257    0.0405 H         1 <0>         0.0595
     25 H6         -0.9098   -0.2085   -2.3575 H         1 <0>         0.1038
     26 H7          0.1066   -1.1994   -4.3679 H         1 <0>         0.1101
     27 H8          3.9154   -1.2149   -2.4224 H         1 <0>         0.1102
     28 H9          2.8908   -0.2144   -0.4209 H         1 <0>         0.1066
     29 H10         1.3351    0.3409   -5.3837 H         1 <0>         0.1407
     30 H11         2.9993   -5.1362   -8.6132 H         1 <0>         0.2123
     31 H12         0.8810    1.8438   -8.0866 H         1 <0>         0.0770
     32 H13        -0.5846    0.9129   -8.4787 H         1 <0>         0.0745
     33 H14        -0.2976    1.4597   -6.8093 H         1 <0>         0.0743
@<TRIPOS>BOND
     1    1    2 1
     2    1   20 1
     3    1   21 1
     4    1   22 1
     5    2    3 1
     6    2   23 1
     7    2   24 1
     8    3    8 ar
     9    3    4 ar
    10    4    5 ar
    11    4   25 1
    12    5    6 ar
    13    5   26 1
    14    6    7 ar
    15    6    9 1
    16    7    8 ar
    17    7   27 1
    18    8   28 1
    19    9   10 1
    20   10   15 1
    21   10   11 2
    22   11   12 1
    23   11   29 1
    24   12   13 2
    25   12   19 1
    26   13   14 1
    27   14   18 2
    28   14   15 1
    29   15   16 1
    30   16   17 2
    31   17   18 1
    32   17   30 1
    33   19   31 1
    34   19   32 1
    35   19   33 1
@<TRIPOS>MOLECULE
ZINC07735882
   40    42     0     0     0
SMALL
USER_CHARGES
4-methyl-N-(4-tert-butylphenyl)-1,5,7,9-tetrazabicyclo[4.3.0]nona-2,4,6,8-tetraen-2-amine
@<TRIPOS>ATOM
      1 C1          2.5246    2.5040   -3.9017 C.3       1 <0>        -0.1093
      2 C2          2.4633    1.9961   -2.4842 C.2       1 <0>         0.2643
      3 C3          1.2293    1.7173   -1.9021 C.2       1 <0>        -0.3117
      4 C4          1.1916    1.2519   -0.6018 C.2       1 <0>         0.4812
      5 N1          2.3688    1.0864    0.0700 N.pl3     1 <0>        -0.3617
      6 C5          3.5561    1.3685   -0.5447 C.2       1 <0>         0.4851
      7 N2          3.5767    1.8185   -1.8045 N.2       1 <0>        -0.4984
      8 N3          4.5216    1.1127    0.3314 N.2       1 <0>        -0.5340
      9 C6          3.9910    0.6912    1.4728 C.2       1 <0>         0.2634
     10 N4          2.6855    0.6510    1.3630 N.2       1 <0>        -0.3550
     11 N5         -0.0111    0.9658    0.0074 N.pl3     1 <0>        -0.6496
     12 C7         -1.2119    1.2966   -0.6269 C.ar      1 <0>         0.1381
     13 C8         -1.3444    2.5197   -1.2722 C.ar      1 <0>        -0.1371
     14 C9         -2.5305    2.8411   -1.9024 C.ar      1 <0>        -0.0955
     15 C10        -3.5892    1.9516   -1.8823 C.ar      1 <0>        -0.0726
     16 C11        -3.4624    0.7355   -1.2364 C.ar      1 <0>        -0.0896
     17 C12        -2.2774    0.4055   -0.6086 C.ar      1 <0>        -0.1279
     18 C13        -4.8838    2.3083   -2.5662 C.3       1 <0>        -0.0304
     19 C14        -6.0183    2.3138   -1.5396 C.3       1 <0>        -0.1408
     20 C15        -4.7612    3.6962   -3.1982 C.3       1 <0>        -0.1473
     21 C16        -5.1864    1.2769   -3.6551 C.3       1 <0>        -0.1405
     22 H1          2.4832    3.5933   -3.8995 H         1 <0>         0.0955
     23 H2          3.4554    2.1768   -4.3650 H         1 <0>         0.0909
     24 H3          1.6795    2.1095   -4.4659 H         1 <0>         0.0887
     25 H4          0.3153    1.8630   -2.4587 H         1 <0>         0.1746
     26 H5          4.5502    0.4145    2.3543 H         1 <0>         0.2329
     27 H6         -0.0243    0.5313    0.8745 H         1 <0>         0.4251
     28 H7         -0.5195    3.2166   -1.2845 H         1 <0>         0.1325
     29 H8         -2.6327    3.7899   -2.4081 H         1 <0>         0.1368
     30 H9         -4.2911    0.0431   -1.2225 H         1 <0>         0.1305
     31 H10        -2.1790   -0.5445   -0.1043 H         1 <0>         0.1289
     32 H11        -5.8027    3.0485   -0.7638 H         1 <0>         0.0572
     33 H12        -6.9547    2.5717   -2.0343 H         1 <0>         0.0611
     34 H13        -6.1056    1.3250   -1.0893 H         1 <0>         0.0573
     35 H14        -3.9530    3.6923   -3.9296 H         1 <0>         0.0605
     36 H15        -5.6977    3.9542   -3.6929 H         1 <0>         0.0610
     37 H16        -4.5457    4.4310   -2.4225 H         1 <0>         0.0596
     38 H17        -5.2737    0.2881   -3.2048 H         1 <0>         0.0573
     39 H18        -6.1228    1.5349   -4.1498 H         1 <0>         0.0609
     40 H19        -4.3781    1.2730   -4.3865 H         1 <0>         0.0580
@<TRIPOS>BOND
     1    1    2 1
     2    1   22 1
     3    1   23 1
     4    1   24 1
     5    2    7 2
     6    2    3 1
     7    3    4 2
     8    3   25 1
     9    4    5 1
    10    4   11 1
    11    5   10 1
    12    5    6 1
    13    6    7 1
    14    6    8 2
    15    8    9 1
    16    9   10 2
    17    9   26 1
    18   11   12 1
    19   11   27 1
    20   12   17 ar
    21   12   13 ar
    22   13   14 ar
    23   13   28 1
    24   14   15 ar
    25   14   29 1
    26   15   16 ar
    27   15   18 1
    28   16   17 ar
    29   16   30 1
    30   17   31 1
    31   18   19 1
    32   18   20 1
    33   18   21 1
    34   19   32 1
    35   19   33 1
    36   19   34 1
    37   20   35 1
    38   20   36 1
    39   20   37 1
    40   21   38 1
    41   21   39 1
    42   21   40 1
@<TRIPOS>MOLECULE
ZINC01326786
   42    45     0     0     0
SMALL
USER_CHARGES

@<TRIPOS>ATOM
      1 C1          1.8953   -1.4276   -2.0747 C.3       1 <0>        -0.1114
      2 C2          0.9068   -1.3908   -0.9378 C.2       1 <0>         0.2452
      3 C3         -0.2628   -2.1428   -1.0135 C.2       1 <0>        -0.2398
      4 C4         -1.1580   -2.0972    0.0380 C.2       1 <0>         0.4457
      5 N1         -0.8629   -1.3142    1.1172 N.pl3     1 <0>        -0.3442
      6 C5          0.2978   -0.5937    1.1464 C.2       1 <0>         0.4608
      7 N2          1.1574   -0.6521    0.1229 N.2       1 <0>        -0.4698
      8 N3          0.3205    0.0661    2.2994 N.2       1 <0>        -0.5275
      9 C6         -0.7757   -0.2091    2.9951 C.2       1 <0>         0.2527
     10 N4         -1.5278   -1.0437    2.3199 N.2       1 <0>        -0.3276
     11 N5         -2.3257   -2.8273   -0.0017 N.pl3     1 <0>        -0.6731
     12 C7         -3.5610   -2.1787    0.1139 C.ar      1 <0>         0.1489
     13 C8         -3.6196   -0.7912    0.1162 C.ar      1 <0>        -0.1119
     14 C9         -4.8385   -0.1523    0.2298 C.ar      1 <0>        -0.1086
     15 C10        -6.0041   -0.8959    0.3420 C.ar      1 <0>         0.1048
     16 C11        -5.9464   -2.2819    0.3403 C.ar      1 <0>        -0.1701
     17 C12        -4.7289   -2.9225    0.2206 C.ar      1 <0>        -0.1188
     18 O1         -7.2040   -0.2659    0.4543 O.3       1 <0>        -0.3081
     19 C13        -8.3634   -1.0937    0.5661 C.3       1 <0>         0.1026
     20 C14        -9.5906   -0.2266    0.6804 C.ar      1 <0>        -0.0991
     21 C15       -10.0372    0.1786    1.9243 C.ar      1 <0>        -0.0950
     22 C16       -11.1629    0.9740    2.0292 C.ar      1 <0>        -0.1229
     23 C17       -11.8417    1.3646    0.8901 C.ar      1 <0>        -0.1086
     24 C18       -11.3946    0.9602   -0.3539 C.ar      1 <0>        -0.1232
     25 C19       -10.2664    0.1683   -0.4590 C.ar      1 <0>        -0.0953
     26 H1          2.7446   -0.7866   -1.8387 H         1 <0>         0.0908
     27 H2          2.2419   -2.4505   -2.2218 H         1 <0>         0.0950
     28 H3          1.4142   -1.0725   -2.9861 H         1 <0>         0.0953
     29 H4         -0.4673   -2.7522   -1.8814 H         1 <0>         0.1752
     30 H5         -1.0118    0.1928    3.9694 H         1 <0>         0.2314
     31 H6         -2.2920   -3.7906   -0.1097 H         1 <0>         0.4261
     32 H7         -2.7122   -0.2120    0.0295 H         1 <0>         0.1138
     33 H8         -4.8843    0.9268    0.2316 H         1 <0>         0.1336
     34 H9         -6.8543   -2.8602    0.4284 H         1 <0>         0.1341
     35 H10        -4.6846   -4.0016    0.2143 H         1 <0>         0.1306
     36 H11        -8.4457   -1.7251   -0.3186 H         1 <0>         0.0714
     37 H12        -8.2778   -1.7210    1.4535 H         1 <0>         0.0714
     38 H13        -9.5068   -0.1266    2.8142 H         1 <0>         0.1243
     39 H14       -11.5122    1.2900    3.0010 H         1 <0>         0.1261
     40 H15       -12.7216    1.9855    0.9720 H         1 <0>         0.1251
     41 H16       -11.9252    1.2651   -1.2438 H         1 <0>         0.1260
     42 H17        -9.9149   -0.1446   -1.4311 H         1 <0>         0.1241
@<TRIPOS>BOND
     1    1    2 1
     2    1   26 1
     3    1   27 1
     4    1   28 1
     5    2    7 2
     6    2    3 1
     7    3    4 2
     8    3   29 1
     9    4    5 1
    10    4   11 1
    11    5   10 1
    12    5    6 1
    13    6    7 1
    14    6    8 2
    15    8    9 1
    16    9   10 2
    17    9   30 1
    18   11   12 1
    19   11   31 1
    20   12   17 ar
    21   12   13 ar
    22   13   14 ar
    23   13   32 1
    24   14   15 ar
    25   14   33 1
    26   15   16 ar
    27   15   18 1
    28   16   17 ar
    29   16   34 1
    30   17   35 1
    31   18   19 1
    32   19   20 1
    33   19   36 1
    34   19   37 1
    35   20   25 ar
    36   20   21 ar
    37   21   22 ar
    38   21   38 1
    39   22   23 ar
    40   22   39 1
    41   23   24 ar
    42   23   40 1
    43   24   25 ar
    44   24   41 1
    45   25   42 1
@<TRIPOS>MOLECULE
ZINC04822135
   31    34     0     0     0
SMALL
USER_CHARGES
N-benzo[1,3]dioxol-5-yl-4-methyl-1,5,7,9-tetrazabicyclo[4.3.0]nona-2,4,6,8-tetraen-2-amine
@<TRIPOS>ATOM
      1 C1         -3.6677   -2.1747    0.2432 C.3       1 <0>        -0.1100
      2 C2         -2.3334   -2.8748    0.2226 C.2       1 <0>         0.2655
      3 C3         -1.1625   -2.1288    0.1137 C.2       1 <0>        -0.3107
      4 C4          0.0520   -2.7874    0.0906 C.2       1 <0>         0.4799
      5 N1          0.0614   -4.1495    0.1868 N.pl3     1 <0>        -0.3611
      6 C5         -1.1134   -4.8385    0.2980 C.2       1 <0>         0.4853
      7 N2         -2.2820   -4.1872    0.3134 N.2       1 <0>        -0.4959
      8 N3         -0.8055   -6.1287    0.3733 N.2       1 <0>        -0.5326
      9 C6          0.5119   -6.2794    0.3141 C.2       1 <0>         0.2646
     10 N4          1.0846   -5.1059    0.2004 N.2       1 <0>        -0.3538
     11 N5          1.2308   -2.0830   -0.0214 N.pl3     1 <0>        -0.6463
     12 C7          1.2024   -0.7074   -0.2785 C.ar      1 <0>         0.1570
     13 C8          2.0678    0.1434    0.3967 C.ar      1 <0>        -0.1185
     14 C9          2.0409    1.5015    0.1439 C.ar      1 <0>        -0.0735
     15 C10         1.1513    2.0185   -0.7840 C.ar      1 <0>         0.0289
     16 C11         0.2823    1.1679   -1.4632 C.ar      1 <0>         0.0613
     17 C12         0.3094   -0.1932   -1.2089 C.ar      1 <0>        -0.1267
     18 O1         -0.4832    1.9135   -2.3126 O.3       1 <0>        -0.3027
     19 C13        -0.3588    3.2716   -1.8509 C.3       1 <0>         0.2124
     20 O2          0.9296    3.2979   -1.2087 O.3       1 <0>        -0.3043
     21 H1         -3.9353   -1.9330    1.2719 H         1 <0>         0.0960
     22 H2         -3.6055   -1.2568   -0.3413 H         1 <0>         0.0888
     23 H3         -4.4274   -2.8280   -0.1859 H         1 <0>         0.0917
     24 H4         -1.2034   -1.0519    0.0437 H         1 <0>         0.1736
     25 H5          1.0325   -7.2248    0.3530 H         1 <0>         0.2335
     26 H6          2.0804   -2.5404    0.0779 H         1 <0>         0.4297
     27 H7          2.7624   -0.2569    1.1205 H         1 <0>         0.1470
     28 H8          2.7114    2.1618    0.6737 H         1 <0>         0.1474
     29 H9         -0.3640   -0.8544   -1.7340 H         1 <0>         0.1465
     30 H10        -1.1477    3.5071   -1.1365 H         1 <0>         0.0905
     31 H11        -0.3821    3.9655   -2.6912 H         1 <0>         0.1366
@<TRIPOS>BOND
     1    1    2 1
     2    1   21 1
     3    1   22 1
     4    1   23 1
     5    2    7 2
     6    2    3 1
     7    3    4 2
     8    3   24 1
     9    4    5 1
    10    4   11 1
    11    5   10 1
    12    5    6 1
    13    6    7 1
    14    6    8 2
    15    8    9 1
    16    9   10 2
    17    9   25 1
    18   11   12 1
    19   11   26 1
    20   12   17 ar
    21   12   13 ar
    22   13   14 ar
    23   13   27 1
    24   14   15 ar
    25   14   28 1
    26   15   20 1
    27   15   16 ar
    28   16   17 ar
    29   16   18 1
    30   17   29 1
    31   18   19 1
    32   19   20 1
    33   19   30 1
    34   19   31 1
@<TRIPOS>MOLECULE
ZINC48106602
   38    41     0     0     0
SMALL
USER_CHARGES

@<TRIPOS>ATOM
      1 C1         -0.0184    1.5028    0.0103 C.3       1 <0>        -0.1107
      2 C2          0.0021   -0.0041    0.0020 C.2       1 <0>         0.2666
      3 C3         -1.1970   -0.7121    0.0039 C.2       1 <0>        -0.3262
      4 C4         -1.1598   -2.0932   -0.0038 C.2       1 <0>         0.4925
      5 N1          0.0547   -2.7164   -0.0130 N.pl3     1 <0>        -0.3655
      6 C5          1.2053   -1.9793   -0.0145 C.2       1 <0>         0.4868
      7 N2          1.1534   -0.6424   -0.0124 N.2       1 <0>        -0.5048
      8 N3          2.2200   -2.8368   -0.0236 N.2       1 <0>        -0.5371
      9 C6          1.7561   -4.0804   -0.0279 C.2       1 <0>         0.2615
     10 N4          0.4456   -4.0614   -0.0217 N.2       1 <0>        -0.3555
     11 N5         -2.3252   -2.8268   -0.0017 N.pl3     1 <0>        -0.7026
     12 C7         -3.6210   -2.1433    0.0087 C.3       1 <0>         0.1499
     13 H1         -3.5503   -1.2317    0.6020 H         1 <0>         0.0994
     14 C8         -4.6875   -3.0677    0.6078 C.3       1 <0>        -0.1271
     15 C9         -5.9619   -2.2548    0.8266 C.3       1 <0>        -0.0763
     16 C10        -6.3412   -1.5164   -0.4304 C.ar      1 <0>        -0.0811
     17 C11        -7.6435   -1.0447   -0.5353 C.ar      1 <0>        -0.1174
     18 C12        -8.0512   -0.3560   -1.6587 C.ar      1 <0>        -0.1177
     19 C13        -7.1567   -0.1321   -2.6890 C.ar      1 <0>        -0.1184
     20 C14        -5.8638   -0.6018   -2.5877 C.ar      1 <0>        -0.1161
     21 C15        -5.4523   -1.2988   -1.4587 C.ar      1 <0>        -0.0759
     22 C16        -4.0307   -1.7960   -1.4210 C.3       1 <0>        -0.0964
     23 H2          1.0042    1.8801    0.0026 H         1 <0>         0.0884
     24 H3         -0.5455    1.8639   -0.8728 H         1 <0>         0.0921
     25 H4         -0.5286    1.8543    0.9071 H         1 <0>         0.0922
     26 H5         -2.1421   -0.1894    0.0117 H         1 <0>         0.1661
     27 H6          2.3656   -4.9719   -0.0353 H         1 <0>         0.2312
     28 H7         -2.2882   -3.7960   -0.0071 H         1 <0>         0.4172
     29 H8         -4.8895   -3.8890   -0.0798 H         1 <0>         0.0773
     30 H9         -4.3366   -3.4638    1.5607 H         1 <0>         0.0808
     31 H10        -6.7730   -2.9267    1.1074 H         1 <0>         0.0852
     32 H11        -5.7966   -1.5364    1.6295 H         1 <0>         0.0827
     33 H12        -8.3427   -1.2190    0.2692 H         1 <0>         0.1228
     34 H13        -9.0657    0.0068   -1.7334 H         1 <0>         0.1236
     35 H14        -7.4694    0.4084   -3.5702 H         1 <0>         0.1237
     36 H15        -5.1656   -0.4262   -3.3928 H         1 <0>         0.1217
     37 H16        -3.3680   -1.0213   -1.8066 H         1 <0>         0.0836
     38 H17        -3.9448   -2.6851   -2.0455 H         1 <0>         0.0835
@<TRIPOS>BOND
     1    1    2 1
     2    1   23 1
     3    1   24 1
     4    1   25 1
     5    2    7 2
     6    2    3 1
     7    3    4 2
     8    3   26 1
     9    4    5 1
    10    4   11 1
    11    5   10 1
    12    5    6 1
    13    6    7 1
    14    6    8 2
    15    8    9 1
    16    9   10 2
    17    9   27 1
    18   11   12 1
    19   11   28 1
    20   12   13 1
    21   12   22 1
    22   12   14 1
    23   14   15 1
    24   14   29 1
    25   14   30 1
    26   15   16 1
    27   15   31 1
    28   15   32 1
    29   16   21 ar
    30   16   17 ar
    31   17   18 ar
    32   17   33 1
    33   18   19 ar
    34   18   34 1
    35   19   20 ar
    36   19   35 1
    37   20   21 ar
    38   20   36 1
    39   21   22 1
    40   22   37 1
    41   22   38 1
@<TRIPOS>MOLECULE
ZINC48106603
   38    41     0     0     0
SMALL
USER_CHARGES

@<TRIPOS>ATOM
      1 C1         -0.0184    1.5028    0.0103 C.3       1 <0>        -0.1107
      2 C2          0.0021   -0.0041    0.0020 C.2       1 <0>         0.2666
      3 C3         -1.1970   -0.7121    0.0039 C.2       1 <0>        -0.3262
      4 C4         -1.1598   -2.0932   -0.0038 C.2       1 <0>         0.4925
      5 N1          0.0547   -2.7164   -0.0130 N.pl3     1 <0>        -0.3655
      6 C5          1.2053   -1.9793   -0.0145 C.2       1 <0>         0.4868
      7 N2          1.1534   -0.6424   -0.0124 N.2       1 <0>        -0.5048
      8 N3          2.2200   -2.8368   -0.0236 N.2       1 <0>        -0.5371
      9 C6          1.7561   -4.0804   -0.0279 C.2       1 <0>         0.2615
     10 N4          0.4456   -4.0614   -0.0217 N.2       1 <0>        -0.3555
     11 N5         -2.3252   -2.8268   -0.0017 N.pl3     1 <0>        -0.7026
     12 C7         -3.6210   -2.1433    0.0087 C.3       1 <0>         0.1500
     13 H1         -3.5564   -1.2253   -0.5753 H         1 <0>         0.0993
     14 C8         -4.6937   -3.0612   -0.5892 C.3       1 <0>        -0.1271
     15 C9         -5.9702   -2.2461   -0.7860 C.3       1 <0>        -0.0763
     16 C10        -6.3364   -1.5214    0.4828 C.ar      1 <0>        -0.0811
     17 C11        -7.6376   -1.0509    0.6063 C.ar      1 <0>        -0.1174
     18 C12        -8.0336   -0.3745    1.7413 C.ar      1 <0>        -0.1177
     19 C13        -7.1284   -0.1617    2.7646 C.ar      1 <0>        -0.1184
     20 C14        -5.8366   -0.6302    2.6448 C.ar      1 <0>        -0.1161
     21 C15        -5.4369   -1.3148    1.5042 C.ar      1 <0>        -0.0759
     22 C16        -4.0159   -1.8115    1.4463 C.3       1 <0>        -0.0964
     23 H2          1.0042    1.8801    0.0026 H         1 <0>         0.0884
     24 H3         -0.5455    1.8639   -0.8728 H         1 <0>         0.0921
     25 H4         -0.5286    1.8543    0.9071 H         1 <0>         0.0922
     26 H5         -2.1421   -0.1894    0.0117 H         1 <0>         0.1661
     27 H6          2.3656   -4.9719   -0.0353 H         1 <0>         0.2312
     28 H7         -2.2882   -3.7960   -0.0071 H         1 <0>         0.4172
     29 H8         -4.3527   -3.4469   -1.5500 H         1 <0>         0.0808
     30 H9         -4.8886   -3.8900    0.0914 H         1 <0>         0.0774
     31 H10        -5.8133   -1.5190   -1.5827 H         1 <0>         0.0827
     32 H11        -6.7842   -2.9149   -1.0657 H         1 <0>         0.0852
     33 H12        -8.3449   -1.2159   -0.1930 H         1 <0>         0.1227
     34 H13        -9.0470   -0.0120    1.8301 H         1 <0>         0.1236
     35 H14        -7.4317    0.3698    3.6545 H         1 <0>         0.1237
     36 H15        -5.1302   -0.4633    3.4445 H         1 <0>         0.1217
     37 H16        -3.9235   -2.7074    2.0602 H         1 <0>         0.0835
     38 H17        -3.3491   -1.0410    1.8334 H         1 <0>         0.0836
@<TRIPOS>BOND
     1    1    2 1
     2    1   23 1
     3    1   24 1
     4    1   25 1
     5    2    7 2
     6    2    3 1
     7    3    4 2
     8    3   26 1
     9    4    5 1
    10    4   11 1
    11    5   10 1
    12    5    6 1
    13    6    7 1
    14    6    8 2
    15    8    9 1
    16    9   10 2
    17    9   27 1
    18   11   12 1
    19   11   28 1
    20   12   13 1
    21   12   22 1
    22   12   14 1
    23   14   15 1
    24   14   29 1
    25   14   30 1
    26   15   16 1
    27   15   31 1
    28   15   32 1
    29   16   21 ar
    30   16   17 ar
    31   17   18 ar
    32   17   33 1
    33   18   19 ar
    34   18   34 1
    35   19   20 ar
    36   19   35 1
    37   20   21 ar
    38   20   36 1
    39   21   22 1
    40   22   37 1
    41   22   38 1
@<TRIPOS>MOLECULE
ZINC15785760
   43    45     0     0     0
SMALL
USER_CHARGES
6-ethyl-N-(4-isopropylphenyl)-5-methyl-[1,2,4]triazolo[5,1-b]pyrimidin-7-amine
@<TRIPOS>ATOM
      1 C1         -1.5717   -2.1007   -0.4425 C.3       1 <0>        -0.1490
      2 C2         -1.7366   -0.8666   -1.3317 C.3       1 <0>        -0.0690
      3 C3         -2.2518    0.2832   -0.5048 C.2       1 <0>        -0.1746
      4 C4         -3.6211    0.4944   -0.3638 C.2       1 <0>         0.2404
      5 N1         -4.0700    1.4992    0.3588 N.2       1 <0>        -0.4571
      6 C5         -3.2310    2.3405    0.9739 C.2       1 <0>         0.4500
      7 N2         -3.4331    3.4055    1.7421 N.2       1 <0>        -0.5262
      8 C6         -2.2666    3.9141    2.1191 C.2       1 <0>         0.2508
      9 N3         -1.2908    3.2012    1.6117 N.2       1 <0>        -0.3289
     10 N4         -1.8793    2.1700    0.8686 N.pl3     1 <0>        -0.3327
     11 C7         -1.3727    1.1435    0.1242 C.2       1 <0>         0.4305
     12 N5         -0.0111    0.9658    0.0074 N.pl3     1 <0>        -0.6828
     13 C8          0.7264    1.7709   -0.8654 C.ar      1 <0>         0.1941
     14 C9          0.0747    2.6585   -1.7122 C.ar      1 <0>        -0.1667
     15 C10         0.8068    3.4570   -2.5688 C.ar      1 <0>        -0.0695
     16 C11         2.1864    3.3648   -2.5929 C.ar      1 <0>        -0.1096
     17 C12         2.8380    2.4781   -1.7553 C.ar      1 <0>        -0.0744
     18 C13         2.1124    1.6812   -0.8918 C.ar      1 <0>        -0.1634
     19 C14         2.9815    4.2328   -3.5338 C.3       1 <0>        -0.0532
     20 C15         2.5654    3.9363   -4.9760 C.3       1 <0>        -0.1450
     21 C16         2.7135    5.7057   -3.2183 C.3       1 <0>        -0.1457
     22 C17        -4.5954   -0.4335   -1.0425 C.3       1 <0>        -0.1135
     23 H1         -0.8630   -1.8811    0.3560 H         1 <0>         0.0517
     24 H2         -2.5356   -2.3679   -0.0095 H         1 <0>         0.0608
     25 H3         -1.1990   -2.9323   -1.0406 H         1 <0>         0.0693
     26 H4         -2.4453   -1.0861   -2.1302 H         1 <0>         0.0922
     27 H5         -0.7726   -0.5994   -1.7648 H         1 <0>         0.0836
     28 H6         -2.1406    4.7826    2.7486 H         1 <0>         0.2319
     29 H7          0.4349    0.2794    0.5277 H         1 <0>         0.4219
     30 H8         -1.0030    2.7273   -1.6975 H         1 <0>         0.1073
     31 H9          0.3010    4.1507   -3.2240 H         1 <0>         0.1228
     32 H10         3.9156    2.4091   -1.7761 H         1 <0>         0.1269
     33 H11         2.6219    0.9892   -0.2377 H         1 <0>         0.1258
     34 H12         4.0441    4.0226   -3.4118 H         1 <0>         0.0773
     35 H13         1.5028    4.1465   -5.0980 H         1 <0>         0.0552
     36 H14         3.1405    4.5642   -5.6565 H         1 <0>         0.0583
     37 H15         2.7563    2.8870   -5.2008 H         1 <0>         0.0560
     38 H16         3.2886    6.3336   -3.8988 H         1 <0>         0.0585
     39 H17         1.6510    5.9160   -3.3403 H         1 <0>         0.0550
     40 H18         3.0100    5.9170   -2.1909 H         1 <0>         0.0559
     41 H19        -4.8374   -1.2591   -0.3732 H         1 <0>         0.0979
     42 H20        -5.5057    0.1128   -1.2894 H         1 <0>         0.0931
     43 H21        -4.1479   -0.8255   -1.9558 H         1 <0>         0.0938
@<TRIPOS>BOND
     1    1    2 1
     2    1   23 1
     3    1   24 1
     4    1   25 1
     5    2    3 1
     6    2   26 1
     7    2   27 1
     8    3   11 2
     9    3    4 1
    10    4    5 2
    11    4   22 1
    12    5    6 1
    13    6   10 1
    14    6    7 2
    15    7    8 1
    16    8    9 2
    17    8   28 1
    18    9   10 1
    19   10   11 1
    20   11   12 1
    21   12   13 1
    22   12   29 1
    23   13   18 ar
    24   13   14 ar
    25   14   15 ar
    26   14   30 1
    27   15   16 ar
    28   15   31 1
    29   16   17 ar
    30   16   19 1
    31   17   18 ar
    32   17   32 1
    33   18   33 1
    34   19   20 1
    35   19   21 1
    36   19   34 1
    37   20   35 1
    38   20   36 1
    39   20   37 1
    40   21   38 1
    41   21   39 1
    42   21   40 1
    43   22   41 1
    44   22   42 1
    45   22   43 1
@<TRIPOS>MOLECULE
ZINC21093230
   38    40     0     0     0
SMALL
USER_CHARGES
6-ethyl-5-methyl-N-[4-(trifluoromethoxy)phenyl]-[1,2,4]triazolo[5,1-b]pyrimidin-7-amine
@<TRIPOS>ATOM
      1 C1          0.6682    6.4929    1.6719 C.3       1 <0>        -0.1503
      2 C2          1.1385    6.3295    0.2252 C.3       1 <0>        -0.0689
      3 C3          2.4109    5.5224    0.1988 C.2       1 <0>        -0.1741
      4 C4          3.6497    6.1533    0.2807 C.2       1 <0>         0.2404
      5 N1          4.7607    5.4471    0.2576 N.2       1 <0>        -0.4566
      6 C5          4.7330    4.1134    0.1551 C.2       1 <0>         0.4498
      7 N2          5.6946    3.1978    0.1118 N.2       1 <0>        -0.5258
      8 C6          5.1579    1.9886    0.0047 C.2       1 <0>         0.2517
      9 N3          3.8513    2.0879   -0.0239 N.2       1 <0>        -0.3297
     10 N4          3.5409    3.4500    0.0772 N.pl3     1 <0>        -0.3344
     11 C7          2.3658    4.1455    0.0925 C.2       1 <0>         0.4296
     12 N5          1.1587    3.4867    0.0093 N.pl3     1 <0>        -0.6925
     13 C8          0.7053    3.0096   -1.2263 C.ar      1 <0>         0.1939
     14 C9         -0.4526    2.2459   -1.2938 C.ar      1 <0>        -0.1324
     15 C10        -0.8993    1.7760   -2.5130 C.ar      1 <0>        -0.0761
     16 C11        -0.1918    2.0668   -3.6702 C.ar      1 <0>         0.0646
     17 C12         0.9652    2.8292   -3.6037 C.ar      1 <0>        -0.1412
     18 C13         1.4136    3.2995   -2.3852 C.ar      1 <0>        -0.1341
     19 O1         -0.6323    1.6037   -4.8705 O.3       1 <0>        -0.3090
     20 C14         0.1452    1.9410   -6.0210 C.3       1 <0>         0.6034
     21 F1          1.4401    1.4323   -5.8742 F         1 <0>        -0.1655
     22 F2         -0.4464    1.3884   -7.1620 F         1 <0>        -0.1301
     23 F3          0.2030    3.3326   -6.1532 F         1 <0>        -0.1659
     24 C15         3.7190    7.6542    0.3971 C.3       1 <0>        -0.1159
     25 H1         -0.2605    7.0820    1.6912 H         1 <0>         0.0700
     26 H2          1.4442    7.0125    2.2532 H         1 <0>         0.0607
     27 H3          0.4829    5.5017    2.1114 H         1 <0>         0.0527
     28 H4          0.3625    5.8099   -0.3561 H         1 <0>         0.0846
     29 H5          1.3238    7.3207   -0.2143 H         1 <0>         0.0911
     30 H6          5.7131    1.0639   -0.0502 H         1 <0>         0.2319
     31 H7          0.5511    3.3356    0.9137 H         1 <0>         0.4495
     32 H8         -1.0060    2.0232   -0.3934 H         1 <0>         0.1428
     33 H9         -1.7999    1.1824   -2.5657 H         1 <0>         0.1454
     34 H10         1.5156    3.0548   -4.5051 H         1 <0>         0.1351
     35 H11         2.3143    3.8931   -2.3336 H         1 <0>         0.1176
     36 H12         4.7715    7.9696    0.4499 H         1 <0>         0.0933
     37 H13         3.1937    7.9759    1.3084 H         1 <0>         0.0971
     38 H14         3.2425    8.1125   -0.4820 H         1 <0>         0.0973
@<TRIPOS>BOND
     1    1    2 1
     2    1   25 1
     3    1   26 1
     4    1   27 1
     5    2    3 1
     6    2   28 1
     7    2   29 1
     8    3   11 2
     9    3    4 1
    10    4    5 2
    11    4   24 1
    12    5    6 1
    13    6   10 1
    14    6    7 2
    15    7    8 1
    16    8    9 2
    17    8   30 1
    18    9   10 1
    19   10   11 1
    20   11   12 1
    21   12   13 1
    22   12   31 1
    23   13   18 ar
    24   13   14 ar
    25   14   15 ar
    26   14   32 1
    27   15   16 ar
    28   15   33 1
    29   16   17 ar
    30   16   19 1
    31   17   18 ar
    32   17   34 1
    33   18   35 1
    34   19   20 1
    35   20   21 1
    36   20   22 1
    37   20   23 1
    38   24   36 1
    39   24   37 1
    40   24   38 1
@<TRIPOS>MOLECULE
ZINC15786673
   35    38     0     0     0
SMALL
USER_CHARGES
N-(3-fluoro-4-methyl-phenyl)BLAHamine
@<TRIPOS>ATOM
      1 C1          0.0297   -0.8198   -5.2139 C.3       1 <0>        -0.1112
      2 C2          0.0169   -0.2322   -3.8262 C.ar      1 <0>        -0.1539
      3 C3          0.8309    0.8441   -3.5250 C.ar      1 <0>        -0.0464
      4 C4          0.8180    1.3884   -2.2559 C.ar      1 <0>        -0.1775
      5 C5         -0.0063    0.8474   -1.2769 C.ar      1 <0>         0.2244
      6 C6         -0.8237   -0.2332   -1.5805 C.ar      1 <0>        -0.2016
      7 C7         -0.8105   -0.7712   -2.8550 C.ar      1 <0>         0.1419
      8 F1         -1.6048   -1.8228   -3.1523 F         1 <0>        -0.1316
      9 N1         -0.0169    1.3935    0.0097 N.pl3     1 <0>        -0.6801
     10 C8          0.8818    2.3829    0.3457 C.2       1 <0>         0.4321
     11 C9          0.4862    3.7057    0.3944 C.2       1 <0>        -0.1890
     12 C10         1.4182    4.6815    0.7380 C.2       1 <0>         0.2329
     13 N2          2.6628    4.3392    1.0121 N.2       1 <0>        -0.4524
     14 C11         3.0609    3.0636    0.9692 C.2       1 <0>         0.4555
     15 N3          2.1779    2.0733    0.6422 N.pl3     1 <0>        -0.3318
     16 N4          2.8957    0.8716    0.6847 N.2       1 <0>        -0.3272
     17 C12         4.1255    1.1708    1.0254 C.2       1 <0>         0.2529
     18 N5          4.2338    2.4823    1.1976 N.2       1 <0>        -0.5231
     19 C13         0.7530    6.0414    0.7236 C.3       1 <0>        -0.0746
     20 C14        -0.5485    5.8483   -0.0829 C.3       1 <0>        -0.1169
     21 C15        -0.8550    4.3502    0.1284 C.3       1 <0>        -0.0614
     22 H1         -0.7164   -0.3161   -5.8286 H         1 <0>         0.0732
     23 H2          1.0165   -0.6846   -5.6566 H         1 <0>         0.0715
     24 H3         -0.2019   -1.8835   -5.1602 H         1 <0>         0.0694
     25 H4          1.4745    1.2626   -4.2846 H         1 <0>         0.1360
     26 H5          1.4513    2.2318   -2.0233 H         1 <0>         0.1154
     27 H6         -1.4690   -0.6529   -0.8230 H         1 <0>         0.1399
     28 H7         -0.6593    1.0789    0.6648 H         1 <0>         0.4243
     29 H8          4.9284    0.4588    1.1471 H         1 <0>         0.2338
     30 H9          1.3967    6.7718    0.2333 H         1 <0>         0.1039
     31 H10         0.5239    6.3624    1.7398 H         1 <0>         0.1099
     32 H11        -0.3852    6.0647   -1.1386 H         1 <0>         0.0840
     33 H12        -1.3494    6.4678    0.3208 H         1 <0>         0.0958
     34 H13        -1.3071    3.9265   -0.7684 H         1 <0>         0.0885
     35 H14        -1.5160    4.2150    0.9845 H         1 <0>         0.0936
@<TRIPOS>BOND
     1    1    2 1
     2    1   22 1
     3    1   23 1
     4    1   24 1
     5    2    7 ar
     6    2    3 ar
     7    3    4 ar
     8    3   25 1
     9    4    5 ar
    10    4   26 1
    11    5    6 ar
    12    5    9 1
    13    6    7 ar
    14    6   27 1
    15    7    8 1
    16    9   10 1
    17    9   28 1
    18   10   15 1
    19   10   11 2
    20   11   21 1
    21   11   12 1
    22   12   13 2
    23   12   19 1
    24   13   14 1
    25   14   18 2
    26   14   15 1
    27   15   16 1
    28   16   17 2
    29   17   18 1
    30   17   29 1
    31   19   20 1
    32   19   30 1
    33   19   31 1
    34   20   21 1
    35   20   32 1
    36   20   33 1
    37   21   34 1
    38   21   35 1
@<TRIPOS>MOLECULE
ZINC00304714
   31    32     0     0     0
SMALL
USER_CHARGES
N-(3,5-dichlorophenyl)-2-methyl-3-nitro-benzamide
@<TRIPOS>ATOM
      1 C1         -4.0559    8.0793   -0.6552 C.3       1 <0>        -0.1618
      2 C2         -2.6060    8.4337   -0.4476 C.ar      1 <0>         0.0527
      3 C3         -1.6727    7.4314   -0.1766 C.ar      1 <0>        -0.1484
      4 C4         -0.3308    7.7676    0.0087 C.ar      1 <0>        -0.0296
      5 C5          0.0641    9.0872   -0.0718 C.ar      1 <0>        -0.1304
      6 C6         -0.8668   10.0761   -0.3355 C.ar      1 <0>        -0.0194
      7 C7         -2.1987    9.7495   -0.5207 C.ar      1 <0>        -0.0579
      8 N1         -3.1878   10.8141   -0.8024 N.pl3     1 <0>         0.0305
      9 O1         -2.8140   11.9574   -0.9941 O.2       1 <0>        -0.1549
     10 O2         -4.3754   10.5469   -0.8424 O.3       1 <0>        -0.1471
     11 C8         -2.1027    6.0198   -0.0923 C.2       1 <0>         0.5656
     12 O3         -3.2852    5.7411   -0.1347 O.2       1 <0>        -0.4915
     13 N2         -1.1838    5.0416    0.0316 N.am      1 <0>        -0.6661
     14 C9         -1.5799    3.7010   -0.0088 C.ar      1 <0>         0.1684
     15 C10        -2.7879    3.3152    0.5574 C.ar      1 <0>        -0.1074
     16 C11        -3.1767    1.9894    0.5165 C.ar      1 <0>        -0.0053
     17 C12        -2.3635    1.0468   -0.0879 C.ar      1 <0>        -0.1131
     18 C13        -1.1566    1.4277   -0.6478 C.ar      1 <0>        -0.0054
     19 C14        -0.7656    2.7531   -0.6147 C.ar      1 <0>        -0.1304
     20 Cl1        -0.1359    0.2408   -1.3982 Cl        1 <0>        -0.0464
     21 Cl2        -4.6863    1.5061    1.2245 Cl        1 <0>        -0.0445
     22 H1         -4.5535    8.0039    0.3116 H         1 <0>         0.0977
     23 H2         -4.5374    8.8538   -1.2522 H         1 <0>         0.1093
     24 H3         -4.1256    7.1239   -1.1752 H         1 <0>         0.1027
     25 H4          0.3968    6.9966    0.2149 H         1 <0>         0.1462
     26 H5          1.1020    9.3488    0.0717 H         1 <0>         0.1581
     27 H6         -0.5525   11.1075   -0.3975 H         1 <0>         0.1618
     28 H7         -0.2478    5.2675    0.1488 H         1 <0>         0.4149
     29 H8         -3.4231    4.0505    1.0289 H         1 <0>         0.1579
     30 H9         -2.6692    0.0115   -0.1188 H         1 <0>         0.1485
     31 H10         0.1741    3.0506   -1.0561 H         1 <0>         0.1451
@<TRIPOS>BOND
     1    1    2 1
     2    1   22 1
     3    1   23 1
     4    1   24 1
     5    2    7 ar
     6    2    3 ar
     7    3    4 ar
     8    3   11 1
     9    4    5 ar
    10    4   25 1
    11    5    6 ar
    12    5   26 1
    13    6    7 ar
    14    6   27 1
    15    7    8 1
    16    8    9 2
    17    8   10 1
    18   11   12 2
    19   11   13 am
    20   13   14 1
    21   13   28 1
    22   14   19 ar
    23   14   15 ar
    24   15   16 ar
    25   15   29 1
    26   16   17 ar
    27   16   21 1
    28   17   18 ar
    29   17   30 1
    30   18   19 ar
    31   18   20 1
    32   19   31 1
@<TRIPOS>MOLECULE
ZINC00342068
   35    37     0     0     0
SMALL
USER_CHARGES
N-(4-bromo-2-methyl-phenyl)naphthalene-2-carboxamide
@<TRIPOS>ATOM
      1 C1         -2.3639    3.5849    1.2911 C.3       1 <0>        -0.1168
      2 C2         -1.1499    3.0012    0.6153 C.ar      1 <0>        -0.1121
      3 C3          0.0370    3.7074    0.5961 C.ar      1 <0>        -0.0693
      4 C4          1.1517    3.1725   -0.0245 C.ar      1 <0>        -0.1055
      5 C5          1.0814    1.9286   -0.6268 C.ar      1 <0>        -0.0730
      6 C6         -0.1025    1.2181   -0.6107 C.ar      1 <0>        -0.1223
      7 C7         -1.2251    1.7555    0.0063 C.ar      1 <0>         0.1647
      8 N1         -2.4274    1.0408    0.0188 N.am      1 <0>        -0.6651
      9 C8         -2.4141   -0.3025   -0.0907 C.2       1 <0>         0.5618
     10 O1         -1.3560   -0.9012   -0.0992 O.2       1 <0>        -0.5104
     11 C9         -3.6852   -1.0473   -0.2005 C.ar      1 <0>        -0.1435
     12 C10        -4.9066   -0.3497   -0.1844 C.ar      1 <0>        -0.0946
     13 C11        -6.0871   -1.0110   -0.2898 C.ar      1 <0>        -0.1047
     14 C12        -6.1006   -2.4133   -0.4052 C.ar      1 <0>        -0.0311
     15 C13        -7.3104   -3.1200   -0.5086 C.ar      1 <0>        -0.1136
     16 C14        -7.2921   -4.4769   -0.6186 C.ar      1 <0>        -0.1005
     17 C15        -6.0890   -5.1801   -0.6304 C.ar      1 <0>        -0.1170
     18 C16        -4.8974   -4.5303   -0.5318 C.ar      1 <0>        -0.0945
     19 C17        -4.8763   -3.1286   -0.4167 C.ar      1 <0>        -0.0650
     20 C18        -3.6655   -2.4277   -0.3128 C.ar      1 <0>        -0.0230
     21 Br1         2.7747    4.1426   -0.0493 Br        1 <0>        -0.0499
     22 H1         -2.9351    4.1697    0.5701 H         1 <0>         0.0759
     23 H2         -2.9862    2.7787    1.6796 H         1 <0>         0.0653
     24 H3         -2.0484    4.2283    2.1124 H         1 <0>         0.0772
     25 H4          0.0948    4.6783    1.0657 H         1 <0>         0.1373
     26 H5          1.9533    1.5132   -1.1103 H         1 <0>         0.1368
     27 H6         -0.1569    0.2475   -1.0812 H         1 <0>         0.1548
     28 H7         -3.2708    1.5119    0.1063 H         1 <0>         0.4128
     29 H8         -4.9048    0.7263   -0.0918 H         1 <0>         0.1248
     30 H9         -7.0166   -0.4612   -0.2800 H         1 <0>         0.1356
     31 H10        -8.2508   -2.5892   -0.5010 H         1 <0>         0.1316
     32 H11        -8.2243   -5.0165   -0.6976 H         1 <0>         0.1278
     33 H12        -6.1026   -6.2564   -0.7186 H         1 <0>         0.1283
     34 H13        -3.9726   -5.0881   -0.5415 H         1 <0>         0.1328
     35 H14        -2.7258   -2.9600   -0.3200 H         1 <0>         0.1448
@<TRIPOS>BOND
     1    1    2 1
     2    1   22 1
     3    1   23 1
     4    1   24 1
     5    2    7 ar
     6    2    3 ar
     7    3    4 ar
     8    3   25 1
     9    4    5 ar
    10    4   21 1
    11    5    6 ar
    12    5   26 1
    13    6    7 ar
    14    6   27 1
    15    7    8 1
    16    8    9 am
    17    8   28 1
    18    9   10 2
    19    9   11 1
    20   11   20 ar
    21   11   12 ar
    22   12   13 ar
    23   12   29 1
    24   13   14 ar
    25   13   30 1
    26   14   19 ar
    27   14   15 ar
    28   15   16 ar
    29   15   31 1
    30   16   17 ar
    31   16   32 1
    32   17   18 ar
    33   17   33 1
    34   18   19 ar
    35   18   34 1
    36   19   20 ar
    37   20   35 1
@<TRIPOS>MOLECULE
ZINC02555734
   39    39     0     0     0
SMALL
USER_CHARGES
diethyl 2-(p-tolylaminomethylene)propanedioate
@<TRIPOS>ATOM
      1 C1          4.8946   -3.1502    0.4782 C.3       1 <0>        -0.1512
      2 C2          3.4903   -2.5878    0.2492 C.3       1 <0>         0.0615
      3 O1          3.5408   -1.1368    0.2695 O.3       1 <0>        -0.3285
      4 C3          2.3777   -0.4811    0.0813 C.2       1 <0>         0.5323
      5 O2          1.3493   -1.1056   -0.0950 O.2       1 <0>        -0.5466
      6 C4          2.3530    0.9853    0.0892 C.2       1 <0>        -0.3520
      7 C5          1.1879    1.6584   -0.2256 C.2       1 <0>         0.3095
      8 N1          0.1179    0.9765   -0.6855 N.pl3     1 <0>        -0.6010
      9 C6         -1.0980    1.6363   -0.8858 C.ar      1 <0>         0.1258
     10 C7         -1.2097    2.9914   -0.6012 C.ar      1 <0>        -0.1544
     11 C8         -2.4109    3.6415   -0.8058 C.ar      1 <0>        -0.0848
     12 C9         -3.5049    2.9424   -1.2821 C.ar      1 <0>        -0.1001
     13 C10        -3.3985    1.5922   -1.5614 C.ar      1 <0>        -0.0867
     14 C11        -2.1988    0.9372   -1.3645 C.ar      1 <0>        -0.1374
     15 C12        -4.8159    3.6537   -1.4976 C.3       1 <0>        -0.1161
     16 C13         3.5648    1.7373    0.4311 C.2       1 <0>         0.5360
     17 O3          3.5443    2.9531    0.4377 O.2       1 <0>        -0.5333
     18 O4          4.7017    1.0804    0.7383 O.3       1 <0>        -0.3358
     19 C14         5.8620    1.8892    1.0666 C.3       1 <0>         0.0632
     20 C15         7.0472    0.9753    1.3845 C.3       1 <0>        -0.1508
     21 H1          4.8567   -4.2395    0.4630 H         1 <0>         0.0785
     22 H2          5.5599   -2.7988   -0.3104 H         1 <0>         0.0669
     23 H3          5.2677   -2.8132    1.4453 H         1 <0>         0.0675
     24 H4          2.8251   -2.9392    1.0378 H         1 <0>         0.0688
     25 H5          3.1172   -2.9249   -0.7179 H         1 <0>         0.0681
     26 H6          1.1336    2.7301   -0.1035 H         1 <0>         0.1830
     27 H7          0.1936    0.0294   -0.8808 H         1 <0>         0.4313
     28 H8         -0.3570    3.5369   -0.2247 H         1 <0>         0.1325
     29 H9         -2.4972    4.6961   -0.5893 H         1 <0>         0.1328
     30 H10        -4.2547    1.0493   -1.9336 H         1 <0>         0.1323
     31 H11        -2.1163   -0.1172   -1.5829 H         1 <0>         0.1318
     32 H12        -5.4106    3.6038   -0.5855 H         1 <0>         0.0728
     33 H13        -4.6260    4.6968   -1.7509 H         1 <0>         0.0687
     34 H14        -5.3593    3.1751   -2.3123 H         1 <0>         0.0684
     35 H15         6.1121    2.5269    0.2188 H         1 <0>         0.0683
     36 H16         5.6387    2.5097    1.9345 H         1 <0>         0.0682
     37 H17         6.7971    0.3376    2.2324 H         1 <0>         0.0660
     38 H18         7.2706    0.3548    0.5166 H         1 <0>         0.0664
     39 H19         7.9183    1.5824    1.6310 H         1 <0>         0.0781
@<TRIPOS>BOND
     1    1    2 1
     2    1   21 1
     3    1   22 1
     4    1   23 1
     5    2    3 1
     6    2   24 1
     7    2   25 1
     8    3    4 1
     9    4    5 2
    10    4    6 1
    11    6    7 2
    12    6   16 1
    13    7    8 1
    14    7   26 1
    15    8    9 1
    16    8   27 1
    17    9   14 ar
    18    9   10 ar
    19   10   11 ar
    20   10   28 1
    21   11   12 ar
    22   11   29 1
    23   12   13 ar
    24   12   15 1
    25   13   14 ar
    26   13   30 1
    27   14   31 1
    28   15   32 1
    29   15   33 1
    30   15   34 1
    31   16   17 2
    32   16   18 1
    33   18   19 1
    34   19   20 1
    35   19   35 1
    36   19   36 1
    37   20   37 1
    38   20   38 1
    39   20   39 1
@<TRIPOS>MOLECULE
ZINC09186742
   34    37     0     0     0
SMALL
USER_CHARGES

@<TRIPOS>ATOM
      1 C1          1.8951   -1.4235   -2.0720 C.3       1 <0>        -0.1116
      2 C2          0.9067   -1.3889   -0.9349 C.2       1 <0>         0.2454
      3 C3         -0.2631   -2.1407   -1.0121 C.2       1 <0>        -0.2374
      4 C4         -1.1581   -2.0973    0.0395 C.2       1 <0>         0.4432
      5 N1         -0.8629   -1.3166    1.1202 N.pl3     1 <0>        -0.3438
      6 C5          0.2979   -0.5963    1.1509 C.2       1 <0>         0.4606
      7 N2          1.1575   -0.6526    0.1272 N.2       1 <0>        -0.4683
      8 N3          0.3207    0.0610    2.3053 N.2       1 <0>        -0.5267
      9 C6         -0.7755   -0.2156    3.0005 C.2       1 <0>         0.2531
     10 N4         -1.5277   -1.0486    2.3236 N.2       1 <0>        -0.3274
     11 N5         -2.3262   -2.8274   -0.0017 N.pl3     1 <0>        -0.6732
     12 C7         -3.5590   -2.1801    0.1137 C.ar      1 <0>         0.1936
     13 C8         -3.6095   -0.7806    0.1152 C.ar      1 <0>        -0.1409
     14 C9         -4.7946   -0.1247    0.2260 C.ar      1 <0>        -0.0622
     15 C10        -5.9913   -0.8538    0.3406 C.ar      1 <0>        -0.0769
     16 C11        -7.2311   -0.2022    0.4560 C.ar      1 <0>        -0.0940
     17 C12        -8.3715   -0.9372    0.5650 C.ar      1 <0>        -0.1270
     18 C13        -8.3305   -2.3303    0.5640 C.ar      1 <0>        -0.1038
     19 C14        -7.1487   -2.9960    0.4545 C.ar      1 <0>        -0.1170
     20 C15        -5.9497   -2.2708    0.3396 C.ar      1 <0>        -0.0126
     21 C16        -4.7129   -2.9249    0.2190 C.ar      1 <0>        -0.1632
     22 H1          2.7445   -0.7830   -1.8347 H         1 <0>         0.0912
     23 H2          2.2416   -2.4461   -2.2213 H         1 <0>         0.0954
     24 H3          1.4139   -1.0663   -2.9826 H         1 <0>         0.0956
     25 H4         -0.4677   -2.7482   -1.8812 H         1 <0>         0.1758
     26 H5         -1.0116    0.1844    3.9756 H         1 <0>         0.2320
     27 H6         -2.2925   -3.7906   -0.1108 H         1 <0>         0.4273
     28 H7         -2.6939   -0.2146    0.0275 H         1 <0>         0.1090
     29 H8         -4.8171    0.9550    0.2263 H         1 <0>         0.1308
     30 H9         -7.2787    0.8767    0.4586 H         1 <0>         0.1268
     31 H10        -9.3225   -0.4332    0.6538 H         1 <0>         0.1238
     32 H11        -9.2502   -2.8897    0.6518 H         1 <0>         0.1241
     33 H12        -7.1318   -4.0759    0.4559 H         1 <0>         0.1270
     34 H13        -4.6664   -4.0039    0.2131 H         1 <0>         0.1313
@<TRIPOS>BOND
     1    1    2 1
     2    1   22 1
     3    1   23 1
     4    1   24 1
     5    2    7 2
     6    2    3 1
     7    3    4 2
     8    3   25 1
     9    4    5 1
    10    4   11 1
    11    5   10 1
    12    5    6 1
    13    6    7 1
    14    6    8 2
    15    8    9 1
    16    9   10 2
    17    9   26 1
    18   11   12 1
    19   11   27 1
    20   12   21 ar
    21   12   13 ar
    22   13   14 ar
    23   13   28 1
    24   14   15 ar
    25   14   29 1
    26   15   20 ar
    27   15   16 ar
    28   16   17 ar
    29   16   30 1
    30   17   18 ar
    31   17   31 1
    32   18   19 ar
    33   18   32 1
    34   19   20 ar
    35   19   33 1
    36   20   21 ar
    37   21   34 1
@<TRIPOS>MOLECULE
ZINC09186742
   33    36     0     0     0
SMALL
USER_CHARGES

@<TRIPOS>ATOM
      1 C1         -0.2745    0.2947    3.1786 C.3       1 <0>        -0.0983
      2 C2         -0.1756   -0.6688    2.0240 C.2       1 <0>         0.2383
      3 C3         -1.3223   -1.3022    1.5514 C.2       1 <0>        -0.3754
      4 C4         -1.2133   -2.1824    0.4922 C.2       1 <0>         0.4598
      5 N1         -2.3262   -2.8274   -0.0026 N.2       1 <0>        -0.6610
      6 C5         -3.5836   -2.2263    0.0964 C.ar      1 <0>         0.2086
      7 C6         -3.6865   -0.8297    0.0920 C.ar      1 <0>        -0.1642
      8 C7         -4.8965   -0.2184    0.1865 C.ar      1 <0>        -0.0902
      9 C8         -6.0664   -0.9915    0.2905 C.ar      1 <0>        -0.1046
     10 C9         -7.3309   -0.3864    0.3884 C.ar      1 <0>        -0.0873
     11 C10        -8.4442   -1.1632    0.4869 C.ar      1 <0>        -0.1586
     12 C11        -8.3511   -2.5538    0.4922 C.ar      1 <0>        -0.1172
     13 C12        -7.1439   -3.1751    0.3990 C.ar      1 <0>        -0.1238
     14 C13        -5.9716   -2.4058    0.2958 C.ar      1 <0>        -0.0054
     15 C14        -4.7099   -3.0136    0.1917 C.ar      1 <0>        -0.1900
     16 N2          0.0185   -2.4007   -0.0552 N.pl3     1 <0>        -0.3407
     17 C15         1.1156   -1.7559    0.4426 C.2       1 <0>         0.4766
     18 N3          0.9935   -0.9021    1.4654 N.2       1 <0>        -0.5554
     19 N4          2.1621   -2.1542   -0.2724 N.2       1 <0>        -0.5714
     20 C16         1.7694   -3.0211   -1.1974 C.2       1 <0>         0.2163
     21 N5          0.4748   -3.2049   -1.1072 N.2       1 <0>        -0.3389
     22 H1          0.7144    0.6932    3.4051 H         1 <0>         0.0747
     23 H2         -0.9438    1.1129    2.9127 H         1 <0>         0.0776
     24 H3         -0.6658   -0.2252    4.0531 H         1 <0>         0.0774
     25 H4         -2.2824   -1.1084    2.0064 H         1 <0>         0.1406
     26 H5         -2.7917   -0.2302    0.0127 H         1 <0>         0.1148
     27 H6         -4.9595    0.8598    0.1821 H         1 <0>         0.1146
     28 H7         -7.4190    0.6900    0.3860 H         1 <0>         0.1149
     29 H8         -9.4145   -0.6949    0.5624 H         1 <0>         0.1102
     30 H9         -9.2501   -3.1470    0.5717 H         1 <0>         0.1110
     31 H10        -7.0867   -4.2536    0.4048 H         1 <0>         0.1171
     32 H11        -4.6230   -4.0901    0.1903 H         1 <0>         0.1164
     33 H12         2.4178   -3.5019   -1.9151 H         1 <0>         0.2132
@<TRIPOS>BOND
     1    1    2 1
     2    1   22 1
     3    1   23 1
     4    1   24 1
     5    2   18 2
     6    2    3 1
     7    3    4 2
     8    3   25 1
     9    4    5 1
    10    4   16 1
    11    5    6 1
    12    6   15 ar
    13    6    7 ar
    14    7    8 ar
    15    7   26 1
    16    8    9 ar
    17    8   27 1
    18    9   14 ar
    19    9   10 ar
    20   10   11 ar
    21   10   28 1
    22   11   12 ar
    23   11   29 1
    24   12   13 ar
    25   12   30 1
    26   13   14 ar
    27   13   31 1
    28   14   15 ar
    29   15   32 1
    30   16   21 1
    31   16   17 1
    32   17   18 1
    33   17   19 2
    34   19   20 1
    35   20   21 2
    36   20   33 1
@<TRIPOS>MOLECULE
ZINC00267589
   35    38     0     0     0
SMALL
USER_CHARGES
3-[(4-methyl-1,5,7,9-tetrazabicyclo[4.3.0]nona-2,4,6,8-tetraen-2-yl)amino]naphthalen-2-ol
@<TRIPOS>ATOM
      1 C1          2.2056   -0.7188   -3.8153 C.3       1 <0>        -0.1094
      2 C2          1.9024    0.3392   -2.7859 C.2       1 <0>         0.2657
      3 C3          2.8846    0.7194   -1.8748 C.2       1 <0>        -0.3126
      4 C4          2.5893    1.6907   -0.9376 C.2       1 <0>         0.4835
      5 N1          1.3412    2.2448   -0.9381 N.pl3     1 <0>        -0.3611
      6 C5          0.4099    1.8394   -1.8521 C.2       1 <0>         0.4856
      7 N2          0.7106    0.8977   -2.7536 N.2       1 <0>        -0.4977
      8 N3         -0.6945    2.5419   -1.6243 N.2       1 <0>        -0.5335
      9 C6         -0.4995    3.3646   -0.6012 C.2       1 <0>         0.2637
     10 N4          0.7235    3.2249   -0.1509 N.2       1 <0>        -0.3545
     11 N5          3.5356    2.0921   -0.0200 N.pl3     1 <0>        -0.6441
     12 C7          4.7540    1.4121    0.0707 C.ar      1 <0>         0.1255
     13 C8          4.7665    0.0459    0.0682 C.ar      1 <0>        -0.1097
     14 C9          5.9901   -0.6388    0.1537 C.ar      1 <0>        -0.0402
     15 C10         6.0396   -2.0435    0.1487 C.ar      1 <0>        -0.1040
     16 C11         7.2416   -2.6758    0.2385 C.ar      1 <0>        -0.1076
     17 C12         8.4280   -1.9511    0.3351 C.ar      1 <0>        -0.1088
     18 C13         8.4190   -0.5899    0.3434 C.ar      1 <0>        -0.1032
     19 C14         7.1973    0.0984    0.2525 C.ar      1 <0>        -0.0441
     20 C15         7.1521    1.5033    0.2583 C.ar      1 <0>        -0.1063
     21 C16         5.9501    2.1415    0.1690 C.ar      1 <0>         0.0995
     22 O1          5.9094    3.5001    0.1749 O.3       1 <0>        -0.4905
     23 H1          2.6013   -0.2477   -4.7150 H         1 <0>         0.0956
     24 H2          2.9431   -1.4145   -3.4150 H         1 <0>         0.0888
     25 H3          1.2915   -1.2597   -4.0605 H         1 <0>         0.0914
     26 H4          3.8626    0.2622   -1.9007 H         1 <0>         0.1723
     27 H5         -1.2349    4.0481   -0.2032 H         1 <0>         0.2331
     28 H6          3.3565    2.8463    0.5630 H         1 <0>         0.4255
     29 H7          3.8403   -0.5050   -0.0031 H         1 <0>         0.1420
     30 H8          5.1283   -2.6183    0.0744 H         1 <0>         0.1317
     31 H9          7.2765   -3.7553    0.2344 H         1 <0>         0.1282
     32 H10         9.3686   -2.4773    0.4044 H         1 <0>         0.1278
     33 H11         9.3464   -0.0416    0.4188 H         1 <0>         0.1314
     34 H12         8.0653    2.0749    0.3327 H         1 <0>         0.1442
     35 H13         5.8287    3.8874    1.0573 H         1 <0>         0.3920
@<TRIPOS>BOND
     1    1    2 1
     2    1   23 1
     3    1   24 1
     4    1   25 1
     5    2    7 2
     6    2    3 1
     7    3    4 2
     8    3   26 1
     9    4    5 1
    10    4   11 1
    11    5   10 1
    12    5    6 1
    13    6    7 1
    14    6    8 2
    15    8    9 1
    16    9   10 2
    17    9   27 1
    18   11   12 1
    19   11   28 1
    20   12   21 ar
    21   12   13 ar
    22   13   14 ar
    23   13   29 1
    24   14   19 ar
    25   14   15 ar
    26   15   16 ar
    27   15   30 1
    28   16   17 ar
    29   16   31 1
    30   17   18 ar
    31   17   32 1
    32   18   19 ar
    33   18   33 1
    34   19   20 ar
    35   20   21 ar
    36   20   34 1
    37   21   22 1
    38   22   35 1
@<TRIPOS>MOLECULE
ZINC04898044
   35    38     0     0     0
SMALL
USER_CHARGES
N-indan-5-yl-4-methyl-1,5,7,9-tetrazabicyclo[4.3.0]nona-2,4,6,8-tetraen-2-amine
@<TRIPOS>ATOM
      1 C1          1.4351   -0.9575    2.8375 C.3       1 <0>        -0.1102
      2 C2          1.2798   -0.0895    1.6154 C.2       1 <0>         0.2457
      3 C3          0.0838    0.5897    1.3968 C.2       1 <0>        -0.2362
      4 C4         -0.0413    1.3811    0.2713 C.2       1 <0>         0.4476
      5 N1          1.0152    1.4695   -0.5892 N.pl3     1 <0>        -0.3446
      6 C5          2.1695    0.7847   -0.3324 C.2       1 <0>         0.4637
      7 N2          2.2758    0.0221    0.7617 N.2       1 <0>        -0.4696
      8 N3          3.0132    1.0533   -1.3230 N.2       1 <0>        -0.5280
      9 C6          2.4386    1.8778   -2.1900 C.2       1 <0>         0.2575
     10 N4          1.2232    2.1609   -1.7894 N.2       1 <0>        -0.3402
     11 N5         -1.2118    2.0636    0.0190 N.pl3     1 <0>        -0.6726
     12 C7         -2.4188    1.3665   -0.0845 C.ar      1 <0>         0.1868
     13 C8         -2.4229   -0.0228   -0.0925 C.ar      1 <0>        -0.1733
     14 C9         -3.6174   -0.7055   -0.1944 C.ar      1 <0>        -0.0633
     15 C10        -4.8135   -0.0123   -0.2893 C.ar      1 <0>        -0.1275
     16 C11        -4.8128    1.3706   -0.2818 C.ar      1 <0>        -0.0553
     17 C12        -3.6177    2.0597   -0.1739 C.ar      1 <0>        -0.1504
     18 C13        -6.2325    1.8836   -0.3954 C.3       1 <0>        -0.0848
     19 C14        -7.1273    0.6794   -0.0332 C.3       1 <0>        -0.1209
     20 C15        -6.2341   -0.5220   -0.4085 C.3       1 <0>        -0.0803
     21 H1          1.1113   -1.9722    2.6059 H         1 <0>         0.0976
     22 H2          2.4813   -0.9708    3.1432 H         1 <0>         0.0927
     23 H3          0.8250   -0.5573    3.6473 H         1 <0>         0.0913
     24 H4         -0.7338    0.4989    2.0965 H         1 <0>         0.1751
     25 H5          2.9022    2.2581   -3.0883 H         1 <0>         0.2336
     26 H6         -1.1979    3.0277   -0.0867 H         1 <0>         0.4228
     27 H7         -1.4931   -0.5671   -0.0187 H         1 <0>         0.1223
     28 H8         -3.6202   -1.7855   -0.2005 H         1 <0>         0.1264
     29 H9         -3.6176    3.1397   -0.1635 H         1 <0>         0.1259
     30 H10        -6.3965    2.7013    0.3064 H         1 <0>         0.0778
     31 H11        -6.4354    2.2125   -1.4146 H         1 <0>         0.0836
     32 H12        -7.3565    0.6737    1.0324 H         1 <0>         0.0739
     33 H13        -8.0412    0.6832   -0.6272 H         1 <0>         0.0784
     34 H14        -6.4374   -0.8395   -1.4313 H         1 <0>         0.0793
     35 H15        -6.3992   -1.3471    0.2843 H         1 <0>         0.0755
@<TRIPOS>BOND
     1    1    2 1
     2    1   21 1
     3    1   22 1
     4    1   23 1
     5    2    7 2
     6    2    3 1
     7    3    4 2
     8    3   24 1
     9    4    5 1
    10    4   11 1
    11    5   10 1
    12    5    6 1
    13    6    7 1
    14    6    8 2
    15    8    9 1
    16    9   10 2
    17    9   25 1
    18   11   12 1
    19   11   26 1
    20   12   17 ar
    21   12   13 ar
    22   13   14 ar
    23   13   27 1
    24   14   15 ar
    25   14   28 1
    26   15   20 1
    27   15   16 ar
    28   16   17 ar
    29   16   18 1
    30   17   29 1
    31   18   19 1
    32   18   30 1
    33   18   31 1
    34   19   20 1
    35   19   32 1
    36   19   33 1
    37   20   34 1
    38   20   35 1
@<TRIPOS>MOLECULE
ZINC02499433
   37    39     0     0     0
SMALL
USER_CHARGES

@<TRIPOS>ATOM
      1 C1          1.8951   -1.4274   -2.0752 C.3       1 <0>        -0.1114
      2 C2          0.9066   -1.3904   -0.9383 C.2       1 <0>         0.2453
      3 C3         -0.2632   -2.1424   -1.0140 C.2       1 <0>        -0.2395
      4 C4         -1.1581   -2.0971    0.0375 C.2       1 <0>         0.4454
      5 N1         -0.8629   -1.3145    1.1167 N.pl3     1 <0>        -0.3433
      6 C5          0.2978   -0.5940    1.1461 C.2       1 <0>         0.4606
      7 N2          1.1572   -0.6518    0.1223 N.2       1 <0>        -0.4694
      8 N3          0.3209    0.0651    2.2995 N.2       1 <0>        -0.5274
      9 C6         -0.7752   -0.2106    2.9954 C.2       1 <0>         0.2522
     10 N4         -1.5275   -1.0447    2.3198 N.2       1 <0>        -0.3266
     11 N5         -2.3262   -2.8274   -0.0023 N.pl3     1 <0>        -0.6741
     12 C7         -3.5595   -2.1798    0.1135 C.ar      1 <0>         0.1807
     13 C8         -3.6195   -0.7920    0.1164 C.ar      1 <0>        -0.1500
     14 C9         -4.8397   -0.1554    0.2305 C.ar      1 <0>        -0.0762
     15 C10        -6.0010   -0.8979    0.3418 C.ar      1 <0>        -0.1032
     16 C11        -5.9449   -2.2796    0.3392 C.ar      1 <0>        -0.0754
     17 C12        -4.7285   -2.9226    0.2202 C.ar      1 <0>        -0.1581
     18 C13        -7.3307   -0.1997    0.4666 C.3       1 <0>        -0.0544
     19 C14        -8.2311   -0.6047   -0.7023 C.3       1 <0>        -0.1448
     20 C15        -7.9954   -0.6005    1.7851 C.3       1 <0>        -0.1450
     21 H1          2.7445   -0.7864   -1.8391 H         1 <0>         0.0910
     22 H2          2.2416   -2.4503   -2.2223 H         1 <0>         0.0952
     23 H3          1.4141   -1.0721   -2.9866 H         1 <0>         0.0953
     24 H4         -0.4679   -2.7515   -1.8821 H         1 <0>         0.1752
     25 H5         -1.0112    0.1912    3.9697 H         1 <0>         0.2315
     26 H6         -2.2925   -3.7907   -0.1107 H         1 <0>         0.4262
     27 H7         -2.7129   -0.2115    0.0298 H         1 <0>         0.1062
     28 H8         -4.8870    0.9236    0.2331 H         1 <0>         0.1231
     29 H9         -6.8537   -2.8565    0.4267 H         1 <0>         0.1272
     30 H10        -4.6857   -4.0018    0.2141 H         1 <0>         0.1262
     31 H11        -7.1774    0.8793    0.4502 H         1 <0>         0.0763
     32 H12        -8.3843   -1.6838   -0.6859 H         1 <0>         0.0564
     33 H13        -9.1928   -0.0997   -0.6120 H         1 <0>         0.0585
     34 H14        -7.7576   -0.3192   -1.6416 H         1 <0>         0.0555
     35 H15        -7.3539   -0.3120    2.6178 H         1 <0>         0.0560
     36 H16        -8.9571   -0.0955    1.8754 H         1 <0>         0.0584
     37 H17        -8.1486   -1.6796    1.8014 H         1 <0>         0.0563
@<TRIPOS>BOND
     1    1    2 1
     2    1   21 1
     3    1   22 1
     4    1   23 1
     5    2    7 2
     6    2    3 1
     7    3    4 2
     8    3   24 1
     9    4    5 1
    10    4   11 1
    11    5   10 1
    12    5    6 1
    13    6    7 1
    14    6    8 2
    15    8    9 1
    16    9   10 2
    17    9   25 1
    18   11   12 1
    19   11   26 1
    20   12   17 ar
    21   12   13 ar
    22   13   14 ar
    23   13   27 1
    24   14   15 ar
    25   14   28 1
    26   15   16 ar
    27   15   18 1
    28   16   17 ar
    29   16   29 1
    30   17   30 1
    31   18   19 1
    32   18   20 1
    33   18   31 1
    34   19   32 1
    35   19   33 1
    36   19   34 1
    37   20   35 1
    38   20   36 1
    39   20   37 1
